MODEL 1
REMARK VINA RESULT:      -7.0      0.000      0.000
REMARK  14 active torsions:
REMARK  status: ('A' for Active; 'I' for Inactive)
REMARK    1  A    between atoms: C_3  and  C_1 
REMARK       I    between atoms: N_6  and  C_1 
REMARK    2  A    between atoms: C_2  and  C_4 
REMARK    3  A    between atoms: O_8  and  C_2 
REMARK    4  A    between atoms: C_5  and  C_3 
REMARK    5  A    between atoms: C_4  and  C_5 
REMARK    6  A    between atoms: C_4  and  C_20 
REMARK    7  A    between atoms: C_16  and  N_6 
REMARK    8  A    between atoms: C_10  and  C_7 
REMARK    9  A    between atoms: O_13  and  C_7 
REMARK   10  A    between atoms: C_9  and  O_8 
REMARK   11  A    between atoms: O_23  and  C_20 
REMARK   12  A    between atoms: C_26  and  O_23 
REMARK   13  A    between atoms: O_24  and  C_25 
REMARK   14  A    between atoms: C_25  and  C_26 
ROOT
HETATM    1  C   UNK N   1      26.953  17.312   5.963  0.00  0.00     0.036 C 
ENDROOT
BRANCH   1   2
HETATM    2  C   UNK N   1      27.178  16.529   4.668  0.00  0.00     0.111 C 
BRANCH   2   3
HETATM    3  C   UNK N   1      25.942  16.573   3.843  0.00  0.00     0.270 C 
HETATM    4  O   UNK N   1      25.980  16.215   2.674  0.00  0.00    -0.264 OA
BRANCH   3   5
HETATM    5  O   UNK N   1      24.781  16.966   4.432  0.00  0.00    -0.279 OA
BRANCH   5   6
HETATM    6  C   UNK N   1      23.946  17.955   4.036  0.00  0.00     0.079 A 
HETATM    7  C   UNK N   1      24.407  19.242   3.675  0.00  0.00     0.038 A 
HETATM    8  C   UNK N   1      23.507  20.203   3.191  0.00  0.00     0.010 A 
HETATM    9  C   UNK N   1      22.161  19.857   3.069  0.00  0.00    -0.052 A 
HETATM   10  C   UNK N   1      21.714  18.620   3.426  0.00  0.00    -0.049 A 
HETATM   11  C   UNK N   1      21.087  20.721   2.552  0.00  0.00     0.039 A 
HETATM   12  C   UNK N   1      22.583  17.652   3.917  0.00  0.00     0.045 A 
HETATM   13  C   UNK N   1      20.270  18.446   3.209  0.00  0.00     0.039 A 
HETATM   14  C   UNK N   1      19.847  19.805   2.616  0.00  0.00     0.009 A 
ENDBRANCH   5   6
ENDBRANCH   3   5
ENDBRANCH   2   3
BRANCH   2  15
HETATM   15  C   UNK N   1      27.560  15.053   4.886  0.00  0.00     0.182 C 
BRANCH  15  16
HETATM   16  O   UNK N   1      28.944  14.812   4.869  0.00  0.00    -0.388 OA
BRANCH  16  17
HETATM   17  C   UNK N   1      29.299  14.603   3.528  0.00  0.00     0.193 C 
BRANCH  17  18
HETATM   18  C   UNK N   1      30.720  15.069   3.257  0.00  0.00     0.193 C 
BRANCH  18  19
HETATM   19  O   UNK N   1      30.878  16.388   3.685  0.00  0.00    -0.394 OA
HETATM   20  C   UNK N   1      31.890  16.906   2.874  0.00  0.00     0.201 C 
ENDBRANCH  18  19
ENDBRANCH  17  18
ENDBRANCH  16  17
ENDBRANCH  15  16
ENDBRANCH   2  15
ENDBRANCH   1   2
BRANCH   1  21
HETATM   21  C   UNK N   1      28.154  18.190   6.324  0.00  0.00     0.042 C 
HETATM   22  C   UNK N   1      28.830  18.664   5.054  0.00  0.00     0.019 C 
HETATM   23  C   UNK N   1      28.023  19.864   4.590  0.00  0.00     0.001 C 
HETATM   24  C   UNK N   1      27.309  20.402   5.821  0.00  0.00     0.001 C 
HETATM   25  C   UNK N   1      27.697  19.489   6.972  0.00  0.00     0.019 C 
BRANCH  21  26
HETATM   26  C   UNK N   1      29.123  17.406   7.177  0.00  0.00     0.226 C 
HETATM   27  N   UNK N   1      30.292  16.966   6.634  0.00  0.00    -0.356 N 
HETATM   28  H   UNK N   1      30.460  17.239   5.703  0.00  0.00     0.162 HD
HETATM   29  O   UNK N   1      28.851  17.195   8.350  0.00  0.00    -0.273 OA
BRANCH  27  30
HETATM   30  C   UNK N   1      31.326  16.146   7.249  0.00  0.00     0.084 C 
HETATM   31  C   UNK N   1      32.617  15.951   6.433  0.00  0.00     0.026 C 
HETATM   32  C   UNK N   1      33.425  17.251   6.320  0.00  0.00     0.017 C 
HETATM   33  C   UNK N   1      33.683  17.907   7.686  0.00  0.00     0.084 C 
HETATM   34  C   UNK N   1      32.371  18.077   8.452  0.00  0.00     0.017 C 
HETATM   35  C   UNK N   1      31.666  16.730   8.616  0.00  0.00     0.026 C 
BRANCH  33  36
HETATM   36  C   UNK N   1      34.703  17.186   8.529  0.00  0.00     0.143 C 
HETATM   37  O   UNK N   1      35.075  16.059   8.241  0.00  0.00    -0.650 OA
BRANCH  36  38
HETATM   38  O   UNK N   1      35.212  17.797   9.616  0.00  0.00    -0.776 OA
HETATM   39  H   UNK N   1      34.745  17.795  10.429  0.00  0.00     0.167 HD
ENDBRANCH  36  38
ENDBRANCH  33  36
ENDBRANCH  27  30
ENDBRANCH  21  26
ENDBRANCH   1  21
TORSDOF 14
ENDMDL
MODEL 2
REMARK VINA RESULT:      -7.0      2.851      5.883
REMARK  14 active torsions:
REMARK  status: ('A' for Active; 'I' for Inactive)
REMARK    1  A    between atoms: C_3  and  C_1 
REMARK       I    between atoms: N_6  and  C_1 
REMARK    2  A    between atoms: C_2  and  C_4 
REMARK    3  A    between atoms: O_8  and  C_2 
REMARK    4  A    between atoms: C_5  and  C_3 
REMARK    5  A    between atoms: C_4  and  C_5 
REMARK    6  A    between atoms: C_4  and  C_20 
REMARK    7  A    between atoms: C_16  and  N_6 
REMARK    8  A    between atoms: C_10  and  C_7 
REMARK    9  A    between atoms: O_13  and  C_7 
REMARK   10  A    between atoms: C_9  and  O_8 
REMARK   11  A    between atoms: O_23  and  C_20 
REMARK   12  A    between atoms: C_26  and  O_23 
REMARK   13  A    between atoms: O_24  and  C_25 
REMARK   14  A    between atoms: C_25  and  C_26 
ROOT
HETATM    1  C   UNK N   1      26.518  17.735   5.689  0.00  0.00     0.036 C 
ENDROOT
BRANCH   1   2
HETATM    2  C   UNK N   1      26.828  16.419   4.974  0.00  0.00     0.111 C 
BRANCH   2   3
HETATM    3  C   UNK N   1      26.636  16.594   3.510  0.00  0.00     0.270 C 
HETATM    4  O   UNK N   1      25.814  17.400   3.099  0.00  0.00    -0.264 OA
BRANCH   3   5
HETATM    5  O   UNK N   1      27.425  15.881   2.662  0.00  0.00    -0.279 OA
BRANCH   5   6
HETATM    6  C   UNK N   1      28.703  15.483   2.859  0.00  0.00     0.079 A 
HETATM    7  C   UNK N   1      29.058  14.128   3.053  0.00  0.00     0.038 A 
HETATM    8  C   UNK N   1      30.407  13.762   3.168  0.00  0.00     0.010 A 
HETATM    9  C   UNK N   1      31.380  14.758   3.078  0.00  0.00    -0.052 A 
HETATM   10  C   UNK N   1      31.039  16.065   2.902  0.00  0.00    -0.049 A 
HETATM   11  C   UNK N   1      32.837  14.555   3.143  0.00  0.00     0.039 A 
HETATM   12  C   UNK N   1      29.709  16.457   2.794  0.00  0.00     0.045 A 
HETATM   13  C   UNK N   1      32.206  16.957   2.818  0.00  0.00     0.039 A 
HETATM   14  C   UNK N   1      33.392  15.982   2.952  0.00  0.00     0.009 A 
ENDBRANCH   5   6
ENDBRANCH   3   5
ENDBRANCH   2   3
BRANCH   2  15
HETATM   15  C   UNK N   1      25.959  15.234   5.435  0.00  0.00     0.182 C 
BRANCH  15  16
HETATM   16  O   UNK N   1      25.208  15.492   6.594  0.00  0.00    -0.388 OA
BRANCH  16  17
HETATM   17  C   UNK N   1      25.682  14.617   7.582  0.00  0.00     0.193 C 
BRANCH  17  18
HETATM   18  C   UNK N   1      24.841  13.352   7.647  0.00  0.00     0.193 C 
BRANCH  18  19
HETATM   19  O   UNK N   1      23.927  13.440   8.698  0.00  0.00    -0.394 OA
HETATM   20  C   UNK N   1      24.509  12.711   9.737  0.00  0.00     0.201 C 
ENDBRANCH  18  19
ENDBRANCH  17  18
ENDBRANCH  16  17
ENDBRANCH  15  16
ENDBRANCH   2  15
ENDBRANCH   1   2
BRANCH   1  21
HETATM   21  C   UNK N   1      27.787  18.455   6.152  0.00  0.00     0.042 C 
HETATM   22  C   UNK N   1      28.576  18.911   4.942  0.00  0.00     0.019 C 
HETATM   23  C   UNK N   1      27.929  20.216   4.506  0.00  0.00     0.001 C 
HETATM   24  C   UNK N   1      27.216  20.769   5.731  0.00  0.00     0.001 C 
HETATM   25  C   UNK N   1      27.442  19.764   6.847  0.00  0.00     0.019 C 
BRANCH  21  26
HETATM   26  C   UNK N   1      28.619  17.528   7.005  0.00  0.00     0.226 C 
HETATM   27  N   UNK N   1      29.920  17.296   6.673  0.00  0.00    -0.356 N 
HETATM   28  H   UNK N   1      30.261  17.803   5.902  0.00  0.00     0.162 HD
HETATM   29  O   UNK N   1      28.117  17.013   7.994  0.00  0.00    -0.273 OA
BRANCH  27  30
HETATM   30  C   UNK N   1      30.873  16.397   7.310  0.00  0.00     0.084 C 
HETATM   31  C   UNK N   1      32.129  16.044   6.492  0.00  0.00     0.026 C 
HETATM   32  C   UNK N   1      33.063  17.251   6.327  0.00  0.00     0.017 C 
HETATM   33  C   UNK N   1      33.400  17.924   7.667  0.00  0.00     0.084 C 
HETATM   34  C   UNK N   1      32.120  18.252   8.436  0.00  0.00     0.017 C 
HETATM   35  C   UNK N   1      31.284  16.991   8.653  0.00  0.00     0.026 C 
BRANCH  33  36
HETATM   36  C   UNK N   1      34.350  17.133   8.528  0.00  0.00     0.143 C 
HETATM   37  O   UNK N   1      34.592  17.474   9.676  0.00  0.00    -0.650 OA
BRANCH  36  38
HETATM   38  O   UNK N   1      34.940  16.033   8.024  0.00  0.00    -0.776 OA
HETATM   39  H   UNK N   1      35.053  15.933   7.099  0.00  0.00     0.167 HD
ENDBRANCH  36  38
ENDBRANCH  33  36
ENDBRANCH  27  30
ENDBRANCH  21  26
ENDBRANCH   1  21
TORSDOF 14
ENDMDL
MODEL 3
REMARK VINA RESULT:      -6.9      6.001      9.745
REMARK  14 active torsions:
REMARK  status: ('A' for Active; 'I' for Inactive)
REMARK    1  A    between atoms: C_3  and  C_1 
REMARK       I    between atoms: N_6  and  C_1 
REMARK    2  A    between atoms: C_2  and  C_4 
REMARK    3  A    between atoms: O_8  and  C_2 
REMARK    4  A    between atoms: C_5  and  C_3 
REMARK    5  A    between atoms: C_4  and  C_5 
REMARK    6  A    between atoms: C_4  and  C_20 
REMARK    7  A    between atoms: C_16  and  N_6 
REMARK    8  A    between atoms: C_10  and  C_7 
REMARK    9  A    between atoms: O_13  and  C_7 
REMARK   10  A    between atoms: C_9  and  O_8 
REMARK   11  A    between atoms: O_23  and  C_20 
REMARK   12  A    between atoms: C_26  and  O_23 
REMARK   13  A    between atoms: O_24  and  C_25 
REMARK   14  A    between atoms: C_25  and  C_26 
ROOT
HETATM    1  C   UNK N   1      21.739  15.497   8.070  0.00  0.00     0.036 C 
ENDROOT
BRANCH   1   2
HETATM    2  C   UNK N   1      20.564  16.300   7.508  0.00  0.00     0.111 C 
BRANCH   2   3
HETATM    3  C   UNK N   1      21.082  17.448   6.718  0.00  0.00     0.270 C 
HETATM    4  O   UNK N   1      21.014  18.579   7.175  0.00  0.00    -0.264 OA
BRANCH   3   5
HETATM    5  O   UNK N   1      21.669  17.196   5.517  0.00  0.00    -0.279 OA
BRANCH   5   6
HETATM    6  C   UNK N   1      22.419  18.039   4.770  0.00  0.00     0.079 A 
HETATM    7  C   UNK N   1      21.851  18.980   3.880  0.00  0.00     0.038 A 
HETATM    8  C   UNK N   1      22.673  19.887   3.194  0.00  0.00     0.010 A 
HETATM    9  C   UNK N   1      24.049  19.843   3.417  0.00  0.00    -0.052 A 
HETATM   10  C   UNK N   1      24.599  18.931   4.267  0.00  0.00    -0.049 A 
HETATM   11  C   UNK N   1      25.054  20.733   2.813  0.00  0.00     0.039 A 
HETATM   12  C   UNK N   1      23.809  18.015   4.953  0.00  0.00     0.045 A 
HETATM   13  C   UNK N   1      26.061  19.055   4.377  0.00  0.00     0.039 A 
HETATM   14  C   UNK N   1      26.373  20.246   3.449  0.00  0.00     0.009 A 
ENDBRANCH   5   6
ENDBRANCH   3   5
ENDBRANCH   2   3
BRANCH   2  15
HETATM   15  C   UNK N   1      19.608  16.850   8.584  0.00  0.00     0.182 C 
BRANCH  15  16
HETATM   16  O   UNK N   1      18.351  16.223   8.607  0.00  0.00    -0.388 OA
BRANCH  16  17
HETATM   17  C   UNK N   1      17.430  17.186   9.044  0.00  0.00     0.193 C 
BRANCH  17  18
HETATM   18  C   UNK N   1      17.976  17.973  10.224  0.00  0.00     0.193 C 
BRANCH  18  19
HETATM   19  O   UNK N   1      16.941  18.663  10.857  0.00  0.00    -0.394 OA
HETATM   20  C   UNK N   1      17.466  19.033  12.096  0.00  0.00     0.201 C 
ENDBRANCH  18  19
ENDBRANCH  17  18
ENDBRANCH  16  17
ENDBRANCH  15  16
ENDBRANCH   2  15
ENDBRANCH   1   2
BRANCH   1  21
HETATM   21  C   UNK N   1      21.603  13.999   7.786  0.00  0.00     0.042 C 
HETATM   22  C   UNK N   1      22.951  13.331   7.954  0.00  0.00     0.019 C 
HETATM   23  C   UNK N   1      23.100  13.090   9.448  0.00  0.00     0.001 C 
HETATM   24  C   UNK N   1      21.690  13.069  10.019  0.00  0.00     0.001 C 
HETATM   25  C   UNK N   1      20.752  13.323   8.852  0.00  0.00     0.019 C 
BRANCH  21  26
HETATM   26  C   UNK N   1      21.081  13.789   6.384  0.00  0.00     0.226 C 
HETATM   27  N   UNK N   1      21.893  14.046   5.320  0.00  0.00    -0.356 N 
HETATM   28  H   UNK N   1      22.814  14.314   5.540  0.00  0.00     0.162 HD
HETATM   29  O   UNK N   1      19.943  13.372   6.226  0.00  0.00    -0.273 OA
BRANCH  27  30
HETATM   30  C   UNK N   1      21.576  13.978   3.901  0.00  0.00     0.084 C 
HETATM   31  C   UNK N   1      22.174  15.086   3.015  0.00  0.00     0.026 C 
HETATM   32  C   UNK N   1      23.698  14.963   2.892  0.00  0.00     0.017 C 
HETATM   33  C   UNK N   1      24.144  13.557   2.460  0.00  0.00     0.084 C 
HETATM   34  C   UNK N   1      23.523  12.497   3.371  0.00  0.00     0.017 C 
HETATM   35  C   UNK N   1      21.999  12.613   3.370  0.00  0.00     0.026 C 
BRANCH  33  36
HETATM   36  C   UNK N   1      23.865  13.243   1.013  0.00  0.00     0.143 C 
HETATM   37  O   UNK N   1      23.660  12.097   0.645  0.00  0.00    -0.650 OA
BRANCH  36  38
HETATM   38  O   UNK N   1      23.840  14.245   0.113  0.00  0.00    -0.776 OA
HETATM   39  H   UNK N   1      24.209  15.081   0.318  0.00  0.00     0.167 HD
ENDBRANCH  36  38
ENDBRANCH  33  36
ENDBRANCH  27  30
ENDBRANCH  21  26
ENDBRANCH   1  21
TORSDOF 14
ENDMDL
MODEL 4
REMARK VINA RESULT:      -6.9      1.890      3.012
REMARK  14 active torsions:
REMARK  status: ('A' for Active; 'I' for Inactive)
REMARK    1  A    between atoms: C_3  and  C_1 
REMARK       I    between atoms: N_6  and  C_1 
REMARK    2  A    between atoms: C_2  and  C_4 
REMARK    3  A    between atoms: O_8  and  C_2 
REMARK    4  A    between atoms: C_5  and  C_3 
REMARK    5  A    between atoms: C_4  and  C_5 
REMARK    6  A    between atoms: C_4  and  C_20 
REMARK    7  A    between atoms: C_16  and  N_6 
REMARK    8  A    between atoms: C_10  and  C_7 
REMARK    9  A    between atoms: O_13  and  C_7 
REMARK   10  A    between atoms: C_9  and  O_8 
REMARK   11  A    between atoms: O_23  and  C_20 
REMARK   12  A    between atoms: C_26  and  O_23 
REMARK   13  A    between atoms: O_24  and  C_25 
REMARK   14  A    between atoms: C_25  and  C_26 
ROOT
HETATM    1  C   UNK N   1      26.671  17.586   6.050  0.00  0.00     0.036 C 
ENDROOT
BRANCH   1   2
HETATM    2  C   UNK N   1      26.841  16.324   5.202  0.00  0.00     0.111 C 
BRANCH   2   3
HETATM    3  C   UNK N   1      25.940  16.396   4.021  0.00  0.00     0.270 C 
HETATM    4  O   UNK N   1      26.415  16.378   2.895  0.00  0.00    -0.264 OA
BRANCH   3   5
HETATM    5  O   UNK N   1      24.598  16.429   4.231  0.00  0.00    -0.279 OA
BRANCH   5   6
HETATM    6  C   UNK N   1      23.744  17.446   3.967  0.00  0.00     0.079 A 
HETATM    7  C   UNK N   1      24.176  18.784   3.816  0.00  0.00     0.038 A 
HETATM    8  C   UNK N   1      23.260  19.784   3.460  0.00  0.00     0.010 A 
HETATM    9  C   UNK N   1      21.928  19.428   3.252  0.00  0.00    -0.052 A 
HETATM   10  C   UNK N   1      21.508  18.141   3.408  0.00  0.00    -0.049 A 
HETATM   11  C   UNK N   1      20.841  20.334   2.844  0.00  0.00     0.039 A 
HETATM   12  C   UNK N   1      22.393  17.131   3.769  0.00  0.00     0.045 A 
HETATM   13  C   UNK N   1      20.074  17.966   3.130  0.00  0.00     0.039 A 
HETATM   14  C   UNK N   1      19.626  19.389   2.738  0.00  0.00     0.009 A 
ENDBRANCH   5   6
ENDBRANCH   3   5
ENDBRANCH   2   3
BRANCH   2  15
HETATM   15  C   UNK N   1      26.541  15.016   5.958  0.00  0.00     0.182 C 
BRANCH  15  16
HETATM   16  O   UNK N   1      25.875  15.201   7.181  0.00  0.00    -0.388 OA
BRANCH  16  17
HETATM   17  C   UNK N   1      24.749  14.365   7.155  0.00  0.00     0.193 C 
BRANCH  17  18
HETATM   18  C   UNK N   1      24.905  13.203   8.122  0.00  0.00     0.193 C 
BRANCH  18  19
HETATM   19  O   UNK N   1      24.246  13.488   9.319  0.00  0.00    -0.394 OA
HETATM   20  C   UNK N   1      24.699  12.517  10.214  0.00  0.00     0.201 C 
ENDBRANCH  18  19
ENDBRANCH  17  18
ENDBRANCH  16  17
ENDBRANCH  15  16
ENDBRANCH   2  15
ENDBRANCH   1   2
BRANCH   1  21
HETATM   21  C   UNK N   1      27.997  18.321   6.265  0.00  0.00     0.042 C 
HETATM   22  C   UNK N   1      28.632  18.615   4.922  0.00  0.00     0.019 C 
HETATM   23  C   UNK N   1      27.951  19.877   4.419  0.00  0.00     0.001 C 
HETATM   24  C   UNK N   1      27.404  20.586   5.649  0.00  0.00     0.001 C 
HETATM   25  C   UNK N   1      27.756  19.710   6.839  0.00  0.00     0.019 C 
BRANCH  21  26
HETATM   26  C   UNK N   1      28.919  17.477   7.111  0.00  0.00     0.226 C 
HETATM   27  N   UNK N   1      30.172  17.191   6.659  0.00  0.00    -0.356 N 
HETATM   28  H   UNK N   1      30.423  17.607   5.804  0.00  0.00     0.162 HD
HETATM   29  O   UNK N   1      28.533  17.078   8.200  0.00  0.00    -0.273 OA
BRANCH  27  30
HETATM   30  C   UNK N   1      31.188  16.349   7.276  0.00  0.00     0.084 C 
HETATM   31  C   UNK N   1      32.445  16.069   6.431  0.00  0.00     0.026 C 
HETATM   32  C   UNK N   1      33.303  17.327   6.246  0.00  0.00     0.017 C 
HETATM   33  C   UNK N   1      33.630  18.020   7.578  0.00  0.00     0.084 C 
HETATM   34  C   UNK N   1      32.349  18.275   8.375  0.00  0.00     0.017 C 
HETATM   35  C   UNK N   1      31.593  16.967   8.609  0.00  0.00     0.026 C 
BRANCH  33  36
HETATM   36  C   UNK N   1      34.642  17.287   8.419  0.00  0.00     0.143 C 
HETATM   37  O   UNK N   1      35.102  17.790   9.432  0.00  0.00    -0.650 OA
BRANCH  36  38
HETATM   38  O   UNK N   1      35.043  16.057   8.047  0.00  0.00    -0.776 OA
HETATM   39  H   UNK N   1      35.870  15.717   8.330  0.00  0.00     0.167 HD
ENDBRANCH  36  38
ENDBRANCH  33  36
ENDBRANCH  27  30
ENDBRANCH  21  26
ENDBRANCH   1  21
TORSDOF 14
ENDMDL
MODEL 5
REMARK VINA RESULT:      -6.8     11.647     14.264
REMARK  14 active torsions:
REMARK  status: ('A' for Active; 'I' for Inactive)
REMARK    1  A    between atoms: C_3  and  C_1 
REMARK       I    between atoms: N_6  and  C_1 
REMARK    2  A    between atoms: C_2  and  C_4 
REMARK    3  A    between atoms: O_8  and  C_2 
REMARK    4  A    between atoms: C_5  and  C_3 
REMARK    5  A    between atoms: C_4  and  C_5 
REMARK    6  A    between atoms: C_4  and  C_20 
REMARK    7  A    between atoms: C_16  and  N_6 
REMARK    8  A    between atoms: C_10  and  C_7 
REMARK    9  A    between atoms: O_13  and  C_7 
REMARK   10  A    between atoms: C_9  and  O_8 
REMARK   11  A    between atoms: O_23  and  C_20 
REMARK   12  A    between atoms: C_26  and  O_23 
REMARK   13  A    between atoms: O_24  and  C_25 
REMARK   14  A    between atoms: C_25  and  C_26 
ROOT
HETATM    1  C   UNK N   1      27.309  25.752  -6.130  0.00  0.00     0.036 C 
ENDROOT
BRANCH   1   2
HETATM    2  C   UNK N   1      25.948  25.370  -6.716  0.00  0.00     0.111 C 
BRANCH   2   3
HETATM    3  C   UNK N   1      25.855  23.890  -6.824  0.00  0.00     0.270 C 
HETATM    4  O   UNK N   1      25.363  23.245  -5.909  0.00  0.00    -0.264 OA
BRANCH   3   5
HETATM    5  O   UNK N   1      26.278  23.295  -7.971  0.00  0.00    -0.279 OA
BRANCH   5   6
HETATM    6  C   UNK N   1      27.459  22.673  -8.193  0.00  0.00     0.079 A 
HETATM    7  C   UNK N   1      28.622  23.369  -8.598  0.00  0.00     0.038 A 
HETATM    8  C   UNK N   1      29.841  22.687  -8.733  0.00  0.00     0.010 A 
HETATM    9  C   UNK N   1      29.877  21.322  -8.450  0.00  0.00    -0.052 A 
HETATM   10  C   UNK N   1      28.756  20.648  -8.070  0.00  0.00    -0.049 A 
HETATM   11  C   UNK N   1      31.067  20.457  -8.505  0.00  0.00     0.039 A 
HETATM   12  C   UNK N   1      27.534  21.297  -7.937  0.00  0.00     0.045 A 
HETATM   13  C   UNK N   1      29.003  19.222  -7.804  0.00  0.00     0.039 A 
HETATM   14  C   UNK N   1      30.517  19.085  -8.063  0.00  0.00     0.009 A 
ENDBRANCH   5   6
ENDBRANCH   3   5
ENDBRANCH   2   3
BRANCH   2  15
HETATM   15  C   UNK N   1      25.672  25.972  -8.106  0.00  0.00     0.182 C 
BRANCH  15  16
HETATM   16  O   UNK N   1      26.822  26.430  -8.771  0.00  0.00    -0.388 OA
BRANCH  16  17
HETATM   17  C   UNK N   1      26.529  26.407 -10.142  0.00  0.00     0.193 C 
BRANCH  17  18
HETATM   18  C   UNK N   1      25.310  25.545 -10.430  0.00  0.00     0.193 C 
BRANCH  18  19
HETATM   19  O   UNK N   1      24.392  26.260 -11.200  0.00  0.00    -0.394 OA
HETATM   20  C   UNK N   1      24.430  25.650 -12.455  0.00  0.00     0.201 C 
ENDBRANCH  18  19
ENDBRANCH  17  18
ENDBRANCH  16  17
ENDBRANCH  15  16
ENDBRANCH   2  15
ENDBRANCH   1   2
BRANCH   1  21
HETATM   21  C   UNK N   1      27.241  25.990  -4.619  0.00  0.00     0.042 C 
HETATM   22  C   UNK N   1      28.241  27.060  -4.233  0.00  0.00     0.019 C 
HETATM   23  C   UNK N   1      27.552  28.382  -4.527  0.00  0.00     0.001 C 
HETATM   24  C   UNK N   1      26.057  28.099  -4.510  0.00  0.00     0.001 C 
HETATM   25  C   UNK N   1      25.908  26.613  -4.230  0.00  0.00     0.019 C 
BRANCH  21  26
HETATM   26  C   UNK N   1      27.535  24.703  -3.885  0.00  0.00     0.226 C 
HETATM   27  N   UNK N   1      28.604  23.946  -4.260  0.00  0.00    -0.356 N 
HETATM   28  H   UNK N   1      29.164  24.322  -4.977  0.00  0.00     0.162 HD
HETATM   29  O   UNK N   1      26.821  24.371  -2.952  0.00  0.00    -0.273 OA
BRANCH  27  30
HETATM   30  C   UNK N   1      29.026  22.653  -3.741  0.00  0.00     0.084 C 
HETATM   31  C   UNK N   1      29.742  21.720  -4.734  0.00  0.00     0.026 C 
HETATM   32  C   UNK N   1      31.130  22.250  -5.120  0.00  0.00     0.017 C 
HETATM   33  C   UNK N   1      31.995  22.585  -3.895  0.00  0.00     0.084 C 
HETATM   34  C   UNK N   1      31.238  23.512  -2.944  0.00  0.00     0.017 C 
HETATM   35  C   UNK N   1      29.912  22.880  -2.521  0.00  0.00     0.026 C 
BRANCH  33  36
HETATM   36  C   UNK N   1      32.512  21.375  -3.160  0.00  0.00     0.143 C 
HETATM   37  O   UNK N   1      32.891  21.456  -2.002  0.00  0.00    -0.650 OA
BRANCH  36  38
HETATM   38  O   UNK N   1      32.553  20.186  -3.791  0.00  0.00    -0.776 OA
HETATM   39  H   UNK N   1      32.874  19.423  -3.352  0.00  0.00     0.167 HD
ENDBRANCH  36  38
ENDBRANCH  33  36
ENDBRANCH  27  30
ENDBRANCH  21  26
ENDBRANCH   1  21
TORSDOF 14
ENDMDL
MODEL 6
REMARK VINA RESULT:      -6.8     11.575     13.942
REMARK  14 active torsions:
REMARK  status: ('A' for Active; 'I' for Inactive)
REMARK    1  A    between atoms: C_3  and  C_1 
REMARK       I    between atoms: N_6  and  C_1 
REMARK    2  A    between atoms: C_2  and  C_4 
REMARK    3  A    between atoms: O_8  and  C_2 
REMARK    4  A    between atoms: C_5  and  C_3 
REMARK    5  A    between atoms: C_4  and  C_5 
REMARK    6  A    between atoms: C_4  and  C_20 
REMARK    7  A    between atoms: C_16  and  N_6 
REMARK    8  A    between atoms: C_10  and  C_7 
REMARK    9  A    between atoms: O_13  and  C_7 
REMARK   10  A    between atoms: C_9  and  O_8 
REMARK   11  A    between atoms: O_23  and  C_20 
REMARK   12  A    between atoms: C_26  and  O_23 
REMARK   13  A    between atoms: O_24  and  C_25 
REMARK   14  A    between atoms: C_25  and  C_26 
ROOT
HETATM    1  C   UNK N   1      28.278  26.806  -4.563  0.00  0.00     0.036 C 
ENDROOT
BRANCH   1   2
HETATM    2  C   UNK N   1      28.467  26.886  -6.079  0.00  0.00     0.111 C 
BRANCH   2   3
HETATM    3  C   UNK N   1      29.616  26.033  -6.480  0.00  0.00     0.270 C 
HETATM    4  O   UNK N   1      30.566  25.899  -5.721  0.00  0.00    -0.264 OA
BRANCH   3   5
HETATM    5  O   UNK N   1      29.555  25.379  -7.670  0.00  0.00    -0.279 OA
BRANCH   5   6
HETATM    6  C   UNK N   1      28.867  24.249  -7.959  0.00  0.00     0.079 A 
HETATM    7  C   UNK N   1      29.416  23.200  -8.732  0.00  0.00     0.038 A 
HETATM    8  C   UNK N   1      28.690  22.016  -8.930  0.00  0.00     0.010 A 
HETATM    9  C   UNK N   1      27.430  21.899  -8.343  0.00  0.00    -0.052 A 
HETATM   10  C   UNK N   1      26.896  22.913  -7.607  0.00  0.00    -0.049 A 
HETATM   11  C   UNK N   1      26.546  20.724  -8.416  0.00  0.00     0.039 A 
HETATM   12  C   UNK N   1      27.590  24.100  -7.402  0.00  0.00     0.045 A 
HETATM   13  C   UNK N   1      25.568  22.591  -7.062  0.00  0.00     0.039 A 
HETATM   14  C   UNK N   1      25.333  21.152  -7.564  0.00  0.00     0.009 A 
ENDBRANCH   5   6
ENDBRANCH   3   5
ENDBRANCH   2   3
BRANCH   2  15
HETATM   15  C   UNK N   1      28.718  28.312  -6.606  0.00  0.00     0.182 C 
BRANCH  15  16
HETATM   16  O   UNK N   1      29.128  29.223  -5.618  0.00  0.00    -0.388 OA
BRANCH  16  17
HETATM   17  C   UNK N   1      28.188  30.264  -5.619  0.00  0.00     0.193 C 
BRANCH  17  18
HETATM   18  C   UNK N   1      27.941  30.783  -4.211  0.00  0.00     0.193 C 
BRANCH  18  19
HETATM   19  O   UNK N   1      28.633  29.999  -3.286  0.00  0.00    -0.394 OA
HETATM   20  C   UNK N   1      28.031  30.282  -2.059  0.00  0.00     0.201 C 
ENDBRANCH  18  19
ENDBRANCH  17  18
ENDBRANCH  16  17
ENDBRANCH  15  16
ENDBRANCH   2  15
ENDBRANCH   1   2
BRANCH   1  21
HETATM   21  C   UNK N   1      26.971  26.107  -4.179  0.00  0.00     0.042 C 
HETATM   22  C   UNK N   1      26.299  26.875  -3.060  0.00  0.00     0.019 C 
HETATM   23  C   UNK N   1      25.555  28.012  -3.740  0.00  0.00     0.001 C 
HETATM   24  C   UNK N   1      25.323  27.571  -5.178  0.00  0.00     0.001 C 
HETATM   25  C   UNK N   1      25.958  26.198  -5.311  0.00  0.00     0.019 C 
BRANCH  21  26
HETATM   26  C   UNK N   1      27.258  24.688  -3.747  0.00  0.00     0.226 C 
HETATM   27  N   UNK N   1      28.458  24.122  -4.057  0.00  0.00    -0.356 N 
HETATM   28  H   UNK N   1      29.103  24.709  -4.514  0.00  0.00     0.162 HD
HETATM   29  O   UNK N   1      26.416  24.076  -3.108  0.00  0.00    -0.273 OA
BRANCH  27  30
HETATM   30  C   UNK N   1      28.913  22.762  -3.801  0.00  0.00     0.084 C 
HETATM   31  C   UNK N   1      29.663  22.066  -4.951  0.00  0.00     0.026 C 
HETATM   32  C   UNK N   1      31.038  22.699  -5.205  0.00  0.00     0.017 C 
HETATM   33  C   UNK N   1      31.884  22.805  -3.926  0.00  0.00     0.084 C 
HETATM   34  C   UNK N   1      31.094  23.503  -2.819  0.00  0.00     0.017 C 
HETATM   35  C   UNK N   1      29.782  22.765  -2.548  0.00  0.00     0.026 C 
BRANCH  33  36
HETATM   36  C   UNK N   1      32.429  21.486  -3.441  0.00  0.00     0.143 C 
HETATM   37  O   UNK N   1      32.750  20.610  -4.229  0.00  0.00    -0.650 OA
BRANCH  36  38
HETATM   38  O   UNK N   1      32.565  21.274  -2.118  0.00  0.00    -0.776 OA
HETATM   39  H   UNK N   1      33.233  20.704  -1.792  0.00  0.00     0.167 HD
ENDBRANCH  36  38
ENDBRANCH  33  36
ENDBRANCH  27  30
ENDBRANCH  21  26
ENDBRANCH   1  21
TORSDOF 14
ENDMDL
MODEL 7
REMARK VINA RESULT:      -6.7      2.419      4.017
REMARK  14 active torsions:
REMARK  status: ('A' for Active; 'I' for Inactive)
REMARK    1  A    between atoms: C_3  and  C_1 
REMARK       I    between atoms: N_6  and  C_1 
REMARK    2  A    between atoms: C_2  and  C_4 
REMARK    3  A    between atoms: O_8  and  C_2 
REMARK    4  A    between atoms: C_5  and  C_3 
REMARK    5  A    between atoms: C_4  and  C_5 
REMARK    6  A    between atoms: C_4  and  C_20 
REMARK    7  A    between atoms: C_16  and  N_6 
REMARK    8  A    between atoms: C_10  and  C_7 
REMARK    9  A    between atoms: O_13  and  C_7 
REMARK   10  A    between atoms: C_9  and  O_8 
REMARK   11  A    between atoms: O_23  and  C_20 
REMARK   12  A    between atoms: C_26  and  O_23 
REMARK   13  A    between atoms: O_24  and  C_25 
REMARK   14  A    between atoms: C_25  and  C_26 
ROOT
HETATM    1  C   UNK N   1      30.485  16.572   7.262  0.00  0.00     0.036 C 
ENDROOT
BRANCH   1   2
HETATM    2  C   UNK N   1      30.638  17.419   5.998  0.00  0.00     0.111 C 
BRANCH   2   3
HETATM    3  C   UNK N   1      29.422  17.274   5.155  0.00  0.00     0.270 C 
HETATM    4  O   UNK N   1      29.502  16.729   4.064  0.00  0.00    -0.264 OA
BRANCH   3   5
HETATM    5  O   UNK N   1      28.234  17.713   5.649  0.00  0.00    -0.279 OA
BRANCH   5   6
HETATM    6  C   UNK N   1      27.324  18.505   5.035  0.00  0.00     0.079 A 
HETATM    7  C   UNK N   1      27.687  19.663   4.309  0.00  0.00     0.038 A 
HETATM    8  C   UNK N   1      26.712  20.399   3.622  0.00  0.00     0.010 A 
HETATM    9  C   UNK N   1      25.389  19.959   3.664  0.00  0.00    -0.052 A 
HETATM   10  C   UNK N   1      25.035  18.849   4.371  0.00  0.00    -0.049 A 
HETATM   11  C   UNK N   1      24.245  20.584   2.980  0.00  0.00     0.039 A 
HETATM   12  C   UNK N   1      25.981  18.106   5.069  0.00  0.00     0.045 A 
HETATM   13  C   UNK N   1      23.599  18.542   4.279  0.00  0.00     0.039 A 
HETATM   14  C   UNK N   1      23.070  19.656   3.353  0.00  0.00     0.009 A 
ENDBRANCH   5   6
ENDBRANCH   3   5
ENDBRANCH   2   3
BRANCH   2  15
HETATM   15  C   UNK N   1      31.864  17.051   5.141  0.00  0.00     0.182 C 
BRANCH  15  16
HETATM   16  O   UNK N   1      32.684  16.062   5.710  0.00  0.00    -0.388 OA
BRANCH  16  17
HETATM   17  C   UNK N   1      32.735  15.005   4.791  0.00  0.00     0.193 C 
BRANCH  17  18
HETATM   18  C   UNK N   1      33.671  15.324   3.636  0.00  0.00     0.193 C 
BRANCH  18  19
HETATM   19  O   UNK N   1      33.176  14.771   2.454  0.00  0.00    -0.394 OA
HETATM   20  C   UNK N   1      32.134  13.935   2.862  0.00  0.00     0.201 C 
ENDBRANCH  18  19
ENDBRANCH  17  18
ENDBRANCH  16  17
ENDBRANCH  15  16
ENDBRANCH   2  15
ENDBRANCH   1   2
BRANCH   1  21
HETATM   21  C   UNK N   1      30.881  17.341   8.526  0.00  0.00     0.042 C 
HETATM   22  C   UNK N   1      30.235  18.711   8.503  0.00  0.00     0.019 C 
HETATM   23  C   UNK N   1      28.819  18.499   9.011  0.00  0.00     0.001 C 
HETATM   24  C   UNK N   1      28.846  17.217   9.830  0.00  0.00     0.001 C 
HETATM   25  C   UNK N   1      30.271  16.697   9.763  0.00  0.00     0.019 C 
BRANCH  21  26
HETATM   26  C   UNK N   1      32.384  17.467   8.597  0.00  0.00     0.226 C 
HETATM   27  N   UNK N   1      33.132  16.384   8.950  0.00  0.00    -0.356 N 
HETATM   28  H   UNK N   1      32.633  15.548   9.093  0.00  0.00     0.162 HD
HETATM   29  O   UNK N   1      32.909  18.535   8.318  0.00  0.00    -0.273 OA
BRANCH  27  30
HETATM   30  C   UNK N   1      34.573  16.303   9.144  0.00  0.00     0.084 C 
HETATM   31  C   UNK N   1      35.068  16.344  10.602  0.00  0.00     0.026 C 
HETATM   32  C   UNK N   1      34.683  15.075  11.375  0.00  0.00     0.017 C 
HETATM   33  C   UNK N   1      35.103  13.790  10.645  0.00  0.00     0.084 C 
HETATM   34  C   UNK N   1      34.587  13.800   9.206  0.00  0.00     0.017 C 
HETATM   35  C   UNK N   1      35.088  15.039   8.464  0.00  0.00     0.026 C 
BRANCH  33  36
HETATM   36  C   UNK N   1      36.585  13.523  10.677  0.00  0.00     0.143 C 
HETATM   37  O   UNK N   1      37.131  12.894   9.784  0.00  0.00    -0.650 OA
BRANCH  36  38
HETATM   38  O   UNK N   1      37.319  13.990  11.706  0.00  0.00    -0.776 OA
HETATM   39  H   UNK N   1      37.924  13.432  12.154  0.00  0.00     0.167 HD
ENDBRANCH  36  38
ENDBRANCH  33  36
ENDBRANCH  27  30
ENDBRANCH  21  26
ENDBRANCH   1  21
TORSDOF 14
ENDMDL
MODEL 8
REMARK VINA RESULT:      -6.7      3.347      5.637
REMARK  14 active torsions:
REMARK  status: ('A' for Active; 'I' for Inactive)
REMARK    1  A    between atoms: C_3  and  C_1 
REMARK       I    between atoms: N_6  and  C_1 
REMARK    2  A    between atoms: C_2  and  C_4 
REMARK    3  A    between atoms: O_8  and  C_2 
REMARK    4  A    between atoms: C_5  and  C_3 
REMARK    5  A    between atoms: C_4  and  C_5 
REMARK    6  A    between atoms: C_4  and  C_20 
REMARK    7  A    between atoms: C_16  and  N_6 
REMARK    8  A    between atoms: C_10  and  C_7 
REMARK    9  A    between atoms: O_13  and  C_7 
REMARK   10  A    between atoms: C_9  and  O_8 
REMARK   11  A    between atoms: O_23  and  C_20 
REMARK   12  A    between atoms: C_26  and  O_23 
REMARK   13  A    between atoms: O_24  and  C_25 
REMARK   14  A    between atoms: C_25  and  C_26 
ROOT
HETATM    1  C   UNK N   1      26.813  17.157   4.466  0.00  0.00     0.036 C 
ENDROOT
BRANCH   1   2
HETATM    2  C   UNK N   1      25.706  16.692   5.414  0.00  0.00     0.111 C 
BRANCH   2   3
HETATM    3  C   UNK N   1      25.556  15.216   5.313  0.00  0.00     0.270 C 
HETATM    4  O   UNK N   1      25.351  14.701   4.224  0.00  0.00    -0.264 OA
BRANCH   3   5
HETATM    5  O   UNK N   1      25.702  14.471   6.440  0.00  0.00    -0.279 OA
BRANCH   5   6
HETATM    6  C   UNK N   1      24.756  14.167   7.359  0.00  0.00     0.079 A 
HETATM    7  C   UNK N   1      23.387  14.469   7.173  0.00  0.00     0.038 A 
HETATM    8  C   UNK N   1      22.439  14.056   8.119  0.00  0.00     0.010 A 
HETATM    9  C   UNK N   1      22.874  13.337   9.233  0.00  0.00    -0.052 A 
HETATM   10  C   UNK N   1      24.194  13.053   9.419  0.00  0.00    -0.049 A 
HETATM   11  C   UNK N   1      22.022  12.797  10.305  0.00  0.00     0.039 A 
HETATM   12  C   UNK N   1      25.156  13.459   8.501  0.00  0.00     0.045 A 
HETATM   13  C   UNK N   1      24.448  12.277  10.642  0.00  0.00     0.039 A 
HETATM   14  C   UNK N   1      23.033  12.081  11.223  0.00  0.00     0.009 A 
ENDBRANCH   5   6
ENDBRANCH   3   5
ENDBRANCH   2   3
BRANCH   2  15
HETATM   15  C   UNK N   1      24.334  17.336   5.139  0.00  0.00     0.182 C 
BRANCH  15  16
HETATM   16  O   UNK N   1      24.231  17.949   3.879  0.00  0.00    -0.388 OA
BRANCH  16  17
HETATM   17  C   UNK N   1      23.082  18.752   3.916  0.00  0.00     0.193 C 
BRANCH  17  18
HETATM   18  C   UNK N   1      21.881  17.970   4.422  0.00  0.00     0.193 C 
BRANCH  18  19
HETATM   19  O   UNK N   1      21.226  18.694   5.420  0.00  0.00    -0.394 OA
HETATM   20  C   UNK N   1      21.102  17.799   6.484  0.00  0.00     0.201 C 
ENDBRANCH  18  19
ENDBRANCH  17  18
ENDBRANCH  16  17
ENDBRANCH  15  16
ENDBRANCH   2  15
ENDBRANCH   1   2
BRANCH   1  21
HETATM   21  C   UNK N   1      27.985  17.798   5.215  0.00  0.00     0.042 C 
HETATM   22  C   UNK N   1      28.634  18.844   4.333  0.00  0.00     0.019 C 
HETATM   23  C   UNK N   1      27.781  20.091   4.490  0.00  0.00     0.001 C 
HETATM   24  C   UNK N   1      27.057  19.950   5.821  0.00  0.00     0.001 C 
HETATM   25  C   UNK N   1      27.486  18.613   6.400  0.00  0.00     0.019 C 
BRANCH  21  26
HETATM   26  C   UNK N   1      28.987  16.736   5.601  0.00  0.00     0.226 C 
HETATM   27  N   UNK N   1      29.864  16.978   6.615  0.00  0.00    -0.356 N 
HETATM   28  H   UNK N   1      29.754  17.839   7.080  0.00  0.00     0.162 HD
HETATM   29  O   UNK N   1      28.982  15.667   5.011  0.00  0.00    -0.273 OA
BRANCH  27  30
HETATM   30  C   UNK N   1      30.945  16.131   7.101  0.00  0.00     0.084 C 
HETATM   31  C   UNK N   1      32.242  16.139   6.271  0.00  0.00     0.026 C 
HETATM   32  C   UNK N   1      32.976  17.483   6.365  0.00  0.00     0.017 C 
HETATM   33  C   UNK N   1      33.201  17.932   7.818  0.00  0.00     0.084 C 
HETATM   34  C   UNK N   1      31.884  17.907   8.594  0.00  0.00     0.017 C 
HETATM   35  C   UNK N   1      31.257  16.514   8.543  0.00  0.00     0.026 C 
BRANCH  33  36
HETATM   36  C   UNK N   1      34.263  17.147   8.544  0.00  0.00     0.143 C 
HETATM   37  O   UNK N   1      34.987  16.366   7.947  0.00  0.00    -0.650 OA
BRANCH  36  38
HETATM   38  O   UNK N   1      34.415  17.313   9.872  0.00  0.00    -0.776 OA
HETATM   39  H   UNK N   1      33.779  16.975  10.472  0.00  0.00     0.167 HD
ENDBRANCH  36  38
ENDBRANCH  33  36
ENDBRANCH  27  30
ENDBRANCH  21  26
ENDBRANCH   1  21
TORSDOF 14
ENDMDL
MODEL 9
REMARK VINA RESULT:      -6.6      5.013      9.181
REMARK  14 active torsions:
REMARK  status: ('A' for Active; 'I' for Inactive)
REMARK    1  A    between atoms: C_3  and  C_1 
REMARK       I    between atoms: N_6  and  C_1 
REMARK    2  A    between atoms: C_2  and  C_4 
REMARK    3  A    between atoms: O_8  and  C_2 
REMARK    4  A    between atoms: C_5  and  C_3 
REMARK    5  A    between atoms: C_4  and  C_5 
REMARK    6  A    between atoms: C_4  and  C_20 
REMARK    7  A    between atoms: C_16  and  N_6 
REMARK    8  A    between atoms: C_10  and  C_7 
REMARK    9  A    between atoms: O_13  and  C_7 
REMARK   10  A    between atoms: C_9  and  O_8 
REMARK   11  A    between atoms: O_23  and  C_20 
REMARK   12  A    between atoms: C_26  and  O_23 
REMARK   13  A    between atoms: O_24  and  C_25 
REMARK   14  A    between atoms: C_25  and  C_26 
ROOT
HETATM    1  C   UNK N   1      35.531  15.302   8.407  0.00  0.00     0.036 C 
ENDROOT
BRANCH   1   2
HETATM    2  C   UNK N   1      34.646  16.223   9.248  0.00  0.00     0.111 C 
BRANCH   2   3
HETATM    3  C   UNK N   1      34.605  17.574   8.627  0.00  0.00     0.270 C 
HETATM    4  O   UNK N   1      35.318  18.465   9.066  0.00  0.00    -0.264 OA
BRANCH   3   5
HETATM    5  O   UNK N   1      33.805  17.766   7.545  0.00  0.00    -0.279 OA
BRANCH   5   6
HETATM    6  C   UNK N   1      32.454  17.706   7.494  0.00  0.00     0.079 A 
HETATM    7  C   UNK N   1      31.757  17.150   6.396  0.00  0.00     0.038 A 
HETATM    8  C   UNK N   1      30.359  17.037   6.433  0.00  0.00     0.010 A 
HETATM    9  C   UNK N   1      29.683  17.474   7.572  0.00  0.00    -0.052 A 
HETATM   10  C   UNK N   1      30.352  18.019   8.626  0.00  0.00    -0.049 A 
HETATM   11  C   UNK N   1      28.230  17.403   7.798  0.00  0.00     0.039 A 
HETATM   12  C   UNK N   1      31.736  18.151   8.612  0.00  0.00     0.045 A 
HETATM   13  C   UNK N   1      29.465  18.403   9.735  0.00  0.00     0.039 A 
HETATM   14  C   UNK N   1      28.073  17.986   9.218  0.00  0.00     0.009 A 
ENDBRANCH   5   6
ENDBRANCH   3   5
ENDBRANCH   2   3
BRANCH   2  15
HETATM   15  C   UNK N   1      35.112  16.380  10.709  0.00  0.00     0.182 C 
BRANCH  15  16
HETATM   16  O   UNK N   1      36.046  15.413  11.117  0.00  0.00    -0.388 OA
BRANCH  16  17
HETATM   17  C   UNK N   1      35.392  14.593  12.049  0.00  0.00     0.193 C 
BRANCH  17  18
HETATM   18  C   UNK N   1      36.378  13.983  13.032  0.00  0.00     0.193 C 
BRANCH  18  19
HETATM   19  O   UNK N   1      35.777  13.841  14.284  0.00  0.00    -0.394 OA
HETATM   20  C   UNK N   1      36.767  13.281  15.093  0.00  0.00     0.201 C 
ENDBRANCH  18  19
ENDBRANCH  17  18
ENDBRANCH  16  17
ENDBRANCH  15  16
ENDBRANCH   2  15
ENDBRANCH   1   2
BRANCH   1  21
HETATM   21  C   UNK N   1      34.708  14.345   7.539  0.00  0.00     0.042 C 
HETATM   22  C   UNK N   1      35.318  12.960   7.602  0.00  0.00     0.019 C 
HETATM   23  C   UNK N   1      34.785  12.342   8.884  0.00  0.00     0.001 C 
HETATM   24  C   UNK N   1      33.499  13.085   9.215  0.00  0.00     0.001 C 
HETATM   25  C   UNK N   1      33.323  14.135   8.132  0.00  0.00     0.019 C 
BRANCH  21  26
HETATM   26  C   UNK N   1      34.679  14.845   6.114  0.00  0.00     0.226 C 
HETATM   27  N   UNK N   1      33.712  14.397   5.266  0.00  0.00    -0.356 N 
HETATM   28  H   UNK N   1      33.042  13.794   5.661  0.00  0.00     0.162 HD
HETATM   29  O   UNK N   1      35.512  15.661   5.749  0.00  0.00    -0.273 OA
BRANCH  27  30
HETATM   30  C   UNK N   1      33.539  14.693   3.850  0.00  0.00     0.084 C 
HETATM   31  C   UNK N   1      34.540  14.027   2.888  0.00  0.00     0.026 C 
HETATM   32  C   UNK N   1      34.336  12.508   2.808  0.00  0.00     0.017 C 
HETATM   33  C   UNK N   1      32.879  12.124   2.504  0.00  0.00     0.084 C 
HETATM   34  C   UNK N   1      31.929  12.810   3.486  0.00  0.00     0.017 C 
HETATM   35  C   UNK N   1      32.116  14.327   3.443  0.00  0.00     0.026 C 
BRANCH  33  36
HETATM   36  C   UNK N   1      32.458  12.393   1.082  0.00  0.00     0.143 C 
HETATM   37  O   UNK N   1      31.290  12.289   0.741  0.00  0.00    -0.650 OA
BRANCH  36  38
HETATM   38  O   UNK N   1      33.387  12.754   0.176  0.00  0.00    -0.776 OA
HETATM   39  H   UNK N   1      33.133  13.056  -0.675  0.00  0.00     0.167 HD
ENDBRANCH  36  38
ENDBRANCH  33  36
ENDBRANCH  27  30
ENDBRANCH  21  26
ENDBRANCH   1  21
TORSDOF 14
ENDMDL
