REMARK  2 active torsions:
REMARK  status: ('A' for Active; 'I' for Inactive)
REMARK    1  A    between atoms: O_1  and  C_4 
REMARK    2  A    between atoms: O_2  and  C_5 
ROOT
HETATM    1  N   UNK N   1      31.194 -11.206  -0.000  0.00  0.00    -0.365 N 
HETATM    2  C   UNK N   1      27.533 -11.548  -0.000  0.00  0.00     0.101 A 
HETATM    3  C   UNK N   1      27.492 -12.966   0.000  0.00  0.00     0.099 A 
HETATM    4  C   UNK N   1      29.928 -11.647  -0.000  0.00  0.00     0.045 A 
HETATM    5  C   UNK N   1      29.888 -13.008   0.000  0.00  0.00    -0.005 A 
HETATM    6  C   UNK N   1      31.973 -12.317   0.000  0.00  0.00     0.089 A 
HETATM    7  C   UNK N   1      28.770 -10.875  -0.000  0.00  0.00     0.069 A 
HETATM    8  C   UNK N   1      28.687 -13.710   0.000  0.00  0.00     0.053 A 
HETATM    9  C   UNK N   1      31.182 -13.467   0.000  0.00  0.00     0.030 A 
HETATM   10  H   UNK N   1      31.496 -10.269  -0.000  0.00  0.00     0.165 HD
ENDROOT
BRANCH   2  11
HETATM   11  O   UNK N   1      26.391 -10.840  -0.000  0.00  0.00    -0.358 OA
HETATM   12  H   UNK N   1      26.421  -9.903  -0.000  0.00  0.00     0.217 HD
ENDBRANCH   2  11
BRANCH   3  13
HETATM   13  O   UNK N   1      26.312 -13.609   0.000  0.00  0.00    -0.358 OA
HETATM   14  H   UNK N   1      25.513 -13.121   0.000  0.00  0.00     0.217 HD
ENDBRANCH   3  13
TORSDOF 2
