MODEL 1
REMARK VINA RESULT:      -8.4      0.000      0.000
REMARK  14 active torsions:
REMARK  status: ('A' for Active; 'I' for Inactive)
REMARK    1  A    between atoms: C_29  and  C_20 
REMARK    2  A    between atoms: C_31  and  C_20 
REMARK    3  A    between atoms: C_26  and  C_21 
REMARK    4  A    between atoms: N_44  and  C_21 
REMARK    5  A    between atoms: C_29  and  C_22 
REMARK    6  A    between atoms: N_45  and  C_22 
REMARK    7  A    between atoms: C_27  and  C_25 
REMARK    8  A    between atoms: C_31  and  C_25 
REMARK    9  A    between atoms: C_29  and  O_46 
REMARK   10  A    between atoms: C_31  and  C_37 
REMARK   11  A    between atoms: C_32  and  C_38 
REMARK   12  A    between atoms: C_36  and  N_40 
REMARK   13  A    between atoms: O_49  and  C_38 
REMARK   14  A    between atoms: N_42  and  C_39 
ROOT
HETATM    1  C   UNK N   1      20.592  12.367  11.325  0.00  0.00     0.001 A 
HETATM    2  C   UNK N   1      20.541  13.330  10.300  0.00  0.00     0.001 A 
HETATM    3  C   UNK N   1      21.813  11.766  11.670  0.00  0.00     0.008 A 
HETATM    4  C   UNK N   1      21.712  13.697   9.625  0.00  0.00     0.010 A 
HETATM    5  C   UNK N   1      24.317  11.569  11.138  0.00  0.00     0.073 C 
HETATM    6  C   UNK N   1      22.969  12.166  10.998  0.00  0.00    -0.047 A 
HETATM    7  C   UNK N   1      22.919  13.116  10.015  0.00  0.00    -0.027 A 
HETATM    8  C   UNK N   1      25.172  12.561  10.328  0.00  0.00     0.149 C 
HETATM    9  C   UNK N   1      24.213  13.265   9.332  0.00  0.00     0.146 C 
HETATM   10  O   UNK N   1      25.641  13.517  11.236  0.00  0.00    -0.393 OA
HETATM   11  H   UNK N   1      25.966  14.219  11.822  0.00  0.00     0.210 HD
ENDROOT
BRANCH   9  12
HETATM   12  N   UNK N   1      24.055  12.541   8.095  0.00  0.00    -0.363 N 
HETATM   13  C   UNK N   1      23.841  12.996   6.906  0.00  0.00     0.116 C 
HETATM   14  O   UNK N   1      23.669  12.083   5.926  0.00  0.00    -0.349 OA
HETATM   15  H   UNK N   1      23.469  11.382   5.336  0.00  0.00     0.219 HD
ATOM     16  HN  UNK N   1      24.120  11.526   8.170  1.00  0.00     0.162 HD
BRANCH  13  17
HETATM   17  C   UNK N   1      23.894  14.478   6.513  0.00  0.00     0.070 C 
BRANCH  17  18
HETATM   18  C   UNK N   1      25.119  14.640   5.590  0.00  0.00     0.047 C 
BRANCH  18  19
HETATM   19  C   UNK N   1      26.355  15.249   6.241  0.00  0.00     0.147 C 
BRANCH  19  20
HETATM   20  C   UNK N   1      26.363  16.760   6.037  0.00  0.00     0.305 C 
BRANCH  20  21
HETATM   21  N   UNK N   1      27.491  17.156   5.176  0.00  0.00     0.106 N 
HETATM   22  C   UNK N   1      27.184  17.121   3.748  0.00  0.00     0.303 C 
HETATM   23  C   UNK N   1      25.950  17.940   3.412  0.00  0.00     0.303 C 
HETATM   24  N   UNK N   1      25.809  19.152   4.220  0.00  0.00     0.097 N 
HETATM   25  C   UNK N   1      26.907  19.560   5.145  0.00  0.00     0.317 C 
HETATM   26  C   UNK N   1      27.957  18.498   5.506  0.00  0.00     0.324 C 
BRANCH  24  27
HETATM   27  C   UNK N   1      24.505  19.143   4.900  0.00  0.00     0.311 C 
BRANCH  27  28
HETATM   28  C   UNK N   1      23.474  19.073   3.840  0.00  0.00    -0.027 A 
HETATM   29  C   UNK N   1      22.523  18.026   3.872  0.00  0.00     0.012 A 
HETATM   30  C   UNK N   1      21.321  18.155   3.156  0.00  0.00     0.040 A 
HETATM   31  C   UNK N   1      21.109  19.352   2.467  0.00  0.00     0.105 A 
HETATM   32  C   UNK N   1      22.027  20.324   2.428  0.00  0.00     0.105 A 
HETATM   33  O   UNK N   1      20.030  19.740   1.800  0.00  0.00    -0.323 OA
HETATM   34  C   UNK N   1      23.229  20.239   3.094  0.00  0.00     0.048 A 
HETATM   35  O   UNK N   1      21.549  21.351   1.728  0.00  0.00    -0.323 OA
HETATM   36  C   UNK N   1      20.255  21.034   1.311  0.00  0.00     0.352 A 
ENDBRANCH  27  28
ENDBRANCH  24  27
BRANCH  26  37
HETATM   37  C   UNK N   1      28.360  18.537   6.965  0.00  0.00     0.148 C 
HETATM   38  N   UNK N   1      29.341  17.782   7.345  0.00  0.00    -0.364 N 
ATOM     39  HN  UNK N   1      29.827  17.254   6.621  1.00  0.00     0.162 HD
BRANCH  38  40
HETATM   40  C   UNK N   1      29.810  17.622   8.707  0.00  0.00     0.021 C 
HETATM   41  C   UNK N   1      28.713  17.084   9.612  0.00  0.00     0.037 C 
HETATM   42  C   UNK N   1      30.338  18.933   9.254  0.00  0.00     0.037 C 
HETATM   43  C   UNK N   1      30.938  16.610   8.693  0.00  0.00     0.037 C 
ENDBRANCH  38  40
BRANCH  37  44
HETATM   44  O   UNK N   1      27.655  19.266   7.858  0.00  0.00    -0.348 OA
HETATM   45  H   UNK N   1      27.570  20.193   7.964  0.00  0.00     0.219 HD
ENDBRANCH  37  44
ENDBRANCH  26  37
ENDBRANCH  20  21
ENDBRANCH  19  20
BRANCH  19  46
HETATM   46  O   UNK N   1      26.291  14.990   7.607  0.00  0.00    -0.394 OA
HETATM   47  H   UNK N   1      26.848  14.714   8.352  0.00  0.00     0.210 HD
ENDBRANCH  19  46
ENDBRANCH  18  19
ENDBRANCH  17  18
BRANCH  17  48
HETATM   48  C   UNK N   1      22.666  15.230   5.889  0.00  0.00     0.026 C 
HETATM   49  C   UNK N   1      21.948  16.116   6.912  0.00  0.00     0.016 C 
BRANCH  48  50
HETATM   50  C   UNK N   1      21.724  14.337   5.119  0.00  0.00    -0.054 A 
HETATM   51  C   UNK N   1      20.642  13.735   5.775  0.00  0.00     0.007 A 
HETATM   52  C   UNK N   1      19.776  12.893   5.072  0.00  0.00     0.001 A 
HETATM   53  C   UNK N   1      19.983  12.647   3.712  0.00  0.00     0.000 A 
HETATM   54  C   UNK N   1      21.060  13.240   3.052  0.00  0.00     0.001 A 
HETATM   55  C   UNK N   1      21.927  14.080   3.752  0.00  0.00     0.007 A 
ENDBRANCH  48  50
ENDBRANCH  17  48
ENDBRANCH  13  17
ENDBRANCH   9  12
TORSDOF 14
ENDMDL
MODEL 2
REMARK VINA RESULT:      -8.2      2.760      6.676
REMARK  14 active torsions:
REMARK  status: ('A' for Active; 'I' for Inactive)
REMARK    1  A    between atoms: C_29  and  C_20 
REMARK    2  A    between atoms: C_31  and  C_20 
REMARK    3  A    between atoms: C_26  and  C_21 
REMARK    4  A    between atoms: N_44  and  C_21 
REMARK    5  A    between atoms: C_29  and  C_22 
REMARK    6  A    between atoms: N_45  and  C_22 
REMARK    7  A    between atoms: C_27  and  C_25 
REMARK    8  A    between atoms: C_31  and  C_25 
REMARK    9  A    between atoms: C_29  and  O_46 
REMARK   10  A    between atoms: C_31  and  C_37 
REMARK   11  A    between atoms: C_32  and  C_38 
REMARK   12  A    between atoms: C_36  and  N_40 
REMARK   13  A    between atoms: O_49  and  C_38 
REMARK   14  A    between atoms: N_42  and  C_39 
ROOT
HETATM    1  C   UNK N   1      20.914  12.147  11.533  0.00  0.00     0.001 A 
HETATM    2  C   UNK N   1      20.601  13.107  10.553  0.00  0.00     0.001 A 
HETATM    3  C   UNK N   1      22.229  11.674  11.665  0.00  0.00     0.008 A 
HETATM    4  C   UNK N   1      21.604  13.599   9.709  0.00  0.00     0.010 A 
HETATM    5  C   UNK N   1      24.621  11.740  10.735  0.00  0.00     0.073 C 
HETATM    6  C   UNK N   1      23.214  12.196  10.826  0.00  0.00    -0.047 A 
HETATM    7  C   UNK N   1      22.911  13.143   9.887  0.00  0.00    -0.027 A 
HETATM    8  C   UNK N   1      25.229  12.822   9.823  0.00  0.00     0.149 C 
HETATM    9  C   UNK N   1      24.056  13.430   9.010  0.00  0.00     0.146 C 
HETATM   10  O   UNK N   1      25.740  13.815  10.667  0.00  0.00    -0.393 OA
HETATM   11  H   UNK N   1      26.083  14.541  11.210  0.00  0.00     0.210 HD
ENDROOT
BRANCH   9  12
HETATM   12  N   UNK N   1      23.774  12.703   7.797  0.00  0.00    -0.363 N 
HETATM   13  C   UNK N   1      23.249  13.126   6.697  0.00  0.00     0.116 C 
HETATM   14  O   UNK N   1      23.039  12.208   5.729  0.00  0.00    -0.349 OA
HETATM   15  H   UNK N   1      22.844  11.490   5.159  0.00  0.00     0.219 HD
ATOM     16  HN  UNK N   1      24.024  11.714   7.811  1.00  0.00     0.162 HD
BRANCH  13  17
HETATM   17  C   UNK N   1      22.971  14.599   6.369  0.00  0.00     0.070 C 
BRANCH  17  18
HETATM   18  C   UNK N   1      24.066  15.039   5.375  0.00  0.00     0.047 C 
BRANCH  18  19
HETATM   19  C   UNK N   1      24.985  16.151   5.862  0.00  0.00     0.147 C 
BRANCH  19  20
HETATM   20  C   UNK N   1      26.382  15.970   5.278  0.00  0.00     0.305 C 
BRANCH  20  21
HETATM   21  N   UNK N   1      26.492  16.665   3.984  0.00  0.00     0.106 N 
HETATM   22  C   UNK N   1      27.007  18.029   4.089  0.00  0.00     0.303 C 
HETATM   23  C   UNK N   1      28.332  18.080   4.831  0.00  0.00     0.303 C 
HETATM   24  N   UNK N   1      29.196  16.927   4.573  0.00  0.00     0.097 N 
HETATM   25  C   UNK N   1      28.810  15.926   3.536  0.00  0.00     0.317 C 
HETATM   26  C   UNK N   1      27.348  15.927   3.062  0.00  0.00     0.324 C 
BRANCH  24  27
HETATM   27  C   UNK N   1      29.545  16.279   5.846  0.00  0.00     0.311 C 
BRANCH  27  28
HETATM   28  C   UNK N   1      31.003  16.457   6.029  0.00  0.00    -0.027 A 
HETATM   29  C   UNK N   1      31.787  16.892   4.935  0.00  0.00     0.012 A 
HETATM   30  C   UNK N   1      33.054  17.454   5.166  0.00  0.00     0.040 A 
HETATM   31  C   UNK N   1      33.463  17.591   6.495  0.00  0.00     0.105 A 
HETATM   32  C   UNK N   1      32.721  17.155   7.518  0.00  0.00     0.105 A 
HETATM   33  O   UNK N   1      34.564  18.164   6.964  0.00  0.00    -0.323 OA
HETATM   34  C   UNK N   1      31.483  16.577   7.346  0.00  0.00     0.048 A 
HETATM   35  O   UNK N   1      33.340  17.439   8.662  0.00  0.00    -0.323 OA
HETATM   36  C   UNK N   1      34.530  18.105   8.364  0.00  0.00     0.352 A 
ENDBRANCH  27  28
ENDBRANCH  24  27
BRANCH  26  37
HETATM   37  C   UNK N   1      26.786  14.535   2.874  0.00  0.00     0.148 C 
HETATM   38  N   UNK N   1      27.522  13.529   3.225  0.00  0.00    -0.364 N 
ATOM     39  HN  UNK N   1      28.414  13.740   3.670  1.00  0.00     0.162 HD
BRANCH  38  40
HETATM   40  C   UNK N   1      27.191  12.130   3.042  0.00  0.00     0.021 C 
HETATM   41  C   UNK N   1      25.861  11.785   3.692  0.00  0.00     0.037 C 
HETATM   42  C   UNK N   1      28.285  11.239   3.595  0.00  0.00     0.037 C 
HETATM   43  C   UNK N   1      27.061  11.874   1.555  0.00  0.00     0.037 C 
ENDBRANCH  38  40
BRANCH  37  44
HETATM   44  O   UNK N   1      25.592  14.347   2.271  0.00  0.00    -0.348 OA
HETATM   45  H   UNK N   1      25.370  13.928   1.462  0.00  0.00     0.219 HD
ENDBRANCH  37  44
ENDBRANCH  26  37
ENDBRANCH  20  21
ENDBRANCH  19  20
BRANCH  19  46
HETATM   46  O   UNK N   1      24.471  17.362   5.406  0.00  0.00    -0.394 OA
HETATM   47  H   UNK N   1      24.754  18.212   5.034  0.00  0.00     0.210 HD
ENDBRANCH  19  46
ENDBRANCH  18  19
ENDBRANCH  17  18
BRANCH  17  48
HETATM   48  C   UNK N   1      21.573  15.101   5.862  0.00  0.00     0.026 C 
HETATM   49  C   UNK N   1      21.633  15.627   4.425  0.00  0.00     0.016 C 
BRANCH  48  50
HETATM   50  C   UNK N   1      20.880  16.051   6.808  0.00  0.00    -0.054 A 
HETATM   51  C   UNK N   1      21.175  17.420   6.762  0.00  0.00     0.007 A 
HETATM   52  C   UNK N   1      20.550  18.304   7.646  0.00  0.00     0.001 A 
HETATM   53  C   UNK N   1      19.628  17.827   8.582  0.00  0.00     0.000 A 
HETATM   54  C   UNK N   1      19.331  16.464   8.638  0.00  0.00     0.001 A 
HETATM   55  C   UNK N   1      19.955  15.581   7.756  0.00  0.00     0.007 A 
ENDBRANCH  48  50
ENDBRANCH  17  48
ENDBRANCH  13  17
ENDBRANCH   9  12
TORSDOF 14
ENDMDL
MODEL 3
REMARK VINA RESULT:      -8.2      3.260      7.266
REMARK  14 active torsions:
REMARK  status: ('A' for Active; 'I' for Inactive)
REMARK    1  A    between atoms: C_29  and  C_20 
REMARK    2  A    between atoms: C_31  and  C_20 
REMARK    3  A    between atoms: C_26  and  C_21 
REMARK    4  A    between atoms: N_44  and  C_21 
REMARK    5  A    between atoms: C_29  and  C_22 
REMARK    6  A    between atoms: N_45  and  C_22 
REMARK    7  A    between atoms: C_27  and  C_25 
REMARK    8  A    between atoms: C_31  and  C_25 
REMARK    9  A    between atoms: C_29  and  O_46 
REMARK   10  A    between atoms: C_31  and  C_37 
REMARK   11  A    between atoms: C_32  and  C_38 
REMARK   12  A    between atoms: C_36  and  N_40 
REMARK   13  A    between atoms: O_49  and  C_38 
REMARK   14  A    between atoms: N_42  and  C_39 
ROOT
HETATM    1  C   UNK N   1      20.204  13.299  10.374  0.00  0.00     0.001 A 
HETATM    2  C   UNK N   1      20.727  14.262   9.491  0.00  0.00     0.001 A 
HETATM    3  C   UNK N   1      21.045  12.329  10.940  0.00  0.00     0.008 A 
HETATM    4  C   UNK N   1      22.091  14.258   9.179  0.00  0.00     0.010 A 
HETATM    5  C   UNK N   1      23.420  11.358  11.032  0.00  0.00     0.073 C 
HETATM    6  C   UNK N   1      22.405  12.360  10.631  0.00  0.00    -0.047 A 
HETATM    7  C   UNK N   1      22.914  13.308   9.787  0.00  0.00    -0.027 A 
HETATM    8  C   UNK N   1      24.721  12.052  10.586  0.00  0.00     0.149 C 
HETATM    9  C   UNK N   1      24.329  13.059   9.473  0.00  0.00     0.146 C 
HETATM   10  O   UNK N   1      25.186  12.777  11.689  0.00  0.00    -0.393 OA
HETATM   11  H   UNK N   1      25.531  13.317  12.416  0.00  0.00     0.210 HD
ENDROOT
BRANCH   9  12
HETATM   12  N   UNK N   1      24.308  12.465   8.158  0.00  0.00    -0.363 N 
HETATM   13  C   UNK N   1      24.393  13.038   7.004  0.00  0.00     0.116 C 
HETATM   14  O   UNK N   1      24.283  12.241   5.919  0.00  0.00    -0.349 OA
HETATM   15  H   UNK N   1      24.101  11.629   5.233  0.00  0.00     0.219 HD
ATOM     16  HN  UNK N   1      24.211  11.450   8.137  1.00  0.00     0.162 HD
BRANCH  13  17
HETATM   17  C   UNK N   1      24.734  14.518   6.784  0.00  0.00     0.070 C 
BRANCH  17  18
HETATM   18  C   UNK N   1      26.270  14.600   6.679  0.00  0.00     0.047 C 
BRANCH  18  19
HETATM   19  C   UNK N   1      26.835  14.539   5.266  0.00  0.00     0.147 C 
BRANCH  19  20
HETATM   20  C   UNK N   1      28.283  15.017   5.259  0.00  0.00     0.305 C 
BRANCH  20  21
HETATM   21  N   UNK N   1      28.526  15.906   4.110  0.00  0.00     0.106 N 
HETATM   22  C   UNK N   1      28.401  17.327   4.427  0.00  0.00     0.303 C 
HETATM   23  C   UNK N   1      29.280  17.727   5.600  0.00  0.00     0.303 C 
HETATM   24  N   UNK N   1      30.559  17.016   5.646  0.00  0.00     0.097 N 
HETATM   25  C   UNK N   1      30.956  16.127   4.516  0.00  0.00     0.317 C 
HETATM   26  C   UNK N   1      29.852  15.683   3.545  0.00  0.00     0.324 C 
BRANCH  24  27
HETATM   27  C   UNK N   1      30.700  16.338   6.943  0.00  0.00     0.311 C 
BRANCH  27  28
HETATM   28  C   UNK N   1      32.085  16.584   7.404  0.00  0.00    -0.027 A 
HETATM   29  C   UNK N   1      32.622  17.888   7.309  0.00  0.00     0.012 A 
HETATM   30  C   UNK N   1      33.736  18.241   8.089  0.00  0.00     0.040 A 
HETATM   31  C   UNK N   1      34.241  17.275   8.963  0.00  0.00     0.105 A 
HETATM   32  C   UNK N   1      33.736  16.038   9.026  0.00  0.00     0.105 A 
HETATM   33  O   UNK N   1      35.217  17.396   9.853  0.00  0.00    -0.323 OA
HETATM   34  C   UNK N   1      32.659  15.635   8.269  0.00  0.00     0.048 A 
HETATM   35  O   UNK N   1      34.388  15.344   9.957  0.00  0.00    -0.323 OA
HETATM   36  C   UNK N   1      35.347  16.178  10.535  0.00  0.00     0.352 A 
ENDBRANCH  27  28
ENDBRANCH  24  27
BRANCH  26  37
HETATM   37  C   UNK N   1      29.975  14.232   3.132  0.00  0.00     0.148 C 
HETATM   38  N   UNK N   1      29.004  13.708   2.455  0.00  0.00    -0.364 N 
ATOM     39  HN  UNK N   1      28.241  14.326   2.184  1.00  0.00     0.162 HD
BRANCH  38  40
HETATM   40  C   UNK N   1      28.906  12.320   2.048  0.00  0.00     0.021 C 
HETATM   41  C   UNK N   1      29.227  11.380   3.198  0.00  0.00     0.037 C 
HETATM   42  C   UNK N   1      29.821  12.036   0.873  0.00  0.00     0.037 C 
HETATM   43  C   UNK N   1      27.475  12.061   1.623  0.00  0.00     0.037 C 
ENDBRANCH  38  40
BRANCH  37  44
HETATM   44  O   UNK N   1      31.024  13.484   3.539  0.00  0.00    -0.348 OA
HETATM   45  H   UNK N   1      31.159  12.556   3.528  0.00  0.00     0.219 HD
ENDBRANCH  37  44
ENDBRANCH  26  37
ENDBRANCH  20  21
ENDBRANCH  19  20
BRANCH  19  46
HETATM   46  O   UNK N   1      26.808  13.211   4.851  0.00  0.00    -0.394 OA
HETATM   47  H   UNK N   1      27.317  12.387   4.915  0.00  0.00     0.210 HD
ENDBRANCH  19  46
ENDBRANCH  18  19
ENDBRANCH  17  18
BRANCH  17  48
HETATM   48  C   UNK N   1      24.085  15.371   5.637  0.00  0.00     0.026 C 
HETATM   49  C   UNK N   1      24.839  16.682   5.394  0.00  0.00     0.016 C 
BRANCH  48  50
HETATM   50  C   UNK N   1      22.596  15.566   5.782  0.00  0.00    -0.054 A 
HETATM   51  C   UNK N   1      22.100  16.741   6.363  0.00  0.00     0.007 A 
HETATM   52  C   UNK N   1      20.722  16.921   6.516  0.00  0.00     0.001 A 
HETATM   53  C   UNK N   1      19.832  15.930   6.092  0.00  0.00     0.000 A 
HETATM   54  C   UNK N   1      20.318  14.755   5.515  0.00  0.00     0.001 A 
HETATM   55  C   UNK N   1      21.693  14.573   5.363  0.00  0.00     0.007 A 
ENDBRANCH  48  50
ENDBRANCH  17  48
ENDBRANCH  13  17
ENDBRANCH   9  12
TORSDOF 14
ENDMDL
MODEL 4
REMARK VINA RESULT:      -8.1      2.721      6.531
REMARK  14 active torsions:
REMARK  status: ('A' for Active; 'I' for Inactive)
REMARK    1  A    between atoms: C_29  and  C_20 
REMARK    2  A    between atoms: C_31  and  C_20 
REMARK    3  A    between atoms: C_26  and  C_21 
REMARK    4  A    between atoms: N_44  and  C_21 
REMARK    5  A    between atoms: C_29  and  C_22 
REMARK    6  A    between atoms: N_45  and  C_22 
REMARK    7  A    between atoms: C_27  and  C_25 
REMARK    8  A    between atoms: C_31  and  C_25 
REMARK    9  A    between atoms: C_29  and  O_46 
REMARK   10  A    between atoms: C_31  and  C_37 
REMARK   11  A    between atoms: C_32  and  C_38 
REMARK   12  A    between atoms: C_36  and  N_40 
REMARK   13  A    between atoms: O_49  and  C_38 
REMARK   14  A    between atoms: N_42  and  C_39 
ROOT
HETATM    1  C   UNK N   1      20.738  12.678  10.874  0.00  0.00     0.001 A 
HETATM    2  C   UNK N   1      20.744  13.259   9.592  0.00  0.00     0.001 A 
HETATM    3  C   UNK N   1      21.938  12.248  11.461  0.00  0.00     0.008 A 
HETATM    4  C   UNK N   1      21.951  13.416   8.901  0.00  0.00     0.010 A 
HETATM    5  C   UNK N   1      24.470  11.946  11.159  0.00  0.00     0.073 C 
HETATM    6  C   UNK N   1      23.130  12.436  10.760  0.00  0.00    -0.047 A 
HETATM    7  C   UNK N   1      23.135  13.018   9.522  0.00  0.00    -0.027 A 
HETATM    8  C   UNK N   1      25.368  12.644  10.121  0.00  0.00     0.149 C 
HETATM    9  C   UNK N   1      24.467  12.969   8.900  0.00  0.00     0.146 C 
HETATM   10  O   UNK N   1      25.779  13.852  10.696  0.00  0.00    -0.393 OA
HETATM   11  H   UNK N   1      26.066  14.711  11.041  0.00  0.00     0.210 HD
ENDROOT
BRANCH   9  12
HETATM   12  N   UNK N   1      24.384  11.881   7.956  0.00  0.00    -0.363 N 
HETATM   13  C   UNK N   1      24.184  11.923   6.681  0.00  0.00     0.116 C 
HETATM   14  O   UNK N   1      24.090  10.737   6.040  0.00  0.00    -0.349 OA
HETATM   15  H   UNK N   1      23.945   9.876   5.702  0.00  0.00     0.219 HD
ATOM     16  HN  UNK N   1      24.500  10.948   8.350  1.00  0.00     0.162 HD
BRANCH  13  17
HETATM   17  C   UNK N   1      24.172  13.204   5.838  0.00  0.00     0.070 C 
BRANCH  17  18
HETATM   18  C   UNK N   1      25.618  13.741   5.842  0.00  0.00     0.047 C 
BRANCH  18  19
HETATM   19  C   UNK N   1      25.849  14.997   6.674  0.00  0.00     0.147 C 
BRANCH  19  20
HETATM   20  C   UNK N   1      26.902  15.878   6.012  0.00  0.00     0.305 C 
BRANCH  20  21
HETATM   21  N   UNK N   1      26.989  17.178   6.698  0.00  0.00     0.106 N 
HETATM   22  C   UNK N   1      28.091  17.269   7.654  0.00  0.00     0.303 C 
HETATM   23  C   UNK N   1      29.425  16.916   7.018  0.00  0.00     0.303 C 
HETATM   24  N   UNK N   1      29.548  17.354   5.626  0.00  0.00     0.097 N 
HETATM   25  C   UNK N   1      28.486  18.210   5.020  0.00  0.00     0.317 C 
HETATM   26  C   UNK N   1      27.130  18.269   5.740  0.00  0.00     0.324 C 
BRANCH  24  27
HETATM   27  C   UNK N   1      29.866  16.200   4.772  0.00  0.00     0.311 C 
BRANCH  27  28
HETATM   28  C   UNK N   1      31.342  16.104   4.718  0.00  0.00    -0.027 A 
HETATM   29  C   UNK N   1      32.098  17.262   4.423  0.00  0.00     0.012 A 
HETATM   30  C   UNK N   1      33.461  17.309   4.761  0.00  0.00     0.040 A 
HETATM   31  C   UNK N   1      33.998  16.200   5.418  0.00  0.00     0.105 A 
HETATM   32  C   UNK N   1      33.277  15.103   5.670  0.00  0.00     0.105 A 
HETATM   33  O   UNK N   1      35.221  16.044   5.910  0.00  0.00    -0.323 OA
HETATM   34  C   UNK N   1      31.944  14.997   5.342  0.00  0.00     0.048 A 
HETATM   35  O   UNK N   1      34.031  14.222   6.326  0.00  0.00    -0.323 OA
HETATM   36  C   UNK N   1      35.294  14.785   6.521  0.00  0.00     0.352 A 
ENDBRANCH  27  28
ENDBRANCH  24  27
BRANCH  26  37
HETATM   37  C   UNK N   1      25.953  18.246   4.788  0.00  0.00     0.148 C 
HETATM   38  N   UNK N   1      24.767  18.394   5.284  0.00  0.00    -0.364 N 
ATOM     39  HN  UNK N   1      24.702  18.584   6.283  1.00  0.00     0.162 HD
BRANCH  38  40
HETATM   40  C   UNK N   1      23.522  18.315   4.546  0.00  0.00     0.021 C 
HETATM   41  C   UNK N   1      23.322  19.536   3.662  0.00  0.00     0.037 C 
HETATM   42  C   UNK N   1      22.345  18.157   5.487  0.00  0.00     0.037 C 
HETATM   43  C   UNK N   1      23.593  17.098   3.646  0.00  0.00     0.037 C 
ENDBRANCH  38  40
BRANCH  37  44
HETATM   44  O   UNK N   1      26.131  17.984   3.474  0.00  0.00    -0.348 OA
HETATM   45  H   UNK N   1      25.560  18.101   2.741  0.00  0.00     0.219 HD
ENDBRANCH  37  44
ENDBRANCH  26  37
ENDBRANCH  20  21
ENDBRANCH  19  20
BRANCH  19  46
HETATM   46  O   UNK N   1      24.651  15.704   6.723  0.00  0.00    -0.394 OA
HETATM   47  H   UNK N   1      24.126  16.263   7.318  0.00  0.00     0.210 HD
ENDBRANCH  19  46
ENDBRANCH  18  19
ENDBRANCH  17  18
BRANCH  17  48
HETATM   48  C   UNK N   1      23.603  13.247   4.376  0.00  0.00     0.026 C 
HETATM   49  C   UNK N   1      24.618  13.807   3.375  0.00  0.00     0.016 C 
BRANCH  48  50
HETATM   50  C   UNK N   1      22.245  13.896   4.262  0.00  0.00    -0.054 A 
HETATM   51  C   UNK N   1      21.641  14.033   3.006  0.00  0.00     0.007 A 
HETATM   52  C   UNK N   1      20.391  14.649   2.891  0.00  0.00     0.001 A 
HETATM   53  C   UNK N   1      19.738  15.131   4.029  0.00  0.00     0.000 A 
HETATM   54  C   UNK N   1      20.335  15.002   5.284  0.00  0.00     0.001 A 
HETATM   55  C   UNK N   1      21.583  14.389   5.400  0.00  0.00     0.007 A 
ENDBRANCH  48  50
ENDBRANCH  17  48
ENDBRANCH  13  17
ENDBRANCH   9  12
TORSDOF 14
ENDMDL
MODEL 5
REMARK VINA RESULT:      -8.1      2.645      6.451
REMARK  14 active torsions:
REMARK  status: ('A' for Active; 'I' for Inactive)
REMARK    1  A    between atoms: C_29  and  C_20 
REMARK    2  A    between atoms: C_31  and  C_20 
REMARK    3  A    between atoms: C_26  and  C_21 
REMARK    4  A    between atoms: N_44  and  C_21 
REMARK    5  A    between atoms: C_29  and  C_22 
REMARK    6  A    between atoms: N_45  and  C_22 
REMARK    7  A    between atoms: C_27  and  C_25 
REMARK    8  A    between atoms: C_31  and  C_25 
REMARK    9  A    between atoms: C_29  and  O_46 
REMARK   10  A    between atoms: C_31  and  C_37 
REMARK   11  A    between atoms: C_32  and  C_38 
REMARK   12  A    between atoms: C_36  and  N_40 
REMARK   13  A    between atoms: O_49  and  C_38 
REMARK   14  A    between atoms: N_42  and  C_39 
ROOT
HETATM    1  C   UNK N   1      20.812  12.314  11.466  0.00  0.00     0.001 A 
HETATM    2  C   UNK N   1      20.545  13.195  10.402  0.00  0.00     0.001 A 
HETATM    3  C   UNK N   1      22.114  11.832  11.675  0.00  0.00     0.008 A 
HETATM    4  C   UNK N   1      21.580  13.600   9.552  0.00  0.00     0.010 A 
HETATM    5  C   UNK N   1      24.533  11.785  10.816  0.00  0.00     0.073 C 
HETATM    6  C   UNK N   1      23.132  12.268  10.827  0.00  0.00    -0.047 A 
HETATM    7  C   UNK N   1      22.874  13.140   9.805  0.00  0.00    -0.027 A 
HETATM    8  C   UNK N   1      25.186  12.779   9.838  0.00  0.00     0.149 C 
HETATM    9  C   UNK N   1      24.048  13.337   8.943  0.00  0.00     0.146 C 
HETATM   10  O   UNK N   1      25.690  13.830  10.612  0.00  0.00    -0.393 OA
HETATM   11  H   UNK N   1      26.030  14.593  11.104  0.00  0.00     0.210 HD
ENDROOT
BRANCH   9  12
HETATM   12  N   UNK N   1      23.788  12.516   7.785  0.00  0.00    -0.363 N 
HETATM   13  C   UNK N   1      23.244  12.843   6.661  0.00  0.00     0.116 C 
HETATM   14  O   UNK N   1      23.063  11.852   5.761  0.00  0.00    -0.349 OA
HETATM   15  H   UNK N   1      22.893  11.089   5.244  0.00  0.00     0.219 HD
ATOM     16  HN  UNK N   1      24.073  11.541   7.866  1.00  0.00     0.162 HD
BRANCH  13  17
HETATM   17  C   UNK N   1      22.911  14.278   6.233  0.00  0.00     0.070 C 
BRANCH  17  18
HETATM   18  C   UNK N   1      24.096  14.762   5.373  0.00  0.00     0.047 C 
BRANCH  18  19
HETATM   19  C   UNK N   1      24.864  15.956   5.926  0.00  0.00     0.147 C 
BRANCH  19  20
HETATM   20  C   UNK N   1      26.256  16.017   5.307  0.00  0.00     0.305 C 
BRANCH  20  21
HETATM   21  N   UNK N   1      26.269  16.944   4.163  0.00  0.00     0.106 N 
HETATM   22  C   UNK N   1      26.916  18.224   4.447  0.00  0.00     0.303 C 
HETATM   23  C   UNK N   1      28.321  18.040   4.995  0.00  0.00     0.303 C 
HETATM   24  N   UNK N   1      29.038  16.906   4.411  0.00  0.00     0.097 N 
HETATM   25  C   UNK N   1      28.437  16.156   3.269  0.00  0.00     0.317 C 
HETATM   26  C   UNK N   1      26.935  16.347   3.010  0.00  0.00     0.324 C 
BRANCH  24  27
HETATM   27  C   UNK N   1      29.480  15.999   5.481  0.00  0.00     0.311 C 
BRANCH  27  28
HETATM   28  C   UNK N   1      30.921  16.260   5.692  0.00  0.00    -0.027 A 
HETATM   29  C   UNK N   1      31.701  16.738   4.614  0.00  0.00     0.012 A 
HETATM   30  C   UNK N   1      32.928  17.373   4.868  0.00  0.00     0.040 A 
HETATM   31  C   UNK N   1      33.302  17.534   6.204  0.00  0.00     0.105 A 
HETATM   32  C   UNK N   1      32.566  17.057   7.214  0.00  0.00     0.105 A 
HETATM   33  O   UNK N   1      34.359  18.170   6.695  0.00  0.00    -0.323 OA
HETATM   34  C   UNK N   1      31.367  16.410   7.018  0.00  0.00     0.048 A 
HETATM   35  O   UNK N   1      33.144  17.378   8.369  0.00  0.00    -0.323 OA
HETATM   36  C   UNK N   1      34.300  18.112   8.094  0.00  0.00     0.352 A 
ENDBRANCH  27  28
ENDBRANCH  24  27
BRANCH  26  37
HETATM   37  C   UNK N   1      26.229  15.058   2.645  0.00  0.00     0.148 C 
HETATM   38  N   UNK N   1      26.884  13.949   2.772  0.00  0.00    -0.364 N 
ATOM     39  HN  UNK N   1      27.820  14.006   3.174  1.00  0.00     0.162 HD
BRANCH  38  40
HETATM   40  C   UNK N   1      26.408  12.634   2.393  0.00  0.00     0.021 C 
HETATM   41  C   UNK N   1      25.326  12.720   1.329  0.00  0.00     0.037 C 
HETATM   42  C   UNK N   1      25.888  11.879   3.601  0.00  0.00     0.037 C 
HETATM   43  C   UNK N   1      27.575  11.868   1.806  0.00  0.00     0.037 C 
ENDBRANCH  38  40
BRANCH  37  44
HETATM   44  O   UNK N   1      24.987  15.077   2.115  0.00  0.00    -0.348 OA
HETATM   45  H   UNK N   1      24.196  14.652   2.385  0.00  0.00     0.219 HD
ENDBRANCH  37  44
ENDBRANCH  26  37
ENDBRANCH  20  21
ENDBRANCH  19  20
BRANCH  19  46
HETATM   46  O   UNK N   1      24.173  17.111   5.570  0.00  0.00    -0.394 OA
HETATM   47  H   UNK N   1      23.764  17.899   5.961  0.00  0.00     0.210 HD
ENDBRANCH  19  46
ENDBRANCH  18  19
ENDBRANCH  17  18
BRANCH  17  48
HETATM   48  C   UNK N   1      21.563  14.656   5.525  0.00  0.00     0.026 C 
HETATM   49  C   UNK N   1      20.358  13.957   6.163  0.00  0.00     0.016 C 
BRANCH  48  50
HETATM   50  C   UNK N   1      21.596  14.518   4.023  0.00  0.00    -0.054 A 
HETATM   51  C   UNK N   1      21.539  15.661   3.216  0.00  0.00     0.007 A 
HETATM   52  C   UNK N   1      21.553  15.539   1.823  0.00  0.00     0.001 A 
HETATM   53  C   UNK N   1      21.622  14.276   1.228  0.00  0.00     0.000 A 
HETATM   54  C   UNK N   1      21.677  13.131   2.025  0.00  0.00     0.001 A 
HETATM   55  C   UNK N   1      21.662  13.251   3.415  0.00  0.00     0.007 A 
ENDBRANCH  48  50
ENDBRANCH  17  48
ENDBRANCH  13  17
ENDBRANCH   9  12
TORSDOF 14
ENDMDL
MODEL 6
REMARK VINA RESULT:      -8.0      4.265     10.225
REMARK  14 active torsions:
REMARK  status: ('A' for Active; 'I' for Inactive)
REMARK    1  A    between atoms: C_29  and  C_20 
REMARK    2  A    between atoms: C_31  and  C_20 
REMARK    3  A    between atoms: C_26  and  C_21 
REMARK    4  A    between atoms: N_44  and  C_21 
REMARK    5  A    between atoms: C_29  and  C_22 
REMARK    6  A    between atoms: N_45  and  C_22 
REMARK    7  A    between atoms: C_27  and  C_25 
REMARK    8  A    between atoms: C_31  and  C_25 
REMARK    9  A    between atoms: C_29  and  O_46 
REMARK   10  A    between atoms: C_31  and  C_37 
REMARK   11  A    between atoms: C_32  and  C_38 
REMARK   12  A    between atoms: C_36  and  N_40 
REMARK   13  A    between atoms: O_49  and  C_38 
REMARK   14  A    between atoms: N_42  and  C_39 
ROOT
HETATM    1  C   UNK N   1      37.586  13.189   5.331  0.00  0.00     0.001 A 
HETATM    2  C   UNK N   1      36.941  14.197   6.070  0.00  0.00     0.001 A 
HETATM    3  C   UNK N   1      37.010  12.703   4.146  0.00  0.00     0.008 A 
HETATM    4  C   UNK N   1      35.724  14.724   5.621  0.00  0.00     0.010 A 
HETATM    5  C   UNK N   1      34.996  12.802   2.559  0.00  0.00     0.073 C 
HETATM    6  C   UNK N   1      35.809  13.260   3.709  0.00  0.00    -0.047 A 
HETATM    7  C   UNK N   1      35.193  14.253   4.420  0.00  0.00    -0.027 A 
HETATM    8  C   UNK N   1      33.945  13.924   2.467  0.00  0.00     0.149 C 
HETATM    9  C   UNK N   1      33.868  14.577   3.872  0.00  0.00     0.146 C 
HETATM   10  O   UNK N   1      34.449  14.872   1.569  0.00  0.00    -0.393 OA
HETATM   11  H   UNK N   1      34.770  15.569   0.977  0.00  0.00     0.210 HD
ENDROOT
BRANCH   9  12
HETATM   12  N   UNK N   1      32.939  13.912   4.753  0.00  0.00    -0.363 N 
HETATM   13  C   UNK N   1      31.770  14.294   5.143  0.00  0.00     0.116 C 
HETATM   14  O   UNK N   1      31.133  13.497   6.029  0.00  0.00    -0.349 OA
HETATM   15  H   UNK N   1      30.813  12.936   6.708  0.00  0.00     0.219 HD
ATOM     16  HN  UNK N   1      33.251  13.013   5.119  1.00  0.00     0.162 HD
BRANCH  13  17
HETATM   17  C   UNK N   1      31.012  15.505   4.583  0.00  0.00     0.070 C 
BRANCH  17  18
HETATM   18  C   UNK N   1      29.578  15.418   5.145  0.00  0.00     0.047 C 
BRANCH  18  19
HETATM   19  C   UNK N   1      28.523  14.905   4.173  0.00  0.00     0.147 C 
BRANCH  19  20
HETATM   20  C   UNK N   1      27.205  14.674   4.904  0.00  0.00     0.305 C 
BRANCH  20  21
HETATM   21  N   UNK N   1      26.072  15.106   4.069  0.00  0.00     0.106 N 
HETATM   22  C   UNK N   1      25.259  14.002   3.560  0.00  0.00     0.303 C 
HETATM   23  C   UNK N   1      24.777  13.091   4.676  0.00  0.00     0.303 C 
HETATM   24  N   UNK N   1      24.461  13.798   5.919  0.00  0.00     0.097 N 
HETATM   25  C   UNK N   1      24.474  15.290   5.949  0.00  0.00     0.317 C 
HETATM   26  C   UNK N   1      25.195  16.013   4.801  0.00  0.00     0.324 C 
BRANCH  24  27
HETATM   27  C   UNK N   1      25.246  13.228   7.023  0.00  0.00     0.311 C 
BRANCH  27  28
HETATM   28  C   UNK N   1      24.363  13.219   8.212  0.00  0.00    -0.027 A 
HETATM   29  C   UNK N   1      22.977  13.004   8.040  0.00  0.00     0.012 A 
HETATM   30  C   UNK N   1      22.195  12.587   9.131  0.00  0.00     0.040 A 
HETATM   31  C   UNK N   1      22.852  12.365  10.343  0.00  0.00     0.105 A 
HETATM   32  C   UNK N   1      24.161  12.593  10.497  0.00  0.00     0.105 A 
HETATM   33  O   UNK N   1      22.353  11.891  11.478  0.00  0.00    -0.323 OA
HETATM   34  C   UNK N   1      24.967  13.023   9.467  0.00  0.00     0.048 A 
HETATM   35  O   UNK N   1      24.520  12.272  11.739  0.00  0.00    -0.323 OA
HETATM   36  C   UNK N   1      23.393  11.797  12.413  0.00  0.00     0.352 A 
ENDBRANCH  27  28
ENDBRANCH  24  27
BRANCH  26  37
HETATM   37  C   UNK N   1      26.000  17.208   5.268  0.00  0.00     0.148 C 
HETATM   38  N   UNK N   1      26.217  18.162   4.421  0.00  0.00    -0.364 N 
ATOM     39  HN  UNK N   1      25.776  18.081   3.506  1.00  0.00     0.162 HD
BRANCH  38  40
HETATM   40  C   UNK N   1      27.032  19.337   4.658  0.00  0.00     0.021 C 
HETATM   41  C   UNK N   1      28.504  18.977   4.781  0.00  0.00     0.037 C 
HETATM   42  C   UNK N   1      26.572  20.072   5.901  0.00  0.00     0.037 C 
HETATM   43  C   UNK N   1      26.878  20.257   3.464  0.00  0.00     0.037 C 
ENDBRANCH  38  40
BRANCH  37  44
HETATM   44  O   UNK N   1      26.552  17.231   6.501  0.00  0.00    -0.348 OA
HETATM   45  H   UNK N   1      27.310  17.675   6.827  0.00  0.00     0.219 HD
ENDBRANCH  37  44
ENDBRANCH  26  37
ENDBRANCH  20  21
ENDBRANCH  19  20
BRANCH  19  46
HETATM   46  O   UNK N   1      28.323  15.882   3.203  0.00  0.00    -0.394 OA
HETATM   47  H   UNK N   1      28.485  16.060   2.263  0.00  0.00     0.210 HD
ENDBRANCH  19  46
ENDBRANCH  18  19
ENDBRANCH  17  18
BRANCH  17  48
HETATM   48  C   UNK N   1      31.543  16.974   4.730  0.00  0.00     0.026 C 
HETATM   49  C   UNK N   1      32.385  17.408   3.527  0.00  0.00     0.016 C 
BRANCH  48  50
HETATM   50  C   UNK N   1      32.216  17.256   6.051  0.00  0.00    -0.054 A 
HETATM   51  C   UNK N   1      31.458  17.275   7.229  0.00  0.00     0.007 A 
HETATM   52  C   UNK N   1      32.071  17.553   8.454  0.00  0.00     0.001 A 
HETATM   53  C   UNK N   1      33.443  17.814   8.511  0.00  0.00     0.000 A 
HETATM   54  C   UNK N   1      34.205  17.801   7.341  0.00  0.00     0.001 A 
HETATM   55  C   UNK N   1      33.594  17.525   6.117  0.00  0.00     0.007 A 
ENDBRANCH  48  50
ENDBRANCH  17  48
ENDBRANCH  13  17
ENDBRANCH   9  12
TORSDOF 14
ENDMDL
MODEL 7
REMARK VINA RESULT:      -7.9      1.684      2.404
REMARK  14 active torsions:
REMARK  status: ('A' for Active; 'I' for Inactive)
REMARK    1  A    between atoms: C_29  and  C_20 
REMARK    2  A    between atoms: C_31  and  C_20 
REMARK    3  A    between atoms: C_26  and  C_21 
REMARK    4  A    between atoms: N_44  and  C_21 
REMARK    5  A    between atoms: C_29  and  C_22 
REMARK    6  A    between atoms: N_45  and  C_22 
REMARK    7  A    between atoms: C_27  and  C_25 
REMARK    8  A    between atoms: C_31  and  C_25 
REMARK    9  A    between atoms: C_29  and  O_46 
REMARK   10  A    between atoms: C_31  and  C_37 
REMARK   11  A    between atoms: C_32  and  C_38 
REMARK   12  A    between atoms: C_36  and  N_40 
REMARK   13  A    between atoms: O_49  and  C_38 
REMARK   14  A    between atoms: N_42  and  C_39 
ROOT
HETATM    1  C   UNK N   1      20.685  12.309  11.583  0.00  0.00     0.001 A 
HETATM    2  C   UNK N   1      20.328  13.183  10.540  0.00  0.00     0.001 A 
HETATM    3  C   UNK N   1      22.001  11.830  11.684  0.00  0.00     0.008 A 
HETATM    4  C   UNK N   1      21.287  13.583   9.602  0.00  0.00     0.010 A 
HETATM    5  C   UNK N   1      24.338  11.778  10.622  0.00  0.00     0.073 C 
HETATM    6  C   UNK N   1      22.943  12.260  10.750  0.00  0.00    -0.047 A 
HETATM    7  C   UNK N   1      22.597  13.125   9.748  0.00  0.00    -0.027 A 
HETATM    8  C   UNK N   1      24.905  12.765   9.585  0.00  0.00     0.149 C 
HETATM    9  C   UNK N   1      23.694  13.316   8.787  0.00  0.00     0.146 C 
HETATM   10  O   UNK N   1      25.472  13.821  10.308  0.00  0.00    -0.393 OA
HETATM   11  H   UNK N   1      25.852  14.588  10.764  0.00  0.00     0.210 HD
ENDROOT
BRANCH   9  12
HETATM   12  N   UNK N   1      23.337  12.488   7.661  0.00  0.00    -0.363 N 
HETATM   13  C   UNK N   1      23.278  12.797   6.409  0.00  0.00     0.116 C 
HETATM   14  O   UNK N   1      22.850  11.834   5.564  0.00  0.00    -0.349 OA
HETATM   15  H   UNK N   1      22.456  11.141   5.072  0.00  0.00     0.219 HD
ATOM     16  HN  UNK N   1      23.098  11.523   7.885  1.00  0.00     0.162 HD
BRANCH  13  17
HETATM   17  C   UNK N   1      23.772  14.120   5.809  0.00  0.00     0.070 C 
BRANCH  17  18
HETATM   18  C   UNK N   1      24.602  13.749   4.563  0.00  0.00     0.047 C 
BRANCH  18  19
HETATM   19  C   UNK N   1      26.085  13.502   4.812  0.00  0.00     0.147 C 
BRANCH  19  20
HETATM   20  C   UNK N   1      26.842  14.825   4.824  0.00  0.00     0.305 C 
BRANCH  20  21
HETATM   21  N   UNK N   1      27.598  14.996   3.572  0.00  0.00     0.106 N 
HETATM   22  C   UNK N   1      26.764  15.336   2.421  0.00  0.00     0.303 C 
HETATM   23  C   UNK N   1      25.898  16.555   2.687  0.00  0.00     0.303 C 
HETATM   24  N   UNK N   1      26.549  17.570   3.517  0.00  0.00     0.097 N 
HETATM   25  C   UNK N   1      27.988  17.420   3.883  0.00  0.00     0.317 C 
HETATM   26  C   UNK N   1      28.618  16.029   3.712  0.00  0.00     0.324 C 
BRANCH  24  27
HETATM   27  C   UNK N   1      25.717  17.849   4.697  0.00  0.00     0.311 C 
BRANCH  27  28
HETATM   28  C   UNK N   1      24.757  18.905   4.302  0.00  0.00    -0.027 A 
HETATM   29  C   UNK N   1      25.221  20.013   3.556  0.00  0.00     0.012 A 
HETATM   30  C   UNK N   1      24.307  20.795   2.830  0.00  0.00     0.040 A 
HETATM   31  C   UNK N   1      22.966  20.404   2.854  0.00  0.00     0.105 A 
HETATM   32  C   UNK N   1      22.539  19.367   3.581  0.00  0.00     0.105 A 
HETATM   33  O   UNK N   1      21.943  20.923   2.187  0.00  0.00    -0.323 OA
HETATM   34  C   UNK N   1      23.389  18.581   4.327  0.00  0.00     0.048 A 
HETATM   35  O   UNK N   1      21.230  19.208   3.394  0.00  0.00    -0.323 OA
HETATM   36  C   UNK N   1      20.795  20.178   2.490  0.00  0.00     0.352 A 
ENDBRANCH  27  28
ENDBRANCH  24  27
BRANCH  26  37
HETATM   37  C   UNK N   1      29.546  15.657   4.849  0.00  0.00     0.148 C 
HETATM   38  N   UNK N   1      30.431  16.525   5.221  0.00  0.00    -0.364 N 
ATOM     39  HN  UNK N   1      30.406  17.437   4.766  1.00  0.00     0.162 HD
BRANCH  38  40
HETATM   40  C   UNK N   1      31.454  16.317   6.226  0.00  0.00     0.021 C 
HETATM   41  C   UNK N   1      32.585  17.323   6.085  0.00  0.00     0.037 C 
HETATM   42  C   UNK N   1      32.003  14.906   6.154  0.00  0.00     0.037 C 
HETATM   43  C   UNK N   1      30.818  16.522   7.586  0.00  0.00     0.037 C 
ENDBRANCH  38  40
BRANCH  37  44
HETATM   44  O   UNK N   1      29.511  14.420   5.393  0.00  0.00    -0.348 OA
HETATM   45  H   UNK N   1      30.077  14.006   6.015  0.00  0.00     0.219 HD
ENDBRANCH  37  44
ENDBRANCH  26  37
ENDBRANCH  20  21
ENDBRANCH  19  20
BRANCH  19  46
HETATM   46  O   UNK N   1      26.215  12.909   6.065  0.00  0.00    -0.394 OA
HETATM   47  H   UNK N   1      25.976  13.044   6.995  0.00  0.00     0.210 HD
ENDBRANCH  19  46
ENDBRANCH  18  19
ENDBRANCH  17  18
BRANCH  17  48
HETATM   48  C   UNK N   1      22.802  15.302   5.458  0.00  0.00     0.026 C 
HETATM   49  C   UNK N   1      22.119  15.880   6.701  0.00  0.00     0.016 C 
BRANCH  48  50
HETATM   50  C   UNK N   1      21.831  14.992   4.345  0.00  0.00    -0.054 A 
HETATM   51  C   UNK N   1      22.138  15.361   3.029  0.00  0.00     0.007 A 
HETATM   52  C   UNK N   1      21.236  15.092   1.995  0.00  0.00     0.001 A 
HETATM   53  C   UNK N   1      20.023  14.454   2.269  0.00  0.00     0.000 A 
HETATM   54  C   UNK N   1      19.708  14.085   3.577  0.00  0.00     0.001 A 
HETATM   55  C   UNK N   1      20.606  14.355   4.611  0.00  0.00     0.007 A 
ENDBRANCH  48  50
ENDBRANCH  17  48
ENDBRANCH  13  17
ENDBRANCH   9  12
TORSDOF 14
ENDMDL
MODEL 8
REMARK VINA RESULT:      -7.8      8.994     13.484
REMARK  14 active torsions:
REMARK  status: ('A' for Active; 'I' for Inactive)
REMARK    1  A    between atoms: C_29  and  C_20 
REMARK    2  A    between atoms: C_31  and  C_20 
REMARK    3  A    between atoms: C_26  and  C_21 
REMARK    4  A    between atoms: N_44  and  C_21 
REMARK    5  A    between atoms: C_29  and  C_22 
REMARK    6  A    between atoms: N_45  and  C_22 
REMARK    7  A    between atoms: C_27  and  C_25 
REMARK    8  A    between atoms: C_31  and  C_25 
REMARK    9  A    between atoms: C_29  and  O_46 
REMARK   10  A    between atoms: C_31  and  C_37 
REMARK   11  A    between atoms: C_32  and  C_38 
REMARK   12  A    between atoms: C_36  and  N_40 
REMARK   13  A    between atoms: O_49  and  C_38 
REMARK   14  A    between atoms: N_42  and  C_39 
ROOT
HETATM    1  C   UNK N   1      36.511  15.651  17.709  0.00  0.00     0.001 A 
HETATM    2  C   UNK N   1      37.209  15.913  16.516  0.00  0.00     0.001 A 
HETATM    3  C   UNK N   1      35.772  14.465  17.849  0.00  0.00     0.008 A 
HETATM    4  C   UNK N   1      37.174  14.987  15.466  0.00  0.00     0.010 A 
HETATM    5  C   UNK N   1      34.965  12.310  16.712  0.00  0.00     0.073 C 
HETATM    6  C   UNK N   1      35.772  13.549  16.797  0.00  0.00    -0.047 A 
HETATM    7  C   UNK N   1      36.466  13.798  15.646  0.00  0.00    -0.027 A 
HETATM    8  C   UNK N   1      35.559  11.648  15.455  0.00  0.00     0.149 C 
HETATM    9  C   UNK N   1      36.198  12.785  14.614  0.00  0.00     0.146 C 
HETATM   10  O   UNK N   1      36.581  10.800  15.895  0.00  0.00    -0.393 OA
HETATM   11  H   UNK N   1      37.317  10.222  16.149  0.00  0.00     0.210 HD
ENDROOT
BRANCH   9  12
HETATM   12  N   UNK N   1      35.260  13.420  13.720  0.00  0.00    -0.363 N 
HETATM   13  C   UNK N   1      35.203  13.372  12.432  0.00  0.00     0.116 C 
HETATM   14  O   UNK N   1      34.249  14.119  11.836  0.00  0.00    -0.349 OA
HETATM   15  H   UNK N   1      33.624  14.738  11.510  0.00  0.00     0.219 HD
ATOM     16  HN  UNK N   1      34.542  13.987  14.169  1.00  0.00     0.162 HD
BRANCH  13  17
HETATM   17  C   UNK N   1      36.047  12.440  11.552  0.00  0.00     0.070 C 
BRANCH  17  18
HETATM   18  C   UNK N   1      37.404  13.145  11.349  0.00  0.00     0.047 C 
BRANCH  18  19
HETATM   19  C   UNK N   1      37.494  14.057  10.132  0.00  0.00     0.147 C 
BRANCH  19  20
HETATM   20  C   UNK N   1      36.458  13.646   9.092  0.00  0.00     0.305 C 
BRANCH  20  21
HETATM   21  N   UNK N   1      36.796  14.216   7.777  0.00  0.00     0.106 N 
HETATM   22  C   UNK N   1      37.756  13.418   7.016  0.00  0.00     0.303 C 
HETATM   23  C   UNK N   1      37.303  11.975   6.867  0.00  0.00     0.303 C 
HETATM   24  N   UNK N   1      35.855  11.826   6.714  0.00  0.00     0.097 N 
HETATM   25  C   UNK N   1      34.995  13.035   6.558  0.00  0.00     0.317 C 
HETATM   26  C   UNK N   1      35.602  14.389   6.956  0.00  0.00     0.324 C 
BRANCH  24  27
HETATM   27  C   UNK N   1      35.339  10.927   7.758  0.00  0.00     0.311 C 
BRANCH  27  28
HETATM   28  C   UNK N   1      34.479   9.933   7.077  0.00  0.00    -0.027 A 
HETATM   29  C   UNK N   1      34.983   8.634   6.838  0.00  0.00     0.012 A 
HETATM   30  C   UNK N   1      34.092   7.577   6.584  0.00  0.00     0.040 A 
HETATM   31  C   UNK N   1      32.726   7.866   6.618  0.00  0.00     0.105 A 
HETATM   32  C   UNK N   1      32.265   9.105   6.823  0.00  0.00     0.105 A 
HETATM   33  O   UNK N   1      31.702   7.031   6.498  0.00  0.00    -0.323 OA
HETATM   34  C   UNK N   1      33.095  10.178   7.056  0.00  0.00     0.048 A 
HETATM   35  O   UNK N   1      30.933   9.082   6.832  0.00  0.00    -0.323 OA
HETATM   36  C   UNK N   1      30.516   7.763   6.641  0.00  0.00     0.352 A 
ENDBRANCH  27  28
ENDBRANCH  24  27
BRANCH  26  37
HETATM   37  C   UNK N   1      34.625  15.283   7.689  0.00  0.00     0.148 C 
HETATM   38  N   UNK N   1      33.385  15.259   7.320  0.00  0.00    -0.364 N 
ATOM     39  HN  UNK N   1      33.128  14.588   6.597  1.00  0.00     0.162 HD
BRANCH  38  40
HETATM   40  C   UNK N   1      32.327  16.101   7.843  0.00  0.00     0.021 C 
HETATM   41  C   UNK N   1      31.076  16.020   6.984  0.00  0.00     0.037 C 
HETATM   42  C   UNK N   1      32.788  17.541   7.953  0.00  0.00     0.037 C 
HETATM   43  C   UNK N   1      31.973  15.597   9.227  0.00  0.00     0.037 C 
ENDBRANCH  38  40
BRANCH  37  44
HETATM   44  O   UNK N   1      35.054  16.147   8.636  0.00  0.00    -0.348 OA
HETATM   45  H   UNK N   1      34.974  16.126   9.570  0.00  0.00     0.219 HD
ENDBRANCH  37  44
ENDBRANCH  26  37
ENDBRANCH  20  21
ENDBRANCH  19  20
BRANCH  19  46
HETATM   46  O   UNK N   1      37.209  15.354  10.547  0.00  0.00    -0.394 OA
HETATM   47  H   UNK N   1      36.970  16.227  10.196  0.00  0.00     0.210 HD
ENDBRANCH  19  46
ENDBRANCH  18  19
ENDBRANCH  17  18
BRANCH  17  48
HETATM   48  C   UNK N   1      36.290  10.932  11.911  0.00  0.00     0.026 C 
HETATM   49  C   UNK N   1      37.722  10.486  11.601  0.00  0.00     0.016 C 
BRANCH  48  50
HETATM   50  C   UNK N   1      35.248   9.991  11.356  0.00  0.00    -0.054 A 
HETATM   51  C   UNK N   1      35.618   8.703  10.947  0.00  0.00     0.007 A 
HETATM   52  C   UNK N   1      34.662   7.833  10.416  0.00  0.00     0.001 A 
HETATM   53  C   UNK N   1      33.331   8.243  10.289  0.00  0.00     0.000 A 
HETATM   54  C   UNK N   1      32.955   9.526  10.690  0.00  0.00     0.001 A 
HETATM   55  C   UNK N   1      33.909  10.397  11.219  0.00  0.00     0.007 A 
ENDBRANCH  48  50
ENDBRANCH  17  48
ENDBRANCH  13  17
ENDBRANCH   9  12
TORSDOF 14
ENDMDL
MODEL 9
REMARK VINA RESULT:      -7.8      2.941      7.713
REMARK  14 active torsions:
REMARK  status: ('A' for Active; 'I' for Inactive)
REMARK    1  A    between atoms: C_29  and  C_20 
REMARK    2  A    between atoms: C_31  and  C_20 
REMARK    3  A    between atoms: C_26  and  C_21 
REMARK    4  A    between atoms: N_44  and  C_21 
REMARK    5  A    between atoms: C_29  and  C_22 
REMARK    6  A    between atoms: N_45  and  C_22 
REMARK    7  A    between atoms: C_27  and  C_25 
REMARK    8  A    between atoms: C_31  and  C_25 
REMARK    9  A    between atoms: C_29  and  O_46 
REMARK   10  A    between atoms: C_31  and  C_37 
REMARK   11  A    between atoms: C_32  and  C_38 
REMARK   12  A    between atoms: C_36  and  N_40 
REMARK   13  A    between atoms: O_49  and  C_38 
REMARK   14  A    between atoms: N_42  and  C_39 
ROOT
HETATM    1  C   UNK N   1      28.067  16.690   3.318  0.00  0.00     0.001 A 
HETATM    2  C   UNK N   1      26.844  16.422   2.674  0.00  0.00     0.001 A 
HETATM    3  C   UNK N   1      28.178  16.549   4.710  0.00  0.00     0.008 A 
HETATM    4  C   UNK N   1      25.736  16.006   3.422  0.00  0.00     0.010 A 
HETATM    5  C   UNK N   1      26.955  16.017   6.903  0.00  0.00     0.073 C 
HETATM    6  C   UNK N   1      27.066  16.112   5.429  0.00  0.00    -0.047 A 
HETATM    7  C   UNK N   1      25.884  15.834   4.799  0.00  0.00    -0.027 A 
HETATM    8  C   UNK N   1      25.610  15.283   7.058  0.00  0.00     0.149 C 
HETATM    9  C   UNK N   1      24.806  15.550   5.758  0.00  0.00     0.146 C 
HETATM   10  O   UNK N   1      25.904  13.917   7.120  0.00  0.00    -0.393 OA
HETATM   11  H   UNK N   1      26.057  12.959   7.138  0.00  0.00     0.210 HD
ENDROOT
BRANCH   9  12
HETATM   12  N   UNK N   1      24.038  16.770   5.810  0.00  0.00    -0.363 N 
HETATM   13  C   UNK N   1      22.880  17.025   5.301  0.00  0.00     0.116 C 
HETATM   14  O   UNK N   1      22.413  18.284   5.449  0.00  0.00    -0.349 OA
HETATM   15  H   UNK N   1      22.217  19.198   5.518  0.00  0.00     0.219 HD
ATOM     16  HN  UNK N   1      24.471  17.539   6.320  1.00  0.00     0.162 HD
BRANCH  13  17
HETATM   17  C   UNK N   1      21.954  15.981   4.661  0.00  0.00     0.070 C 
BRANCH  17  18
HETATM   18  C   UNK N   1      20.926  15.591   5.742  0.00  0.00     0.047 C 
BRANCH  18  19
HETATM   19  C   UNK N   1      20.571  14.110   5.806  0.00  0.00     0.147 C 
BRANCH  19  20
HETATM   20  C   UNK N   1      21.841  13.266   5.781  0.00  0.00     0.305 C 
BRANCH  20  21
HETATM   21  N   UNK N   1      21.516  11.844   5.984  0.00  0.00     0.106 N 
HETATM   22  C   UNK N   1      21.251  11.115   4.746  0.00  0.00     0.303 C 
HETATM   23  C   UNK N   1      22.387  11.261   3.747  0.00  0.00     0.303 C 
HETATM   24  N   UNK N   1      23.713  11.310   4.367  0.00  0.00     0.097 N 
HETATM   25  C   UNK N   1      23.859  11.062   5.831  0.00  0.00     0.317 C 
HETATM   26  C   UNK N   1      22.590  11.157   6.693  0.00  0.00     0.324 C 
BRANCH  24  27
HETATM   27  C   UNK N   1      24.403  12.542   3.955  0.00  0.00     0.311 C 
BRANCH  27  28
HETATM   28  C   UNK N   1      25.680  12.126   3.331  0.00  0.00    -0.027 A 
HETATM   29  C   UNK N   1      25.670  11.632   2.006  0.00  0.00     0.012 A 
HETATM   30  C   UNK N   1      26.860  11.622   1.258  0.00  0.00     0.040 A 
HETATM   31  C   UNK N   1      28.004  12.146   1.865  0.00  0.00     0.105 A 
HETATM   32  C   UNK N   1      28.003  12.589   3.126  0.00  0.00     0.105 A 
HETATM   33  O   UNK N   1      29.210  12.323   1.339  0.00  0.00    -0.323 OA
HETATM   34  C   UNK N   1      26.870  12.601   3.909  0.00  0.00     0.048 A 
HETATM   35  O   UNK N   1      29.213  13.053   3.430  0.00  0.00    -0.323 OA
HETATM   36  C   UNK N   1      30.030  12.920   2.305  0.00  0.00     0.352 A 
ENDBRANCH  27  28
ENDBRANCH  24  27
BRANCH  26  37
HETATM   37  C   UNK N   1      22.827  11.846   8.020  0.00  0.00     0.148 C 
HETATM   38  N   UNK N   1      21.814  12.010   8.808  0.00  0.00    -0.364 N 
ATOM     39  HN  UNK N   1      20.926  11.606   8.514  1.00  0.00     0.162 HD
BRANCH  38  40
HETATM   40  C   UNK N   1      21.829  12.719  10.073  0.00  0.00     0.021 C 
HETATM   41  C   UNK N   1      23.107  12.444  10.848  0.00  0.00     0.037 C 
HETATM   42  C   UNK N   1      20.622  12.349  10.913  0.00  0.00     0.037 C 
HETATM   43  C   UNK N   1      21.778  14.203   9.774  0.00  0.00     0.037 C 
ENDBRANCH  38  40
BRANCH  37  44
HETATM   44  O   UNK N   1      24.040  12.355   8.328  0.00  0.00    -0.348 OA
HETATM   45  H   UNK N   1      24.872  12.261   7.907  0.00  0.00     0.219 HD
ENDBRANCH  37  44
ENDBRANCH  26  37
ENDBRANCH  20  21
ENDBRANCH  19  20
BRANCH  19  46
HETATM   46  O   UNK N   1      19.913  13.879   7.011  0.00  0.00    -0.394 OA
HETATM   47  H   UNK N   1      19.828  14.239   7.908  0.00  0.00     0.210 HD
ENDBRANCH  19  46
ENDBRANCH  18  19
ENDBRANCH  17  18
BRANCH  17  48
HETATM   48  C   UNK N   1      21.214  16.232   3.301  0.00  0.00     0.026 C 
HETATM   49  C   UNK N   1      19.753  16.645   3.504  0.00  0.00     0.016 C 
BRANCH  48  50
HETATM   50  C   UNK N   1      21.375  15.116   2.297  0.00  0.00    -0.054 A 
HETATM   51  C   UNK N   1      22.644  14.817   1.785  0.00  0.00     0.007 A 
HETATM   52  C   UNK N   1      22.799  13.797   0.842  0.00  0.00     0.001 A 
HETATM   53  C   UNK N   1      21.688  13.069   0.405  0.00  0.00     0.000 A 
HETATM   54  C   UNK N   1      20.420  13.362   0.908  0.00  0.00     0.001 A 
HETATM   55  C   UNK N   1      20.263  14.382   1.848  0.00  0.00     0.007 A 
ENDBRANCH  48  50
ENDBRANCH  17  48
ENDBRANCH  13  17
ENDBRANCH   9  12
TORSDOF 14
ENDMDL
