REMARK  11 active torsions:
REMARK  status: ('A' for Active; 'I' for Inactive)
REMARK    1  A    between atoms: C_5  and  C_6 
REMARK    2  A    between atoms: C_6  and  N_7 
REMARK    3  A    between atoms: C_10  and  C_11 
REMARK    4  A    between atoms: C_11  and  C_12 
REMARK    5  A    between atoms: C_12  and  O_13 
REMARK    6  A    between atoms: P_14  and  O_13 
REMARK    7  A    between atoms: P_14  and  O_15 
REMARK    8  A    between atoms: P_14  and  O_17 
REMARK    9  A    between atoms: O_17  and  P_18 
REMARK   10  A    between atoms: P_18  and  O_19 
REMARK   11  A    between atoms: C_24  and  N_25 
ROOT
HETATM    1  N   UNK N   1      -3.120   3.958  -0.685  0.00  0.00    -0.349 N 
HETATM    2  C   UNK N   1      -3.432   4.788  -1.716  0.00  0.00     0.141 A 
HETATM    3  S   UNK N   1      -2.735   6.254  -1.409  0.00  0.00    -0.087 SA
HETATM    4  C   UNK N   1      -2.007   5.893   0.032  0.00  0.00     0.008 A 
HETATM    5  C   UNK N   1      -2.343   4.546   0.294  0.00  0.00     0.021 A 
HETATM    6  C   UNK N   1      -1.938   3.789   1.516  0.00  0.00     0.069 C 
ENDROOT
BRANCH   4   7
HETATM    7  C   UNK N   1      -1.179   6.904   0.783  0.00  0.00     0.075 C 
BRANCH   7   8
HETATM    8  C   UNK N   1      -0.213   6.444   1.886  0.00  0.00     0.185 C 
BRANCH   8   9
HETATM    9  O   UNK N   1       0.343   5.172   1.681  0.00  0.00    -0.296 OA
BRANCH   9  10
HETATM   10  P   UNK N   1       1.482   5.195   0.354  0.00  0.00     0.402 P 
HETATM   11  O   UNK N   1       1.479   6.597  -0.321  0.00  0.00    -0.631 OA
BRANCH  10  12
HETATM   12  O   UNK N   1       0.993   4.034  -0.842  0.00  0.00    -0.307 OA
HETATM   13  H   UNK N   1       0.294   3.947  -1.509  0.00  0.00     0.222 HD
ENDBRANCH  10  12
BRANCH  10  14
HETATM   14  O   UNK N   1       3.091   4.866   0.932  0.00  0.00    -0.188 OA
BRANCH  14  15
HETATM   15  P   UNK N   1       4.130   5.014  -0.454  0.00  0.00     0.414 P 
HETATM   16  O   UNK N   1       4.496   3.550   0.404  0.00  0.00    -0.624 OA
HETATM   17  O   UNK N   1       4.509   6.254   0.400  0.00  0.00    -0.624 OA
BRANCH  15  18
HETATM   18  O   UNK N   1       5.846   4.851  -0.260  0.00  0.00    -0.300 OA
HETATM   19  H   UNK N   1       6.247   3.975  -0.151  0.00  0.00     0.223 HD
ENDBRANCH  15  18
ENDBRANCH  14  15
ENDBRANCH  10  14
ENDBRANCH   9  10
ENDBRANCH   8   9
ENDBRANCH   7   8
ENDBRANCH   4   7
BRANCH   1  20
HETATM   20  C   UNK N   1      -3.571   2.572  -0.637  0.00  0.00     0.171 C 
BRANCH  20  21
HETATM   21  C   UNK N   1      -4.968   2.443  -0.095  0.00  0.00     0.004 A 
HETATM   22  C   UNK N   1      -5.683   3.568   0.338  0.00  0.00     0.014 A 
HETATM   23  C   UNK N   1      -6.972   3.425   0.845  0.00  0.00     0.025 A 
HETATM   24  C   UNK N   1      -7.539   2.153   0.917  0.00  0.00     0.007 A 
HETATM   25  C   UNK N   1      -8.912   1.985   1.457  0.00  0.00     0.068 C 
HETATM   26  N   UNK N   1      -6.836   1.066   0.495  0.00  0.00    -0.346 N 
HETATM   27  C   UNK N   1      -5.576   1.181  -0.004  0.00  0.00     0.107 A 
ATOM     28  HN  UNK N   1      -7.265   0.143   0.555  1.00  0.00     0.167 HD
BRANCH  27  29
HETATM   29  N   UNK N   1      -4.888   0.022  -0.425  0.00  0.00    -0.385 N 
HETATM   30  H   UNK N   1      -5.347  -0.798  -0.719  0.00  0.00     0.157 HD
HETATM   31  H   UNK N   1      -3.903   0.034  -0.425  0.00  0.00     0.157 HD
ENDBRANCH  27  29
ENDBRANCH  20  21
ENDBRANCH   1  20
TORSDOF 11
