MODEL 1
REMARK VINA RESULT:      -3.8      0.000      0.000
REMARK  6 active torsions:
REMARK  status: ('A' for Active; 'I' for Inactive)
REMARK    1  A    between atoms: P_1  and  O_2 
REMARK    2  A    between atoms: P_1  and  O_3 
REMARK    3  A    between atoms: P_1  and  O_4 
REMARK    4  A    between atoms: O_2  and  C_7 
REMARK    5  A    between atoms: N_6  and  C_8 
REMARK    6  A    between atoms: C_7  and  C_8 
ROOT
HETATM    1  P   UNK N   1      21.518  20.050   2.727  0.00  0.00     0.390 P 
HETATM    2  O   UNK N   1      21.402  20.580   1.270  0.00  0.00    -0.632 OA
ENDROOT
BRANCH   1   3
HETATM    3  O   UNK N   1      19.931  19.488   2.281  0.00  0.00    -0.295 OA
BRANCH   3   4
HETATM    4  C   UNK N   1      19.861  18.175   2.757  0.00  0.00     0.199 C 
BRANCH   4   5
HETATM    5  C   UNK N   1      20.238  17.210   1.653  0.00  0.00     0.138 C 
BRANCH   5   6
HETATM    6  N   UNK N   1      19.979  17.828   0.366  0.00  0.00    -0.428 N 
HETATM    7  H   UNK N   1      20.570  17.645  -0.445  0.00  0.00     0.149 HD
HETATM    8  H   UNK N   1      19.187  18.463   0.270  0.00  0.00     0.149 HD
ENDBRANCH   5   6
ENDBRANCH   4   5
ENDBRANCH   3   4
ENDBRANCH   1   3
BRANCH   1   9
HETATM    9  O   UNK N   1      21.855  21.745   2.893  0.00  0.00    -0.307 OA
HETATM   10  H   UNK N   1      21.489  22.307   3.595  0.00  0.00     0.222 HD
ENDBRANCH   1   9
BRANCH   1  11
HETATM   11  O   UNK N   1      20.318  20.827   3.714  0.00  0.00    -0.307 OA
HETATM   12  H   UNK N   1      19.404  20.531   3.848  0.00  0.00     0.222 HD
ENDBRANCH   1  11
TORSDOF 6
ENDMDL
MODEL 2
REMARK VINA RESULT:      -3.7     16.056     16.475
REMARK  6 active torsions:
REMARK  status: ('A' for Active; 'I' for Inactive)
REMARK    1  A    between atoms: P_1  and  O_2 
REMARK    2  A    between atoms: P_1  and  O_3 
REMARK    3  A    between atoms: P_1  and  O_4 
REMARK    4  A    between atoms: O_2  and  C_7 
REMARK    5  A    between atoms: N_6  and  C_8 
REMARK    6  A    between atoms: C_7  and  C_8 
ROOT
HETATM    1  P   UNK N   1      34.059  18.012   8.354  0.00  0.00     0.390 P 
HETATM    2  O   UNK N   1      35.039  19.217   8.283  0.00  0.00    -0.632 OA
ENDROOT
BRANCH   1   3
HETATM    3  O   UNK N   1      35.207  17.597   9.596  0.00  0.00    -0.295 OA
BRANCH   3   4
HETATM    4  C   UNK N   1      34.827  16.324  10.035  0.00  0.00     0.199 C 
BRANCH   4   5
HETATM    5  C   UNK N   1      35.538  15.997  11.331  0.00  0.00     0.138 C 
BRANCH   5   6
HETATM    6  N   UNK N   1      36.858  15.472  11.035  0.00  0.00    -0.428 N 
HETATM    7  H   UNK N   1      36.992  14.684  10.402  0.00  0.00     0.149 HD
HETATM    8  H   UNK N   1      37.673  15.902  11.471  0.00  0.00     0.149 HD
ENDBRANCH   5   6
ENDBRANCH   4   5
ENDBRANCH   3   4
ENDBRANCH   1   3
BRANCH   1   9
HETATM    9  O   UNK N   1      34.522  18.049   6.681  0.00  0.00    -0.307 OA
HETATM   10  H   UNK N   1      34.002  17.656   5.963  0.00  0.00     0.222 HD
ENDBRANCH   1   9
BRANCH   1  11
HETATM   11  O   UNK N   1      34.906  16.561   7.913  0.00  0.00    -0.307 OA
HETATM   12  H   UNK N   1      35.862  16.412   7.978  0.00  0.00     0.222 HD
ENDBRANCH   1  11
TORSDOF 6
ENDMDL
MODEL 3
REMARK VINA RESULT:      -3.7      1.813      2.251
REMARK  6 active torsions:
REMARK  status: ('A' for Active; 'I' for Inactive)
REMARK    1  A    between atoms: P_1  and  O_2 
REMARK    2  A    between atoms: P_1  and  O_3 
REMARK    3  A    between atoms: P_1  and  O_4 
REMARK    4  A    between atoms: O_2  and  C_7 
REMARK    5  A    between atoms: N_6  and  C_8 
REMARK    6  A    between atoms: C_7  and  C_8 
ROOT
HETATM    1  P   UNK N   1      20.694  20.479   1.623  0.00  0.00     0.390 P 
HETATM    2  O   UNK N   1      22.214  20.801   1.679  0.00  0.00    -0.632 OA
ENDROOT
BRANCH   1   3
HETATM    3  O   UNK N   1      21.326  19.034   2.362  0.00  0.00    -0.295 OA
BRANCH   3   4
HETATM    4  C   UNK N   1      20.642  18.914   3.576  0.00  0.00     0.199 C 
BRANCH   4   5
HETATM    5  C   UNK N   1      20.229  17.474   3.790  0.00  0.00     0.138 C 
BRANCH   5   6
HETATM    6  N   UNK N   1      19.401  17.042   2.678  0.00  0.00    -0.428 N 
HETATM    7  H   UNK N   1      18.591  16.438   2.817  0.00  0.00     0.149 HD
HETATM    8  H   UNK N   1      19.636  17.349   1.735  0.00  0.00     0.149 HD
ENDBRANCH   5   6
ENDBRANCH   4   5
ENDBRANCH   3   4
ENDBRANCH   1   3
BRANCH   1   9
HETATM    9  O   UNK N   1      21.074  20.885  -0.021  0.00  0.00    -0.307 OA
HETATM   10  H   UNK N   1      21.273  21.783  -0.329  0.00  0.00     0.222 HD
ENDBRANCH   1   9
BRANCH   1  11
HETATM   11  O   UNK N   1      20.437  19.119   0.573  0.00  0.00    -0.307 OA
HETATM   12  H   UNK N   1      21.102  18.694   0.010  0.00  0.00     0.222 HD
ENDBRANCH   1  11
TORSDOF 6
ENDMDL
MODEL 4
REMARK VINA RESULT:      -3.7     14.522     14.841
REMARK  6 active torsions:
REMARK  status: ('A' for Active; 'I' for Inactive)
REMARK    1  A    between atoms: P_1  and  O_2 
REMARK    2  A    between atoms: P_1  and  O_3 
REMARK    3  A    between atoms: P_1  and  O_4 
REMARK    4  A    between atoms: O_2  and  C_7 
REMARK    5  A    between atoms: N_6  and  C_8 
REMARK    6  A    between atoms: C_7  and  C_8 
ROOT
HETATM    1  P   UNK N   1      33.621  18.055   8.212  0.00  0.00     0.390 P 
HETATM    2  O   UNK N   1      34.404  17.512   9.440  0.00  0.00    -0.632 OA
ENDROOT
BRANCH   1   3
HETATM    3  O   UNK N   1      33.761  16.366   7.812  0.00  0.00    -0.295 OA
BRANCH   3   4
HETATM    4  C   UNK N   1      32.491  15.828   8.046  0.00  0.00     0.199 C 
BRANCH   4   5
HETATM    5  C   UNK N   1      32.607  14.614   8.942  0.00  0.00     0.138 C 
BRANCH   5   6
HETATM    6  N   UNK N   1      32.643  15.043  10.329  0.00  0.00    -0.428 N 
HETATM    7  H   UNK N   1      33.504  15.016  10.875  0.00  0.00     0.149 HD
HETATM    8  H   UNK N   1      31.787  15.379  10.767  0.00  0.00     0.149 HD
ENDBRANCH   5   6
ENDBRANCH   4   5
ENDBRANCH   3   4
ENDBRANCH   1   3
BRANCH   1   9
HETATM    9  O   UNK N   1      35.022  19.080   8.274  0.00  0.00    -0.307 OA
HETATM   10  H   UNK N   1      35.546  19.334   7.499  0.00  0.00     0.222 HD
ENDBRANCH   1   9
BRANCH   1  11
HETATM   11  O   UNK N   1      34.595  17.865   6.785  0.00  0.00    -0.307 OA
HETATM   12  H   UNK N   1      35.397  17.326   6.704  0.00  0.00     0.222 HD
ENDBRANCH   1  11
TORSDOF 6
ENDMDL
MODEL 5
REMARK VINA RESULT:      -3.6     13.884     14.310
REMARK  6 active torsions:
REMARK  status: ('A' for Active; 'I' for Inactive)
REMARK    1  A    between atoms: P_1  and  O_2 
REMARK    2  A    between atoms: P_1  and  O_3 
REMARK    3  A    between atoms: P_1  and  O_4 
REMARK    4  A    between atoms: O_2  and  C_7 
REMARK    5  A    between atoms: N_6  and  C_8 
REMARK    6  A    between atoms: C_7  and  C_8 
ROOT
HETATM    1  P   UNK N   1      34.541  17.652   8.306  0.00  0.00     0.390 P 
HETATM    2  O   UNK N   1      34.874  19.170   8.357  0.00  0.00    -0.632 OA
ENDROOT
BRANCH   1   3
HETATM    3  O   UNK N   1      32.955  18.359   8.171  0.00  0.00    -0.295 OA
BRANCH   3   4
HETATM    4  C   UNK N   1      32.141  17.338   7.668  0.00  0.00     0.199 C 
BRANCH   4   5
HETATM    5  C   UNK N   1      30.693  17.627   8.002  0.00  0.00     0.138 C 
BRANCH   5   6
HETATM    6  N   UNK N   1      30.600  18.086   9.376  0.00  0.00    -0.428 N 
HETATM    7  H   UNK N   1      31.390  18.018  10.018  0.00  0.00     0.149 HD
HETATM    8  H   UNK N   1      29.724  18.486   9.708  0.00  0.00     0.149 HD
ENDBRANCH   5   6
ENDBRANCH   4   5
ENDBRANCH   3   4
ENDBRANCH   1   3
BRANCH   1   9
HETATM    9  O   UNK N   1      35.469  17.806   9.765  0.00  0.00    -0.307 OA
HETATM   10  H   UNK N   1      36.084  18.534   9.945  0.00  0.00     0.222 HD
ENDBRANCH   1   9
BRANCH   1  11
HETATM   11  O   UNK N   1      33.587  17.231   9.695  0.00  0.00    -0.307 OA
HETATM   12  H   UNK N   1      33.205  16.360   9.887  0.00  0.00     0.222 HD
ENDBRANCH   1  11
TORSDOF 6
ENDMDL
MODEL 6
REMARK VINA RESULT:      -3.5     14.268     14.703
REMARK  6 active torsions:
REMARK  status: ('A' for Active; 'I' for Inactive)
REMARK    1  A    between atoms: P_1  and  O_2 
REMARK    2  A    between atoms: P_1  and  O_3 
REMARK    3  A    between atoms: P_1  and  O_4 
REMARK    4  A    between atoms: O_2  and  C_7 
REMARK    5  A    between atoms: N_6  and  C_8 
REMARK    6  A    between atoms: C_7  and  C_8 
ROOT
HETATM    1  P   UNK N   1      34.092  17.724   8.493  0.00  0.00     0.390 P 
HETATM    2  O   UNK N   1      34.866  16.414   8.170  0.00  0.00    -0.632 OA
ENDROOT
BRANCH   1   3
HETATM    3  O   UNK N   1      34.541  17.989   6.831  0.00  0.00    -0.295 OA
BRANCH   3   4
HETATM    4  C   UNK N   1      33.986  16.917   6.125  0.00  0.00     0.199 C 
BRANCH   4   5
HETATM    5  C   UNK N   1      32.633  17.312   5.574  0.00  0.00     0.138 C 
BRANCH   5   6
HETATM    6  N   UNK N   1      32.781  17.725   4.190  0.00  0.00    -0.428 N 
HETATM    7  H   UNK N   1      33.680  18.027   3.815  0.00  0.00     0.149 HD
HETATM    8  H   UNK N   1      31.966  17.711   3.578  0.00  0.00     0.149 HD
ENDBRANCH   5   6
ENDBRANCH   4   5
ENDBRANCH   3   4
ENDBRANCH   1   3
BRANCH   1   9
HETATM    9  O   UNK N   1      35.292  17.653   9.745  0.00  0.00    -0.307 OA
HETATM   10  H   UNK N   1      35.700  16.833  10.063  0.00  0.00     0.222 HD
ENDBRANCH   1   9
BRANCH   1  11
HETATM   11  O   UNK N   1      35.182  19.072   8.384  0.00  0.00    -0.307 OA
HETATM   12  H   UNK N   1      35.809  19.248   7.666  0.00  0.00     0.222 HD
ENDBRANCH   1  11
TORSDOF 6
ENDMDL
MODEL 7
REMARK VINA RESULT:      -3.5      9.852     10.235
REMARK  6 active torsions:
REMARK  status: ('A' for Active; 'I' for Inactive)
REMARK    1  A    between atoms: P_1  and  O_2 
REMARK    2  A    between atoms: P_1  and  O_3 
REMARK    3  A    between atoms: P_1  and  O_4 
REMARK    4  A    between atoms: O_2  and  C_7 
REMARK    5  A    between atoms: N_6  and  C_8 
REMARK    6  A    between atoms: C_7  and  C_8 
ROOT
HETATM    1  P   UNK N   1      20.758  14.136   9.494  0.00  0.00     0.390 P 
HETATM    2  O   UNK N   1      20.216  13.983   8.045  0.00  0.00    -0.632 OA
ENDROOT
BRANCH   1   3
HETATM    3  O   UNK N   1      21.225  12.500   9.122  0.00  0.00    -0.295 OA
BRANCH   3   4
HETATM    4  C   UNK N   1      22.104  12.128  10.145  0.00  0.00     0.199 C 
BRANCH   4   5
HETATM    5  C   UNK N   1      23.397  12.904  10.015  0.00  0.00     0.138 C 
BRANCH   5   6
HETATM    6  N   UNK N   1      24.282  12.549  11.109  0.00  0.00    -0.428 N 
HETATM    7  H   UNK N   1      25.180  12.094  10.946  0.00  0.00     0.149 HD
HETATM    8  H   UNK N   1      23.998  12.760  12.066  0.00  0.00     0.149 HD
ENDBRANCH   5   6
ENDBRANCH   4   5
ENDBRANCH   3   4
ENDBRANCH   1   3
BRANCH   1   9
HETATM    9  O   UNK N   1      19.087  14.579   9.648  0.00  0.00    -0.307 OA
HETATM   10  H   UNK N   1      18.552  14.946   8.927  0.00  0.00     0.222 HD
ENDBRANCH   1   9
BRANCH   1  11
HETATM   11  O   UNK N   1      19.917  13.031  10.538  0.00  0.00    -0.307 OA
HETATM   12  H   UNK N   1      19.155  12.482  10.299  0.00  0.00     0.222 HD
ENDBRANCH   1  11
TORSDOF 6
ENDMDL
MODEL 8
REMARK VINA RESULT:      -3.5     18.310     18.645
REMARK  6 active torsions:
REMARK  status: ('A' for Active; 'I' for Inactive)
REMARK    1  A    between atoms: P_1  and  O_2 
REMARK    2  A    between atoms: P_1  and  O_3 
REMARK    3  A    between atoms: P_1  and  O_4 
REMARK    4  A    between atoms: O_2  and  C_7 
REMARK    5  A    between atoms: N_6  and  C_8 
REMARK    6  A    between atoms: C_7  and  C_8 
ROOT
HETATM    1  P   UNK N   1      35.305  15.456  10.285  0.00  0.00     0.390 P 
HETATM    2  O   UNK N   1      34.262  15.158  11.398  0.00  0.00    -0.632 OA
ENDROOT
BRANCH   1   3
HETATM    3  O   UNK N   1      36.109  14.200  11.184  0.00  0.00    -0.295 OA
BRANCH   3   4
HETATM    4  C   UNK N   1      35.365  14.057  12.359  0.00  0.00     0.199 C 
BRANCH   4   5
HETATM    5  C   UNK N   1      36.290  13.740  13.515  0.00  0.00     0.138 C 
BRANCH   5   6
HETATM    6  N   UNK N   1      36.839  14.976  14.042  0.00  0.00    -0.428 N 
HETATM    7  H   UNK N   1      37.297  15.659  13.438  0.00  0.00     0.149 HD
HETATM    8  H   UNK N   1      36.765  15.167  15.041  0.00  0.00     0.149 HD
ENDBRANCH   5   6
ENDBRANCH   4   5
ENDBRANCH   3   4
ENDBRANCH   1   3
BRANCH   1   9
HETATM    9  O   UNK N   1      35.019  17.018  10.987  0.00  0.00    -0.307 OA
HETATM   10  H   UNK N   1      35.712  17.675  11.155  0.00  0.00     0.222 HD
ENDBRANCH   1   9
BRANCH   1  11
HETATM   11  O   UNK N   1      36.753  16.085  11.012  0.00  0.00    -0.307 OA
HETATM   12  H   UNK N   1      37.538  15.574  11.263  0.00  0.00     0.222 HD
ENDBRANCH   1  11
TORSDOF 6
ENDMDL
MODEL 9
REMARK VINA RESULT:      -3.4     23.818     24.391
REMARK  6 active torsions:
REMARK  status: ('A' for Active; 'I' for Inactive)
REMARK    1  A    between atoms: P_1  and  O_2 
REMARK    2  A    between atoms: P_1  and  O_3 
REMARK    3  A    between atoms: P_1  and  O_4 
REMARK    4  A    between atoms: O_2  and  C_7 
REMARK    5  A    between atoms: N_6  and  C_8 
REMARK    6  A    between atoms: C_7  and  C_8 
ROOT
HETATM    1  P   UNK N   1      44.920  24.436   1.687  0.00  0.00     0.390 P 
HETATM    2  O   UNK N   1      43.383  24.379   1.458  0.00  0.00    -0.632 OA
ENDROOT
BRANCH   1   3
HETATM    3  O   UNK N   1      44.340  24.130   3.301  0.00  0.00    -0.295 OA
BRANCH   3   4
HETATM    4  C   UNK N   1      43.654  22.914   3.219  0.00  0.00     0.199 C 
BRANCH   4   5
HETATM    5  C   UNK N   1      44.245  21.926   4.202  0.00  0.00     0.138 C 
BRANCH   5   6
HETATM    6  N   UNK N   1      45.686  22.095   4.244  0.00  0.00    -0.428 N 
HETATM    7  H   UNK N   1      46.171  22.337   5.108  0.00  0.00     0.149 HD
HETATM    8  H   UNK N   1      46.226  21.968   3.389  0.00  0.00     0.149 HD
ENDBRANCH   5   6
ENDBRANCH   4   5
ENDBRANCH   3   4
ENDBRANCH   1   3
BRANCH   1   9
HETATM    9  O   UNK N   1      44.583  25.938   0.885  0.00  0.00    -0.307 OA
HETATM   10  H   UNK N   1      44.939  26.797   1.163  0.00  0.00     0.222 HD
ENDBRANCH   1   9
BRANCH   1  11
HETATM   11  O   UNK N   1      45.293  25.787   2.715  0.00  0.00    -0.307 OA
HETATM   12  H   UNK N   1      46.170  26.174   2.859  0.00  0.00     0.222 HD
ENDBRANCH   1  11
TORSDOF 6
ENDMDL
