MODEL 1
REMARK VINA RESULT:      -5.4      0.000      0.000
REMARK  2 active torsions:
REMARK  status: ('A' for Active; 'I' for Inactive)
REMARK    1  A    between atoms: O_1  and  C_2 
REMARK    2  A    between atoms: C_2  and  C_3 
ROOT
HETATM    1  C   UNK N   1      23.353  12.582  10.399  0.00  0.00     0.049 A 
HETATM    2  C   UNK N   1      22.377  12.143  11.305  0.00  0.00     0.169 A 
HETATM    3  F   UNK N   1      22.718  11.306  12.319  0.00  0.00    -0.202 F 
HETATM    4  C   UNK N   1      21.050  12.556  11.177  0.00  0.00     0.197 A 
HETATM    5  F   UNK N   1      20.121  12.121  12.062  0.00  0.00    -0.199 F 
HETATM    6  C   UNK N   1      20.681  13.417  10.139  0.00  0.00     0.199 A 
HETATM    7  F   UNK N   1      19.391  13.816  10.018  0.00  0.00    -0.199 F 
HETATM    8  C   UNK N   1      21.641  13.865   9.227  0.00  0.00     0.197 A 
HETATM    9  F   UNK N   1      21.277  14.700   8.221  0.00  0.00    -0.199 F 
HETATM   10  C   UNK N   1      22.975  13.455   9.348  0.00  0.00     0.169 A 
HETATM   11  F   UNK N   1      23.882  13.908   8.446  0.00  0.00    -0.202 F 
ENDROOT
BRANCH   1  12
HETATM   12  C   UNK N   1      24.764  12.092  10.603  0.00  0.00     0.209 C 
BRANCH  12  13
HETATM   13  O   UNK N   1      25.573  12.993  11.291  0.00  0.00    -0.396 OA
HETATM   14  H   UNK N   1      26.503  12.774  11.465  0.00  0.00     0.209 HD
ENDBRANCH  12  13
ENDBRANCH   1  12
TORSDOF 2
ENDMDL
MODEL 2
REMARK VINA RESULT:      -5.4      1.558      3.223
REMARK  2 active torsions:
REMARK  status: ('A' for Active; 'I' for Inactive)
REMARK    1  A    between atoms: O_1  and  C_2 
REMARK    2  A    between atoms: C_2  and  C_3 
ROOT
HETATM    1  C   UNK N   1      22.895  12.193  11.433  0.00  0.00     0.049 A 
HETATM    2  C   UNK N   1      24.059  12.342  10.667  0.00  0.00     0.169 A 
HETATM    3  F   UNK N   1      25.262  11.967  11.177  0.00  0.00    -0.202 F 
HETATM    4  C   UNK N   1      24.000  12.875   9.378  0.00  0.00     0.197 A 
HETATM    5  F   UNK N   1      25.136  13.012   8.653  0.00  0.00    -0.199 F 
HETATM    6  C   UNK N   1      22.771  13.266   8.837  0.00  0.00     0.199 A 
HETATM    7  F   UNK N   1      22.718  13.783   7.585  0.00  0.00    -0.199 F 
HETATM    8  C   UNK N   1      21.601  13.124   9.587  0.00  0.00     0.197 A 
HETATM    9  F   UNK N   1      20.411  13.505   9.057  0.00  0.00    -0.199 F 
HETATM   10  C   UNK N   1      21.651  12.590  10.882  0.00  0.00     0.169 A 
HETATM   11  F   UNK N   1      20.496  12.466  11.583  0.00  0.00    -0.202 F 
ENDROOT
BRANCH   1  12
HETATM   12  C   UNK N   1      23.040  11.610  12.815  0.00  0.00     0.209 C 
BRANCH  12  13
HETATM   13  O   UNK N   1      23.719  12.442  13.703  0.00  0.00    -0.396 OA
HETATM   14  H   UNK N   1      23.936  13.352  13.446  0.00  0.00     0.209 HD
ENDBRANCH  12  13
ENDBRANCH   1  12
TORSDOF 2
ENDMDL
MODEL 3
REMARK VINA RESULT:      -5.4      1.580      2.834
REMARK  2 active torsions:
REMARK  status: ('A' for Active; 'I' for Inactive)
REMARK    1  A    between atoms: O_1  and  C_2 
REMARK    2  A    between atoms: C_2  and  C_3 
ROOT
HETATM    1  C   UNK N   1      22.952  12.185  11.417  0.00  0.00     0.049 A 
HETATM    2  C   UNK N   1      21.710  12.561  10.888  0.00  0.00     0.169 A 
HETATM    3  F   UNK N   1      20.584  12.431  11.636  0.00  0.00    -0.202 F 
HETATM    4  C   UNK N   1      21.614  13.072   9.592  0.00  0.00     0.197 A 
HETATM    5  F   UNK N   1      20.405  13.431   9.097  0.00  0.00    -0.199 F 
HETATM    6  C   UNK N   1      22.763  13.214   8.807  0.00  0.00     0.199 A 
HETATM    7  F   UNK N   1      22.665  13.710   7.549  0.00  0.00    -0.199 F 
HETATM    8  C   UNK N   1      24.009  12.843   9.320  0.00  0.00     0.197 A 
HETATM    9  F   UNK N   1      25.121  12.983   8.554  0.00  0.00    -0.199 F 
HETATM   10  C   UNK N   1      24.115  12.330  10.619  0.00  0.00     0.169 A 
HETATM   11  F   UNK N   1      25.340  11.980  11.086  0.00  0.00    -0.202 F 
ENDROOT
BRANCH   1  12
HETATM   12  C   UNK N   1      22.974  11.642  12.823  0.00  0.00     0.209 C 
BRANCH  12  13
HETATM   13  O   UNK N   1      23.743  12.401  13.702  0.00  0.00    -0.396 OA
HETATM   14  H   UNK N   1      23.695  12.234  14.657  0.00  0.00     0.209 HD
ENDBRANCH  12  13
ENDBRANCH   1  12
TORSDOF 2
ENDMDL
MODEL 4
REMARK VINA RESULT:      -5.3      0.168      2.981
REMARK  2 active torsions:
REMARK  status: ('A' for Active; 'I' for Inactive)
REMARK    1  A    between atoms: O_1  and  C_2 
REMARK    2  A    between atoms: C_2  and  C_3 
ROOT
HETATM    1  C   UNK N   1      23.324  12.649  10.244  0.00  0.00     0.049 A 
HETATM    2  C   UNK N   1      22.902  13.539   9.248  0.00  0.00     0.169 A 
HETATM    3  F   UNK N   1      23.791  14.010   8.335  0.00  0.00    -0.202 F 
HETATM    4  C   UNK N   1      21.570  13.952   9.180  0.00  0.00     0.197 A 
HETATM    5  F   UNK N   1      21.181  14.813   8.209  0.00  0.00    -0.199 F 
HETATM    6  C   UNK N   1      20.641  13.477  10.110  0.00  0.00     0.199 A 
HETATM    7  F   UNK N   1      19.348  13.881  10.040  0.00  0.00    -0.199 F 
HETATM    8  C   UNK N   1      21.044  12.589  11.110  0.00  0.00     0.197 A 
HETATM    9  F   UNK N   1      20.138  12.131  12.011  0.00  0.00    -0.199 F 
HETATM   10  C   UNK N   1      22.380  12.169  11.186  0.00  0.00     0.169 A 
HETATM   11  F   UNK N   1      22.739  11.306  12.169  0.00  0.00    -0.202 F 
ENDROOT
BRANCH   1  12
HETATM   12  C   UNK N   1      24.778  12.250  10.252  0.00  0.00     0.209 C 
BRANCH  12  13
HETATM   13  O   UNK N   1      25.505  12.812  11.299  0.00  0.00    -0.396 OA
HETATM   14  H   UNK N   1      25.051  13.087  12.111  0.00  0.00     0.209 HD
ENDBRANCH  12  13
ENDBRANCH   1  12
TORSDOF 2
ENDMDL
MODEL 5
REMARK VINA RESULT:      -5.1      2.118      4.525
REMARK  2 active torsions:
REMARK  status: ('A' for Active; 'I' for Inactive)
REMARK    1  A    between atoms: O_1  and  C_2 
REMARK    2  A    between atoms: C_2  and  C_3 
ROOT
HETATM    1  C   UNK N   1      21.668  13.517   9.360  0.00  0.00     0.049 A 
HETATM    2  C   UNK N   1      23.006  13.572   8.947  0.00  0.00     0.169 A 
HETATM    3  F   UNK N   1      23.337  14.207   7.793  0.00  0.00    -0.202 F 
HETATM    4  C   UNK N   1      24.011  12.977   9.712  0.00  0.00     0.197 A 
HETATM    5  F   UNK N   1      25.299  13.040   9.297  0.00  0.00    -0.199 F 
HETATM    6  C   UNK N   1      23.689  12.319  10.903  0.00  0.00     0.199 A 
HETATM    7  F   UNK N   1      24.668  11.743  11.643  0.00  0.00    -0.199 F 
HETATM    8  C   UNK N   1      22.360  12.256  11.329  0.00  0.00     0.197 A 
HETATM    9  F   UNK N   1      22.053  11.616  12.486  0.00  0.00    -0.199 F 
HETATM   10  C   UNK N   1      21.344  12.850  10.567  0.00  0.00     0.169 A 
HETATM   11  F   UNK N   1      20.064  12.770  11.010  0.00  0.00    -0.202 F 
ENDROOT
BRANCH   1  12
HETATM   12  C   UNK N   1      20.640  14.183   8.480  0.00  0.00     0.209 C 
BRANCH  12  13
HETATM   13  O   UNK N   1      20.316  13.445   7.344  0.00  0.00    -0.396 OA
HETATM   14  H   UNK N   1      20.799  13.592   6.516  0.00  0.00     0.209 HD
ENDBRANCH  12  13
ENDBRANCH   1  12
TORSDOF 2
ENDMDL
MODEL 6
REMARK VINA RESULT:      -5.1      8.310     10.274
REMARK  2 active torsions:
REMARK  status: ('A' for Active; 'I' for Inactive)
REMARK    1  A    between atoms: O_1  and  C_2 
REMARK    2  A    between atoms: C_2  and  C_3 
ROOT
HETATM    1  C   UNK N   1      20.866  19.863   2.405  0.00  0.00     0.049 A 
HETATM    2  C   UNK N   1      22.145  19.829   2.976  0.00  0.00     0.169 A 
HETATM    3  F   UNK N   1      23.081  20.741   2.604  0.00  0.00    -0.202 F 
HETATM    4  C   UNK N   1      22.474  18.863   3.928  0.00  0.00     0.197 A 
HETATM    5  F   UNK N   1      23.716  18.845   4.469  0.00  0.00    -0.199 F 
HETATM    6  C   UNK N   1      21.524  17.916   4.323  0.00  0.00     0.199 A 
HETATM    7  F   UNK N   1      21.847  16.979   5.249  0.00  0.00    -0.199 F 
HETATM    8  C   UNK N   1      20.243  17.936   3.764  0.00  0.00     0.197 A 
HETATM    9  F   UNK N   1      19.325  17.015   4.151  0.00  0.00    -0.199 F 
HETATM   10  C   UNK N   1      19.905  18.902   2.807  0.00  0.00     0.169 A 
HETATM   11  F   UNK N   1      18.653  18.894   2.284  0.00  0.00    -0.202 F 
ENDROOT
BRANCH   1  12
HETATM   12  C   UNK N   1      20.588  20.936   1.384  0.00  0.00     0.209 C 
BRANCH  12  13
HETATM   13  O   UNK N   1      20.612  20.475   0.069  0.00  0.00    -0.396 OA
HETATM   14  H   UNK N   1      21.270  20.821  -0.554  0.00  0.00     0.209 HD
ENDBRANCH  12  13
ENDBRANCH   1  12
TORSDOF 2
ENDMDL
MODEL 7
REMARK VINA RESULT:      -5.0      1.818      3.424
REMARK  2 active torsions:
REMARK  status: ('A' for Active; 'I' for Inactive)
REMARK    1  A    between atoms: O_1  and  C_2 
REMARK    2  A    between atoms: C_2  and  C_3 
ROOT
HETATM    1  C   UNK N   1      22.501  13.291   9.335  0.00  0.00     0.049 A 
HETATM    2  C   UNK N   1      21.342  13.056  10.086  0.00  0.00     0.169 A 
HETATM    3  F   UNK N   1      20.135  13.473   9.623  0.00  0.00    -0.202 F 
HETATM    4  C   UNK N   1      21.411  12.393  11.312  0.00  0.00     0.197 A 
HETATM    5  F   UNK N   1      20.278  12.174  12.024  0.00  0.00    -0.199 F 
HETATM    6  C   UNK N   1      22.644  11.956  11.805  0.00  0.00     0.199 A 
HETATM    7  F   UNK N   1      22.706  11.312  12.997  0.00  0.00    -0.199 F 
HETATM    8  C   UNK N   1      23.810  12.183  11.069  0.00  0.00     0.197 A 
HETATM    9  F   UNK N   1      25.005  11.756  11.552  0.00  0.00    -0.199 F 
HETATM   10  C   UNK N   1      23.750  12.847   9.837  0.00  0.00     0.169 A 
HETATM   11  F   UNK N   1      24.901  13.052   9.148  0.00  0.00    -0.202 F 
ENDROOT
BRANCH   1  12
HETATM   12  C   UNK N   1      22.346  14.013   8.021  0.00  0.00     0.209 C 
BRANCH  12  13
HETATM   13  O   UNK N   1      22.501  13.189   6.909  0.00  0.00    -0.396 OA
HETATM   14  H   UNK N   1      23.091  12.419   6.955  0.00  0.00     0.209 HD
ENDBRANCH  12  13
ENDBRANCH   1  12
TORSDOF 2
ENDMDL
MODEL 8
REMARK VINA RESULT:      -5.0      8.876      9.747
REMARK  2 active torsions:
REMARK  status: ('A' for Active; 'I' for Inactive)
REMARK    1  A    between atoms: O_1  and  C_2 
REMARK    2  A    between atoms: C_2  and  C_3 
ROOT
HETATM    1  C   UNK N   1      28.187  18.927   7.314  0.00  0.00     0.049 A 
HETATM    2  C   UNK N   1      28.762  18.152   6.298  0.00  0.00     0.169 A 
HETATM    3  F   UNK N   1      29.565  17.102   6.614  0.00  0.00    -0.202 F 
HETATM    4  C   UNK N   1      28.521  18.447   4.955  0.00  0.00     0.197 A 
HETATM    5  F   UNK N   1      29.086  17.687   3.986  0.00  0.00    -0.199 F 
HETATM    6  C   UNK N   1      27.697  19.523   4.611  0.00  0.00     0.199 A 
HETATM    7  F   UNK N   1      27.465  19.806   3.305  0.00  0.00    -0.199 F 
HETATM    8  C   UNK N   1      27.115  20.306   5.612  0.00  0.00     0.197 A 
HETATM    9  F   UNK N   1      26.317  21.350   5.272  0.00  0.00    -0.199 F 
HETATM   10  C   UNK N   1      27.353  20.017   6.962  0.00  0.00     0.169 A 
HETATM   11  F   UNK N   1      26.772  20.797   7.909  0.00  0.00    -0.202 F 
ENDROOT
BRANCH   1  12
HETATM   12  C   UNK N   1      28.496  18.546   8.740  0.00  0.00     0.209 C 
BRANCH  12  13
HETATM   13  O   UNK N   1      27.405  18.014   9.424  0.00  0.00    -0.396 OA
HETATM   14  H   UNK N   1      26.530  17.997   9.004  0.00  0.00     0.209 HD
ENDBRANCH  12  13
ENDBRANCH   1  12
TORSDOF 2
ENDMDL
MODEL 9
REMARK VINA RESULT:      -5.0      8.344     10.144
REMARK  2 active torsions:
REMARK  status: ('A' for Active; 'I' for Inactive)
REMARK    1  A    between atoms: O_1  and  C_2 
REMARK    2  A    between atoms: C_2  and  C_3 
ROOT
HETATM    1  C   UNK N   1      20.994  19.937   2.406  0.00  0.00     0.049 A 
HETATM    2  C   UNK N   1      20.035  18.996   2.801  0.00  0.00     0.169 A 
HETATM    3  F   UNK N   1      18.787  19.030   2.266  0.00  0.00    -0.202 F 
HETATM    4  C   UNK N   1      20.347  18.016   3.745  0.00  0.00     0.197 A 
HETATM    5  F   UNK N   1      19.406  17.114   4.116  0.00  0.00    -0.199 F 
HETATM    6  C   UNK N   1      21.627  17.966   4.307  0.00  0.00     0.199 A 
HETATM    7  F   UNK N   1      21.925  17.012   5.223  0.00  0.00    -0.199 F 
HETATM    8  C   UNK N   1      22.595  18.897   3.923  0.00  0.00     0.197 A 
HETATM    9  F   UNK N   1      23.836  18.844   4.472  0.00  0.00    -0.199 F 
HETATM   10  C   UNK N   1      22.291  19.884   2.976  0.00  0.00     0.169 A 
HETATM   11  F   UNK N   1      23.254  20.773   2.626  0.00  0.00    -0.202 F 
ENDROOT
BRANCH   1  12
HETATM   12  C   UNK N   1      20.582  20.964   1.381  0.00  0.00     0.209 C 
BRANCH  12  13
HETATM   13  O   UNK N   1      20.627  20.495   0.071  0.00  0.00    -0.396 OA
HETATM   14  H   UNK N   1      20.230  21.016  -0.645  0.00  0.00     0.209 HD
ENDBRANCH  12  13
ENDBRANCH   1  12
TORSDOF 2
ENDMDL
