MODEL 1
REMARK VINA RESULT:      -5.1      0.000      0.000
REMARK  2 active torsions:
REMARK  status: ('A' for Active; 'I' for Inactive)
REMARK    1  A    between atoms: O_1  and  C_4 
REMARK    2  A    between atoms: O_2  and  C_5 
ROOT
HETATM    1  N   UNK N   1      19.801  16.530   2.433  0.00  0.00    -0.365 N 
HETATM    2  C   UNK N   1      20.706  19.879   1.215  0.00  0.00     0.101 A 
HETATM    3  C   UNK N   1      21.138  20.405   2.460  0.00  0.00     0.099 A 
HETATM    4  C   UNK N   1      20.210  17.799   2.299  0.00  0.00     0.045 A 
HETATM    5  C   UNK N   1      20.624  18.305   3.494  0.00  0.00    -0.005 A 
HETATM    6  C   UNK N   1      19.961  16.226   3.746  0.00  0.00     0.089 A 
HETATM    7  C   UNK N   1      20.235  18.555   1.130  0.00  0.00     0.069 A 
HETATM    8  C   UNK N   1      21.097  19.607   3.619  0.00  0.00     0.053 A 
HETATM    9  C   UNK N   1      20.477  17.321   4.440  0.00  0.00     0.030 A 
HETATM   10  H   UNK N   1      19.456  15.940   1.725  0.00  0.00     0.165 HD
ENDROOT
BRANCH   2  11
HETATM   11  O   UNK N   1      20.746  20.642   0.110  0.00  0.00    -0.358 OA
HETATM   12  H   UNK N   1      21.163  20.321  -0.666  0.00  0.00     0.217 HD
ENDBRANCH   2  11
BRANCH   3  13
HETATM   13  O   UNK N   1      21.588  21.668   2.541  0.00  0.00    -0.358 OA
HETATM   14  H   UNK N   1      21.828  22.131   1.764  0.00  0.00     0.217 HD
ENDBRANCH   3  13
TORSDOF 2
ENDMDL
MODEL 2
REMARK VINA RESULT:      -5.0     12.030     12.896
REMARK  2 active torsions:
REMARK  status: ('A' for Active; 'I' for Inactive)
REMARK    1  A    between atoms: O_1  and  C_4 
REMARK    2  A    between atoms: O_2  and  C_5 
ROOT
HETATM    1  N   UNK N   1      29.094  22.091  -6.026  0.00  0.00    -0.365 N 
HETATM    2  C   UNK N   1      30.741  22.430  -2.756  0.00  0.00     0.101 A 
HETATM    3  C   UNK N   1      31.748  21.454  -2.968  0.00  0.00     0.099 A 
HETATM    4  C   UNK N   1      29.889  21.985  -4.952  0.00  0.00     0.045 A 
HETATM    5  C   UNK N   1      30.856  21.048  -5.155  0.00  0.00    -0.005 A 
HETATM    6  C   UNK N   1      29.571  21.199  -6.930  0.00  0.00     0.089 A 
HETATM    7  C   UNK N   1      29.795  22.702  -3.763  0.00  0.00     0.069 A 
HETATM    8  C   UNK N   1      31.809  20.750  -4.186  0.00  0.00     0.053 A 
HETATM    9  C   UNK N   1      30.679  20.526  -6.412  0.00  0.00     0.030 A 
HETATM   10  H   UNK N   1      28.323  22.693  -6.136  0.00  0.00     0.165 HD
ENDROOT
BRANCH   2  11
HETATM   11  O   UNK N   1      30.686  23.101  -1.593  0.00  0.00    -0.358 OA
HETATM   12  H   UNK N   1      30.890  22.663  -0.790  0.00  0.00     0.217 HD
ENDBRANCH   2  11
BRANCH   3  13
HETATM   13  O   UNK N   1      32.652  21.194  -2.008  0.00  0.00    -0.358 OA
HETATM   14  H   UNK N   1      33.478  20.817  -2.233  0.00  0.00     0.217 HD
ENDBRANCH   3  13
TORSDOF 2
ENDMDL
MODEL 3
REMARK VINA RESULT:      -5.0     13.877     14.591
REMARK  2 active torsions:
REMARK  status: ('A' for Active; 'I' for Inactive)
REMARK    1  A    between atoms: O_1  and  C_4 
REMARK    2  A    between atoms: O_2  and  C_5 
ROOT
HETATM    1  N   UNK N   1      32.266  14.782   8.007  0.00  0.00    -0.365 N 
HETATM    2  C   UNK N   1      34.722  17.141   9.394  0.00  0.00     0.101 A 
HETATM    3  C   UNK N   1      34.577  18.145   8.402  0.00  0.00     0.099 A 
HETATM    4  C   UNK N   1      33.076  15.821   8.257  0.00  0.00     0.045 A 
HETATM    5  C   UNK N   1      32.937  16.785   7.305  0.00  0.00    -0.005 A 
HETATM    6  C   UNK N   1      31.599  15.098   6.869  0.00  0.00     0.089 A 
HETATM    7  C   UNK N   1      33.961  15.959   9.322  0.00  0.00     0.069 A 
HETATM    8  C   UNK N   1      33.670  17.966   7.340  0.00  0.00     0.053 A 
HETATM    9  C   UNK N   1      31.998  16.352   6.402  0.00  0.00     0.030 A 
HETATM   10  H   UNK N   1      32.175  13.959   8.540  0.00  0.00     0.165 HD
ENDROOT
BRANCH   2  11
HETATM   11  O   UNK N   1      35.588  17.314  10.406  0.00  0.00    -0.358 OA
HETATM   12  H   UNK N   1      36.506  17.388  10.230  0.00  0.00     0.217 HD
ENDBRANCH   2  11
BRANCH   3  13
HETATM   13  O   UNK N   1      35.303  19.274   8.469  0.00  0.00    -0.358 OA
HETATM   14  H   UNK N   1      35.031  19.973   9.029  0.00  0.00     0.217 HD
ENDBRANCH   3  13
TORSDOF 2
ENDMDL
MODEL 4
REMARK VINA RESULT:      -4.9      9.022     10.607
REMARK  2 active torsions:
REMARK  status: ('A' for Active; 'I' for Inactive)
REMARK    1  A    between atoms: O_1  and  C_4 
REMARK    2  A    between atoms: O_2  and  C_5 
ROOT
HETATM    1  N   UNK N   1      23.182  13.835   7.874  0.00  0.00    -0.365 N 
HETATM    2  C   UNK N   1      24.153  12.242  11.043  0.00  0.00     0.101 A 
HETATM    3  C   UNK N   1      22.841  12.047  11.547  0.00  0.00     0.099 A 
HETATM    4  C   UNK N   1      23.216  13.244   9.077  0.00  0.00     0.045 A 
HETATM    5  C   UNK N   1      21.958  13.057   9.562  0.00  0.00    -0.005 A 
HETATM    6  C   UNK N   1      21.869  14.027   7.593  0.00  0.00     0.089 A 
HETATM    7  C   UNK N   1      24.346  12.850   9.788  0.00  0.00     0.069 A 
HETATM    8  C   UNK N   1      21.724  12.461  10.797  0.00  0.00     0.053 A 
HETATM    9  C   UNK N   1      21.072  13.548   8.634  0.00  0.00     0.030 A 
HETATM   10  H   UNK N   1      23.952  14.080   7.312  0.00  0.00     0.165 HD
ENDROOT
BRANCH   2  11
HETATM   11  O   UNK N   1      25.217  11.847  11.761  0.00  0.00    -0.358 OA
HETATM   12  H   UNK N   1      25.971  11.495  11.327  0.00  0.00     0.217 HD
ENDBRANCH   2  11
BRANCH   3  13
HETATM   13  O   UNK N   1      22.656  11.467  12.745  0.00  0.00    -0.358 OA
HETATM   14  H   UNK N   1      23.017  11.858  13.515  0.00  0.00     0.217 HD
ENDBRANCH   3  13
TORSDOF 2
ENDMDL
MODEL 5
REMARK VINA RESULT:      -4.9      0.838      2.125
REMARK  2 active torsions:
REMARK  status: ('A' for Active; 'I' for Inactive)
REMARK    1  A    between atoms: O_1  and  C_4 
REMARK    2  A    between atoms: O_2  and  C_5 
ROOT
HETATM    1  N   UNK N   1      20.652  17.441   4.557  0.00  0.00    -0.365 N 
HETATM    2  C   UNK N   1      21.065  20.444   2.477  0.00  0.00     0.101 A 
HETATM    3  C   UNK N   1      20.720  19.844   1.238  0.00  0.00     0.099 A 
HETATM    4  C   UNK N   1      20.715  18.335   3.561  0.00  0.00     0.045 A 
HETATM    5  C   UNK N   1      20.384  17.760   2.371  0.00  0.00    -0.005 A 
HETATM    6  C   UNK N   1      20.271  16.272   3.983  0.00  0.00     0.089 A 
HETATM    7  C   UNK N   1      21.063  19.679   3.659  0.00  0.00     0.069 A 
HETATM    8  C   UNK N   1      20.374  18.481   1.182  0.00  0.00     0.053 A 
HETATM    9  C   UNK N   1      20.095  16.439   2.608  0.00  0.00     0.030 A 
HETATM   10  H   UNK N   1      20.842  17.600   5.510  0.00  0.00     0.165 HD
ENDROOT
BRANCH   2  11
HETATM   11  O   UNK N   1      21.395  21.745   2.528  0.00  0.00    -0.358 OA
HETATM   12  H   UNK N   1      22.212  22.007   2.907  0.00  0.00     0.217 HD
ENDBRANCH   2  11
BRANCH   3  13
HETATM   13  O   UNK N   1      20.722  20.574   0.109  0.00  0.00    -0.358 OA
HETATM   14  H   UNK N   1      21.345  20.392  -0.565  0.00  0.00     0.217 HD
ENDBRANCH   3  13
TORSDOF 2
ENDMDL
MODEL 6
REMARK VINA RESULT:      -4.9     12.233     13.051
REMARK  2 active torsions:
REMARK  status: ('A' for Active; 'I' for Inactive)
REMARK    1  A    between atoms: O_1  and  C_4 
REMARK    2  A    between atoms: O_2  and  C_5 
ROOT
HETATM    1  N   UNK N   1      31.186  20.184  -6.329  0.00  0.00    -0.365 N 
HETATM    2  C   UNK N   1      31.983  21.361  -2.938  0.00  0.00     0.101 A 
HETATM    3  C   UNK N   1      30.901  22.269  -2.812  0.00  0.00     0.099 A 
HETATM    4  C   UNK N   1      31.212  20.795  -5.136  0.00  0.00     0.045 A 
HETATM    5  C   UNK N   1      30.174  21.668  -5.015  0.00  0.00    -0.005 A 
HETATM    6  C   UNK N   1      30.103  20.683  -6.977  0.00  0.00     0.089 A 
HETATM    7  C   UNK N   1      32.143  20.610  -4.119  0.00  0.00     0.069 A 
HETATM    8  C   UNK N   1      29.980  22.427  -3.865  0.00  0.00     0.053 A 
HETATM    9  C   UNK N   1      29.445  21.619  -6.177  0.00  0.00     0.030 A 
HETATM   10  H   UNK N   1      31.821  19.512  -6.666  0.00  0.00     0.165 HD
ENDROOT
BRANCH   2  11
HETATM   11  O   UNK N   1      32.860  21.212  -1.931  0.00  0.00    -0.358 OA
HETATM   12  H   UNK N   1      33.044  20.357  -1.593  0.00  0.00     0.217 HD
ENDBRANCH   2  11
BRANCH   3  13
HETATM   13  O   UNK N   1      30.746  22.986  -1.685  0.00  0.00    -0.358 OA
HETATM   14  H   UNK N   1      31.294  22.818  -0.945  0.00  0.00     0.217 HD
ENDBRANCH   3  13
TORSDOF 2
ENDMDL
MODEL 7
REMARK VINA RESULT:      -4.9     22.654     23.227
REMARK  2 active torsions:
REMARK  status: ('A' for Active; 'I' for Inactive)
REMARK    1  A    between atoms: O_1  and  C_4 
REMARK    2  A    between atoms: O_2  and  C_5 
ROOT
HETATM    1  N   UNK N   1      41.790  19.375   2.590  0.00  0.00    -0.365 N 
HETATM    2  C   UNK N   1      43.606  22.364   3.725  0.00  0.00     0.101 A 
HETATM    3  C   UNK N   1      44.884  21.759   3.833  0.00  0.00     0.099 A 
HETATM    4  C   UNK N   1      42.705  20.262   3.004  0.00  0.00     0.045 A 
HETATM    5  C   UNK N   1      43.932  19.682   3.108  0.00  0.00    -0.005 A 
HETATM    6  C   UNK N   1      42.457  18.204   2.428  0.00  0.00     0.089 A 
HETATM    7  C   UNK N   1      42.496  21.605   3.304  0.00  0.00     0.069 A 
HETATM    8  C   UNK N   1      45.053  20.396   3.520  0.00  0.00     0.053 A 
HETATM    9  C   UNK N   1      43.807  18.364   2.746  0.00  0.00     0.030 A 
HETATM   10  H   UNK N   1      40.832  19.538   2.435  0.00  0.00     0.165 HD
ENDROOT
BRANCH   2  11
HETATM   11  O   UNK N   1      43.447  23.664   4.025  0.00  0.00    -0.358 OA
HETATM   12  H   UNK N   1      43.339  23.929   4.917  0.00  0.00     0.217 HD
ENDBRANCH   2  11
BRANCH   3  13
HETATM   13  O   UNK N   1      45.943  22.481   4.235  0.00  0.00    -0.358 OA
HETATM   14  H   UNK N   1      46.619  22.700   3.626  0.00  0.00     0.217 HD
ENDBRANCH   3  13
TORSDOF 2
ENDMDL
MODEL 8
REMARK VINA RESULT:      -4.8     10.587     11.444
REMARK  2 active torsions:
REMARK  status: ('A' for Active; 'I' for Inactive)
REMARK    1  A    between atoms: O_1  and  C_4 
REMARK    2  A    between atoms: O_2  and  C_5 
ROOT
HETATM    1  N   UNK N   1      32.160  17.926   8.724  0.00  0.00    -0.365 N 
HETATM    2  C   UNK N   1      28.484  17.863   8.733  0.00  0.00     0.101 A 
HETATM    3  C   UNK N   1      28.317  17.282   7.450  0.00  0.00     0.099 A 
HETATM    4  C   UNK N   1      30.860  17.772   8.434  0.00  0.00     0.045 A 
HETATM    5  C   UNK N   1      30.700  17.214   7.203  0.00  0.00    -0.005 A 
HETATM    6  C   UNK N   1      32.838  17.453   7.648  0.00  0.00     0.089 A 
HETATM    7  C   UNK N   1      29.775  18.113   9.236  0.00  0.00     0.069 A 
HETATM    8  C   UNK N   1      29.442  16.951   6.671  0.00  0.00     0.053 A 
HETATM    9  C   UNK N   1      31.948  16.997   6.673  0.00  0.00     0.030 A 
HETATM   10  H   UNK N   1      32.543  18.304   9.548  0.00  0.00     0.165 HD
ENDROOT
BRANCH   2  11
HETATM   11  O   UNK N   1      27.409  18.178   9.475  0.00  0.00    -0.358 OA
HETATM   12  H   UNK N   1      27.174  17.645  10.210  0.00  0.00     0.217 HD
ENDBRANCH   2  11
BRANCH   3  13
HETATM   13  O   UNK N   1      27.085  17.043   6.969  0.00  0.00    -0.358 OA
HETATM   14  H   UNK N   1      26.596  16.309   7.281  0.00  0.00     0.217 HD
ENDBRANCH   3  13
TORSDOF 2
ENDMDL
MODEL 9
REMARK VINA RESULT:      -4.8      9.233     10.841
REMARK  2 active torsions:
REMARK  status: ('A' for Active; 'I' for Inactive)
REMARK    1  A    between atoms: O_1  and  C_4 
REMARK    2  A    between atoms: O_2  and  C_5 
ROOT
HETATM    1  N   UNK N   1      20.444  13.514   9.536  0.00  0.00    -0.365 N 
HETATM    2  C   UNK N   1      22.776  11.949  11.908  0.00  0.00     0.101 A 
HETATM    3  C   UNK N   1      23.966  12.217  11.184  0.00  0.00     0.099 A 
HETATM    4  C   UNK N   1      21.516  13.038  10.185  0.00  0.00     0.045 A 
HETATM    5  C   UNK N   1      22.658  13.295   9.489  0.00  0.00    -0.005 A 
HETATM    6  C   UNK N   1      20.922  14.086   8.402  0.00  0.00     0.089 A 
HETATM    7  C   UNK N   1      21.530  12.366  11.403  0.00  0.00     0.069 A 
HETATM    8  C   UNK N   1      23.909  12.900   9.954  0.00  0.00     0.053 A 
HETATM    9  C   UNK N   1      22.311  13.965   8.342  0.00  0.00     0.030 A 
HETATM   10  H   UNK N   1      19.504  13.460   9.823  0.00  0.00     0.165 HD
ENDROOT
BRANCH   2  11
HETATM   11  O   UNK N   1      22.833  11.296  13.082  0.00  0.00    -0.358 OA
HETATM   12  H   UNK N   1      22.070  11.238  13.622  0.00  0.00     0.217 HD
ENDBRANCH   2  11
BRANCH   3  13
HETATM   13  O   UNK N   1      25.156  11.820  11.665  0.00  0.00    -0.358 OA
HETATM   14  H   UNK N   1      25.782  11.420  11.095  0.00  0.00     0.217 HD
ENDBRANCH   3  13
TORSDOF 2
ENDMDL
