REMARK  16 active torsions:
REMARK  status: ('A' for Active; 'I' for Inactive)
REMARK    1  A    between atoms: C_4  and  C_3 
REMARK    2  A    between atoms: C_9  and  C_4 
REMARK    3  A    between atoms: C_16  and  C_9 
REMARK    4  A    between atoms: N_30  and  C_16 
REMARK    5  A    between atoms: C_19  and  C_17 
REMARK    6  A    between atoms: C_23  and  C_17 
REMARK    7  A    between atoms: O_35  and  C_18 
REMARK    8  A    between atoms: C_28  and  C_22 
REMARK    9  A    between atoms: C_26  and  C_23 
REMARK   10  A    between atoms: C_23  and  N_32 
REMARK   11  A    between atoms: N_34  and  C_24 
REMARK   12  A    between atoms: N_34  and  C_25 
REMARK   13  A    between atoms: O_36  and  C_26 
REMARK   14  A    between atoms: C_29  and  C_27 
REMARK       I    between atoms: N_34  and  C_27 
REMARK   15  A    between atoms: O_39  and  C_28 
REMARK   16  A    between atoms: O_40  and  C_29 
ROOT
HETATM    1  C   UNK N   1      -1.312   8.566   0.632  0.00  0.00     0.001 A 
HETATM    2  C   UNK N   1      -0.146   9.304   0.758  0.00  0.00     0.001 A 
HETATM    3  C   UNK N   1      -1.236   7.231   0.261  0.00  0.00     0.013 A 
HETATM    4  C   UNK N   1       1.087   8.709   0.496  0.00  0.00     0.014 A 
HETATM    5  C   UNK N   1       1.225   4.688  -0.760  0.00  0.00     0.010 A 
HETATM    6  C   UNK N   1       2.406   5.414  -0.719  0.00  0.00     0.031 A 
HETATM    7  C   UNK N   1       0.024   5.271  -0.390  0.00  0.00    -0.044 A 
HETATM    8  C   UNK N   1       0.002   6.628  -0.039  0.00  0.00    -0.017 A 
HETATM    9  C   UNK N   1       1.218   7.383   0.057  0.00  0.00     0.002 A 
HETATM   10  C   UNK N   1       2.494   6.743  -0.254  0.00  0.00     0.054 A 
ENDROOT
BRANCH   7  11
HETATM   11  C   UNK N   1      -1.250   4.458  -0.284  0.00  0.00     0.073 C 
BRANCH  11  12
HETATM   12  C   UNK N   1      -1.196   2.931  -0.436  0.00  0.00     0.162 C 
BRANCH  12  13
HETATM   13  C   UNK N   1      -2.490   2.188  -0.063  0.00  0.00     0.135 C 
HETATM   14  N   UNK N   1      -3.531   2.720   0.500  0.00  0.00    -0.373 N 
ATOM     15  HN  UNK N   1      -4.322   2.098   0.666  1.00  0.00     0.161 HD
BRANCH  14  16
HETATM   16  C   UNK N   1      -3.698   4.094   0.919  0.00  0.00     0.121 C 
BRANCH  16  17
HETATM   17  C   UNK N   1      -4.374   4.923  -0.172  0.00  0.00     0.020 C 
BRANCH  17  18
HETATM   18  C   UNK N   1      -5.623   4.250  -0.722  0.00  0.00     0.001 C 
BRANCH  18  19
HETATM   19  C   UNK N   1      -6.709   4.180   0.332  0.00  0.00    -0.004 C 
HETATM   20  C   UNK N   1      -7.733   3.147  -0.083  0.00  0.00     0.005 C 
ENDBRANCH  18  19
ENDBRANCH  17  18
ENDBRANCH  16  17
ENDBRANCH  14  16
BRANCH  13  21
HETATM   21  O   UNK N   1      -2.538   0.869  -0.328  0.00  0.00    -0.348 OA
HETATM   22  H   UNK N   1      -3.350   0.439  -0.512  0.00  0.00     0.219 HD
ENDBRANCH  13  21
ENDBRANCH  12  13
BRANCH  12  23
HETATM   23  N   UNK N   1      -0.107   2.391   0.363  0.00  0.00    -0.362 N 
HETATM   24  C   UNK N   1       0.549   1.312   0.079  0.00  0.00     0.107 C 
HETATM   25  C   UNK N   1       0.257   0.501  -1.147  0.00  0.00     0.097 C 
ATOM     26  HN  UNK N   1       0.158   2.899   1.208  1.00  0.00     0.162 HD
BRANCH  24  27
HETATM   27  O   UNK N   1       1.536   0.908   0.899  0.00  0.00    -0.350 OA
HETATM   28  H   UNK N   1       1.636   0.171   1.470  0.00  0.00     0.219 HD
ENDBRANCH  24  27
ENDBRANCH  12  23
ENDBRANCH  11  12
ENDBRANCH   7  11
BRANCH  10  29
HETATM   29  N   UNK N   1       3.864   7.303  -0.084  0.00  0.00    -0.272 N 
HETATM   30  C   UNK N   1       4.148   8.661   0.116  0.00  0.00     0.326 C 
HETATM   31  O   UNK N   1       3.316   9.516  -0.092  0.00  0.00    -0.260 OA
BRANCH  29  32
HETATM   32  C   UNK N   1       5.011   6.425  -0.324  0.00  0.00     0.060 A 
HETATM   33  C   UNK N   1       6.005   6.906  -1.210  0.00  0.00     0.031 A 
HETATM   34  C   UNK N   1       7.112   6.149  -1.574  0.00  0.00     0.002 A 
HETATM   35  C   UNK N   1       7.253   4.859  -1.091  0.00  0.00     0.001 A 
HETATM   36  C   UNK N   1       6.296   4.336  -0.228  0.00  0.00     0.020 A 
HETATM   37  C   UNK N   1       5.176   5.083   0.187  0.00  0.00     0.065 A 
BRANCH  37  38
HETATM   38  C   UNK N   1       4.284   4.409   1.174  0.00  0.00     0.178 C 
HETATM   39  O   UNK N   1       4.408   3.209   1.381  0.00  0.00    -0.646 OA
BRANCH  38  40
HETATM   40  O   UNK N   1       3.372   5.100   1.880  0.00  0.00    -0.773 OA
HETATM   41  H   UNK N   1       3.471   5.891   2.371  0.00  0.00     0.167 HD
ENDBRANCH  38  40
ENDBRANCH  37  38
ENDBRANCH  29  32
BRANCH  30  42
HETATM   42  C   UNK N   1       5.487   9.170   0.575  0.00  0.00     0.237 C 
HETATM   43  O   UNK N   1       6.343   8.421   1.017  0.00  0.00    -0.643 OA
BRANCH  42  44
HETATM   44  O   UNK N   1       5.707  10.500   0.608  0.00  0.00    -0.769 OA
HETATM   45  H   UNK N   1       6.584  10.829   0.631  0.00  0.00     0.168 HD
ENDBRANCH  42  44
ENDBRANCH  30  42
ENDBRANCH  10  29
TORSDOF 16
