REMARK  2 active torsions:
REMARK  status: ('A' for Active; 'I' for Inactive)
REMARK    1  A    between atoms: C_4  and  O_19 
REMARK    2  A    between atoms: C_17  and  O_20 
ROOT
HETATM    1  C   UNK N   1      -1.549  -0.292   0.458  0.00  0.00     0.022 C 
HETATM    2  C   UNK N   1      -1.398  -1.800   0.455  0.00  0.00    -0.038 C 
HETATM    3  C   UNK N   1      -2.323   0.106  -0.798  0.00  0.00     0.017 C 
HETATM    4  C   UNK N   1      -2.458  -2.577   0.156  0.00  0.00     0.114 C 
HETATM    5  C   UNK N   1      -3.743  -0.490  -0.710  0.00  0.00     0.086 C 
HETATM    6  C   UNK N   1      -3.725  -1.943  -0.287  0.00  0.00     0.182 C 
HETATM    7  C   UNK N   1      -0.177   0.390   0.626  0.00  0.00    -0.002 C 
HETATM    8  C   UNK N   1       0.897  -0.230  -0.317  0.00  0.00    -0.005 C 
HETATM    9  C   UNK N   1      -0.055  -2.397   0.771  0.00  0.00     0.038 C 
HETATM   10  C   UNK N   1       1.041  -1.758  -0.099  0.00  0.00     0.010 C 
HETATM   11  C   UNK N   1      -0.279   1.921   0.459  0.00  0.00     0.006 C 
HETATM   12  C   UNK N   1       1.081   2.608   0.666  0.00  0.00     0.012 C 
HETATM   13  C   UNK N   1       2.230   0.484  -0.009  0.00  0.00     0.001 C 
HETATM   14  C   UNK N   1       2.138   1.988  -0.254  0.00  0.00    -0.014 C 
HETATM   15  C   UNK N   1       3.464   0.089  -0.798  0.00  0.00     0.008 C 
HETATM   16  C   UNK N   1       4.409   1.291  -0.612  0.00  0.00     0.033 C 
HETATM   17  C   UNK N   1       3.575   2.433   0.000  0.00  0.00     0.126 C 
HETATM   18  O   UNK N   1      -4.744  -2.610  -0.379  0.00  0.00    -0.290 OA
HETATM   19  C   UNK N   1       1.790   2.326  -1.711  0.00  0.00     0.018 C 
ENDROOT
BRANCH   4  20
HETATM   20  O   UNK N   1      -2.364  -3.922   0.218  0.00  0.00    -0.357 OA
HETATM   21  H   UNK N   1      -3.140  -4.445   0.261  0.00  0.00     0.218 HD
ENDBRANCH   4  20
BRANCH  17  22
HETATM   22  O   UNK N   1       3.842   2.492   1.372  0.00  0.00    -0.395 OA
HETATM   23  H   UNK N   1       3.970   2.352   2.324  0.00  0.00     0.210 HD
ENDBRANCH  17  22
TORSDOF 2
