MODEL 1
REMARK VINA RESULT:      -5.0      0.000      0.000
REMARK  9 active torsions:
REMARK  status: ('A' for Active; 'I' for Inactive)
REMARK    1  A    between atoms: C_2  and  N_1 
REMARK    2  A    between atoms: C_2  and  C_3 
REMARK    3  A    between atoms: C_2  and  C_11 
REMARK    4  A    between atoms: C_3  and  C_4 
REMARK    5  A    between atoms: C_4  and  O_6 
REMARK    6  A    between atoms: O_6  and  P_7 
REMARK    7  A    between atoms: P_7  and  O_8 
REMARK    8  A    between atoms: P_7  and  O_9 
REMARK    9  A    between atoms: C_11  and  O_12 
ROOT
HETATM    1  C   UNK N   1      34.930  15.959   8.890  0.00  0.00     0.147 C 
ENDROOT
BRANCH   1   2
HETATM    2  C   UNK N   1      33.798  16.733   8.215  0.00  0.00     0.182 C 
BRANCH   2   3
HETATM    3  N   UNK N   1      32.810  17.111   9.217  0.00  0.00    -0.417 N 
HETATM    4  H   UNK N   1      31.818  17.129   8.984  0.00  0.00     0.150 HD
HETATM    5  H   UNK N   1      33.114  17.361  10.158  0.00  0.00     0.150 HD
ENDBRANCH   2   3
BRANCH   2   6
HETATM    6  C   UNK N   1      34.318  17.954   7.513  0.00  0.00     0.163 C 
HETATM    7  O   UNK N   1      34.268  18.022   6.296  0.00  0.00    -0.648 OA
BRANCH   6   8
HETATM    8  O   UNK N   1      34.810  18.994   8.216  0.00  0.00    -0.775 OA
HETATM    9  H   UNK N   1      35.710  19.255   8.188  0.00  0.00     0.167 HD
ENDBRANCH   6   8
ENDBRANCH   2   6
ENDBRANCH   1   2
BRANCH   1  10
HETATM   10  C   UNK N   1      35.094  16.357  10.331  0.00  0.00     0.269 C 
HETATM   11  O   UNK N   1      35.492  17.477  10.613  0.00  0.00    -0.265 OA
BRANCH  10  12
HETATM   12  O   UNK N   1      34.825  15.452  11.313  0.00  0.00    -0.220 OA
BRANCH  12  13
HETATM   13  P   UNK N   1      35.752  14.012  11.571  0.00  0.00     0.398 P 
HETATM   14  O   UNK N   1      34.801  13.870  12.792  0.00  0.00    -0.631 OA
BRANCH  13  15
HETATM   15  O   UNK N   1      36.864  13.822  12.890  0.00  0.00    -0.307 OA
HETATM   16  H   UNK N   1      37.078  14.469  13.581  0.00  0.00     0.222 HD
ENDBRANCH  13  15
BRANCH  13  17
HETATM   17  O   UNK N   1      36.733  15.420  11.840  0.00  0.00    -0.307 OA
HETATM   18  H   UNK N   1      37.179  15.648  12.670  0.00  0.00     0.222 HD
ENDBRANCH  13  17
ENDBRANCH  12  13
ENDBRANCH  10  12
ENDBRANCH   1  10
TORSDOF 9
ENDMDL
MODEL 2
REMARK VINA RESULT:      -4.9      1.270      1.638
REMARK  9 active torsions:
REMARK  status: ('A' for Active; 'I' for Inactive)
REMARK    1  A    between atoms: C_2  and  N_1 
REMARK    2  A    between atoms: C_2  and  C_3 
REMARK    3  A    between atoms: C_2  and  C_11 
REMARK    4  A    between atoms: C_3  and  C_4 
REMARK    5  A    between atoms: C_4  and  O_6 
REMARK    6  A    between atoms: O_6  and  P_7 
REMARK    7  A    between atoms: P_7  and  O_8 
REMARK    8  A    between atoms: P_7  and  O_9 
REMARK    9  A    between atoms: C_11  and  O_12 
ROOT
HETATM    1  C   UNK N   1      34.237  15.756   8.768  0.00  0.00     0.147 C 
ENDROOT
BRANCH   1   2
HETATM    2  C   UNK N   1      34.194  17.213   9.231  0.00  0.00     0.182 C 
BRANCH   2   3
HETATM    3  N   UNK N   1      35.067  17.376  10.385  0.00  0.00    -0.417 N 
HETATM    4  H   UNK N   1      35.451  16.561  10.863  0.00  0.00     0.150 HD
HETATM    5  H   UNK N   1      35.296  18.312  10.718  0.00  0.00     0.150 HD
ENDBRANCH   2   3
BRANCH   2   6
HETATM    6  C   UNK N   1      34.609  18.146   8.130  0.00  0.00     0.163 C 
HETATM    7  O   UNK N   1      35.115  19.222   8.405  0.00  0.00    -0.648 OA
BRANCH   6   8
HETATM    8  O   UNK N   1      34.461  17.792   6.837  0.00  0.00    -0.775 OA
HETATM    9  H   UNK N   1      34.919  17.076   6.442  0.00  0.00     0.167 HD
ENDBRANCH   6   8
ENDBRANCH   2   6
ENDBRANCH   1   2
BRANCH   1  10
HETATM   10  C   UNK N   1      35.232  14.951   9.557  0.00  0.00     0.269 C 
HETATM   11  O   UNK N   1      36.279  14.595   9.037  0.00  0.00    -0.265 OA
BRANCH  10  12
HETATM   12  O   UNK N   1      34.944  14.598  10.841  0.00  0.00    -0.220 OA
BRANCH  12  13
HETATM   13  P   UNK N   1      36.039  13.735  11.867  0.00  0.00     0.398 P 
HETATM   14  O   UNK N   1      34.828  13.775  12.840  0.00  0.00    -0.631 OA
BRANCH  13  15
HETATM   15  O   UNK N   1      36.737  14.419  13.301  0.00  0.00    -0.307 OA
HETATM   16  H   UNK N   1      36.281  14.662  14.123  0.00  0.00     0.222 HD
ENDBRANCH  13  15
BRANCH  13  17
HETATM   17  O   UNK N   1      36.579  15.369  11.645  0.00  0.00    -0.307 OA
HETATM   18  H   UNK N   1      36.222  16.000  11.000  0.00  0.00     0.222 HD
ENDBRANCH  13  17
ENDBRANCH  12  13
ENDBRANCH  10  12
ENDBRANCH   1  10
TORSDOF 9
ENDMDL
MODEL 3
REMARK VINA RESULT:      -4.8      2.518      5.297
REMARK  9 active torsions:
REMARK  status: ('A' for Active; 'I' for Inactive)
REMARK    1  A    between atoms: C_2  and  N_1 
REMARK    2  A    between atoms: C_2  and  C_3 
REMARK    3  A    between atoms: C_2  and  C_11 
REMARK    4  A    between atoms: C_3  and  C_4 
REMARK    5  A    between atoms: C_4  and  O_6 
REMARK    6  A    between atoms: O_6  and  P_7 
REMARK    7  A    between atoms: P_7  and  O_8 
REMARK    8  A    between atoms: P_7  and  O_9 
REMARK    9  A    between atoms: C_11  and  O_12 
ROOT
HETATM    1  C   UNK N   1      35.456  14.106   9.554  0.00  0.00     0.147 C 
ENDROOT
BRANCH   1   2
HETATM    2  C   UNK N   1      36.335  14.284  10.791  0.00  0.00     0.182 C 
BRANCH   2   3
HETATM    3  N   UNK N   1      36.448  15.703  11.101  0.00  0.00    -0.417 N 
HETATM    4  H   UNK N   1      37.072  16.302  10.560  0.00  0.00     0.150 HD
HETATM    5  H   UNK N   1      35.900  16.099  11.864  0.00  0.00     0.150 HD
ENDBRANCH   2   3
BRANCH   2   6
HETATM    6  C   UNK N   1      35.774  13.540  11.968  0.00  0.00     0.163 C 
HETATM    7  O   UNK N   1      36.504  12.833  12.644  0.00  0.00    -0.648 OA
BRANCH   6   8
HETATM    8  O   UNK N   1      34.475  13.670  12.309  0.00  0.00    -0.775 OA
HETATM    9  H   UNK N   1      33.895  14.282  11.901  0.00  0.00     0.167 HD
ENDBRANCH   6   8
ENDBRANCH   2   6
ENDBRANCH   1   2
BRANCH   1  10
HETATM   10  C   UNK N   1      34.530  15.274   9.357  0.00  0.00     0.269 C 
HETATM   11  O   UNK N   1      33.523  15.376  10.041  0.00  0.00    -0.265 OA
BRANCH  10  12
HETATM   12  O   UNK N   1      34.806  16.196   8.393  0.00  0.00    -0.220 OA
BRANCH  12  13
HETATM   13  P   UNK N   1      34.055  17.755   8.314  0.00  0.00     0.398 P 
HETATM   14  O   UNK N   1      34.735  17.778   6.916  0.00  0.00    -0.631 OA
BRANCH  13  15
HETATM   15  O   UNK N   1      34.947  19.243   8.359  0.00  0.00    -0.307 OA
HETATM   16  H   UNK N   1      35.248  19.728   9.144  0.00  0.00     0.222 HD
ENDBRANCH  13  15
BRANCH  13  17
HETATM   17  O   UNK N   1      35.318  17.752   9.505  0.00  0.00    -0.307 OA
HETATM   18  H   UNK N   1      36.030  18.407   9.576  0.00  0.00     0.222 HD
ENDBRANCH  13  17
ENDBRANCH  12  13
ENDBRANCH  10  12
ENDBRANCH   1  10
TORSDOF 9
ENDMDL
MODEL 4
REMARK VINA RESULT:      -4.7     13.346     14.536
REMARK  9 active torsions:
REMARK  status: ('A' for Active; 'I' for Inactive)
REMARK    1  A    between atoms: C_2  and  N_1 
REMARK    2  A    between atoms: C_2  and  C_3 
REMARK    3  A    between atoms: C_2  and  C_11 
REMARK    4  A    between atoms: C_3  and  C_4 
REMARK    5  A    between atoms: C_4  and  O_6 
REMARK    6  A    between atoms: O_6  and  P_7 
REMARK    7  A    between atoms: P_7  and  O_8 
REMARK    8  A    between atoms: P_7  and  O_9 
REMARK    9  A    between atoms: C_11  and  O_12 
ROOT
HETATM    1  C   UNK N   1      21.663  12.669  10.631  0.00  0.00     0.147 C 
ENDROOT
BRANCH   1   2
HETATM    2  C   UNK N   1      23.086  12.135  10.464  0.00  0.00     0.182 C 
BRANCH   2   3
HETATM    3  N   UNK N   1      23.819  12.999   9.549  0.00  0.00    -0.417 N 
HETATM    4  H   UNK N   1      24.790  13.248   9.739  0.00  0.00     0.150 HD
HETATM    5  H   UNK N   1      23.358  13.359   8.714  0.00  0.00     0.150 HD
ENDBRANCH   2   3
BRANCH   2   6
HETATM    6  C   UNK N   1      23.795  12.058  11.785  0.00  0.00     0.163 C 
HETATM    7  O   UNK N   1      23.165  11.808  12.799  0.00  0.00    -0.648 OA
BRANCH   6   8
HETATM    8  O   UNK N   1      25.131  12.229  11.859  0.00  0.00    -0.775 OA
HETATM    9  H   UNK N   1      25.739  11.785  11.302  0.00  0.00     0.167 HD
ENDBRANCH   6   8
ENDBRANCH   2   6
ENDBRANCH   1   2
BRANCH   1  10
HETATM   10  C   UNK N   1      21.174  13.348   9.382  0.00  0.00     0.269 C 
HETATM   11  O   UNK N   1      20.916  12.686   8.388  0.00  0.00    -0.265 OA
BRANCH  10  12
HETATM   12  O   UNK N   1      21.052  14.705   9.358  0.00  0.00    -0.220 OA
BRANCH  12  13
HETATM   13  P   UNK N   1      20.026  15.556   8.252  0.00  0.00     0.398 P 
HETATM   14  O   UNK N   1      20.647  16.794   8.958  0.00  0.00    -0.631 OA
BRANCH  13  15
HETATM   15  O   UNK N   1      18.621  16.444   8.752  0.00  0.00    -0.307 OA
HETATM   16  H   UNK N   1      17.693  16.248   8.545  0.00  0.00     0.222 HD
ENDBRANCH  13  15
BRANCH  13  17
HETATM   17  O   UNK N   1      19.074  14.711   9.433  0.00  0.00    -0.307 OA
HETATM   18  H   UNK N   1      18.106  14.661   9.448  0.00  0.00     0.222 HD
ENDBRANCH  13  17
ENDBRANCH  12  13
ENDBRANCH  10  12
ENDBRANCH   1  10
TORSDOF 9
ENDMDL
MODEL 5
REMARK VINA RESULT:      -4.7      1.856      2.433
REMARK  9 active torsions:
REMARK  status: ('A' for Active; 'I' for Inactive)
REMARK    1  A    between atoms: C_2  and  N_1 
REMARK    2  A    between atoms: C_2  and  C_3 
REMARK    3  A    between atoms: C_2  and  C_11 
REMARK    4  A    between atoms: C_3  and  C_4 
REMARK    5  A    between atoms: C_4  and  O_6 
REMARK    6  A    between atoms: O_6  and  P_7 
REMARK    7  A    between atoms: P_7  and  O_8 
REMARK    8  A    between atoms: P_7  and  O_9 
REMARK    9  A    between atoms: C_11  and  O_12 
ROOT
HETATM    1  C   UNK N   1      32.792  15.634   7.520  0.00  0.00     0.147 C 
ENDROOT
BRANCH   1   2
HETATM    2  C   UNK N   1      32.556  17.144   7.502  0.00  0.00     0.182 C 
BRANCH   2   3
HETATM    3  N   UNK N   1      32.217  17.593   8.846  0.00  0.00    -0.417 N 
HETATM    4  H   UNK N   1      31.702  18.462   8.987  0.00  0.00     0.150 HD
HETATM    5  H   UNK N   1      32.498  17.035   9.652  0.00  0.00     0.150 HD
ENDBRANCH   2   3
BRANCH   2   6
HETATM    6  C   UNK N   1      33.766  17.878   7.000  0.00  0.00     0.163 C 
HETATM    7  O   UNK N   1      34.040  17.854   5.811  0.00  0.00    -0.648 OA
BRANCH   6   8
HETATM    8  O   UNK N   1      34.536  18.594   7.845  0.00  0.00    -0.775 OA
HETATM    9  H   UNK N   1      34.273  18.819   8.716  0.00  0.00     0.167 HD
ENDBRANCH   6   8
ENDBRANCH   2   6
ENDBRANCH   1   2
BRANCH   1  10
HETATM   10  C   UNK N   1      33.543  15.203   8.749  0.00  0.00     0.269 C 
HETATM   11  O   UNK N   1      33.085  14.326   9.467  0.00  0.00    -0.265 OA
BRANCH  10  12
HETATM   12  O   UNK N   1      34.716  15.816   9.070  0.00  0.00    -0.220 OA
BRANCH  12  13
HETATM   13  P   UNK N   1      35.314  15.953  10.690  0.00  0.00     0.398 P 
HETATM   14  O   UNK N   1      35.647  17.397  10.221  0.00  0.00    -0.631 OA
BRANCH  13  15
HETATM   15  O   UNK N   1      37.002  16.088  11.071  0.00  0.00    -0.307 OA
HETATM   16  H   UNK N   1      37.399  16.466  11.872  0.00  0.00     0.222 HD
ENDBRANCH  13  15
BRANCH  13  17
HETATM   17  O   UNK N   1      36.306  14.867   9.768  0.00  0.00    -0.307 OA
HETATM   18  H   UNK N   1      36.033  14.392   8.967  0.00  0.00     0.222 HD
ENDBRANCH  13  17
ENDBRANCH  12  13
ENDBRANCH  10  12
ENDBRANCH   1  10
TORSDOF 9
ENDMDL
MODEL 6
REMARK VINA RESULT:      -4.6      3.372      5.428
REMARK  9 active torsions:
REMARK  status: ('A' for Active; 'I' for Inactive)
REMARK    1  A    between atoms: C_2  and  N_1 
REMARK    2  A    between atoms: C_2  and  C_3 
REMARK    3  A    between atoms: C_2  and  C_11 
REMARK    4  A    between atoms: C_3  and  C_4 
REMARK    5  A    between atoms: C_4  and  O_6 
REMARK    6  A    between atoms: O_6  and  P_7 
REMARK    7  A    between atoms: P_7  and  O_8 
REMARK    8  A    between atoms: P_7  and  O_9 
REMARK    9  A    between atoms: C_11  and  O_12 
ROOT
HETATM    1  C   UNK N   1      35.334  12.907  11.317  0.00  0.00     0.147 C 
ENDROOT
BRANCH   1   2
HETATM    2  C   UNK N   1      36.392  12.897  12.420  0.00  0.00     0.182 C 
BRANCH   2   3
HETATM    3  N   UNK N   1      37.684  13.254  11.850  0.00  0.00    -0.417 N 
HETATM    4  H   UNK N   1      37.763  14.035  11.198  0.00  0.00     0.150 HD
HETATM    5  H   UNK N   1      38.514  12.720  12.103  0.00  0.00     0.150 HD
ENDBRANCH   2   3
BRANCH   2   6
HETATM    6  C   UNK N   1      36.033  13.846  13.527  0.00  0.00     0.163 C 
HETATM    7  O   UNK N   1      35.096  13.592  14.265  0.00  0.00    -0.648 OA
BRANCH   6   8
HETATM    8  O   UNK N   1      36.759  14.964  13.736  0.00  0.00    -0.775 OA
HETATM    9  H   UNK N   1      36.561  15.589  14.405  0.00  0.00     0.167 HD
ENDBRANCH   6   8
ENDBRANCH   2   6
ENDBRANCH   1   2
BRANCH   1  10
HETATM   10  C   UNK N   1      35.915  13.319   9.993  0.00  0.00     0.269 C 
HETATM   11  O   UNK N   1      36.226  12.468   9.172  0.00  0.00    -0.265 OA
BRANCH  10  12
HETATM   12  O   UNK N   1      36.119  14.639   9.729  0.00  0.00    -0.220 OA
BRANCH  12  13
HETATM   13  P   UNK N   1      35.142  15.911  10.384  0.00  0.00     0.398 P 
HETATM   14  O   UNK N   1      35.004  16.293   8.884  0.00  0.00    -0.631 OA
BRANCH  13  15
HETATM   15  O   UNK N   1      35.623  17.578  10.379  0.00  0.00    -0.307 OA
HETATM   16  H   UNK N   1      35.326  18.282  10.978  0.00  0.00     0.222 HD
ENDBRANCH  13  15
BRANCH  13  17
HETATM   17  O   UNK N   1      36.805  16.137  10.826  0.00  0.00    -0.307 OA
HETATM   18  H   UNK N   1      37.448  16.684  10.349  0.00  0.00     0.222 HD
ENDBRANCH  13  17
ENDBRANCH  12  13
ENDBRANCH  10  12
ENDBRANCH   1  10
TORSDOF 9
ENDMDL
MODEL 7
REMARK VINA RESULT:      -4.6      2.245      3.224
REMARK  9 active torsions:
REMARK  status: ('A' for Active; 'I' for Inactive)
REMARK    1  A    between atoms: C_2  and  N_1 
REMARK    2  A    between atoms: C_2  and  C_3 
REMARK    3  A    between atoms: C_2  and  C_11 
REMARK    4  A    between atoms: C_3  and  C_4 
REMARK    5  A    between atoms: C_4  and  O_6 
REMARK    6  A    between atoms: O_6  and  P_7 
REMARK    7  A    between atoms: P_7  and  O_8 
REMARK    8  A    between atoms: P_7  and  O_9 
REMARK    9  A    between atoms: C_11  and  O_12 
ROOT
HETATM    1  C   UNK N   1      35.386  14.083   9.566  0.00  0.00     0.147 C 
ENDROOT
BRANCH   1   2
HETATM    2  C   UNK N   1      34.673  15.361  10.006  0.00  0.00     0.182 C 
BRANCH   2   3
HETATM    3  N   UNK N   1      33.819  15.066  11.149  0.00  0.00    -0.417 N 
HETATM    4  H   UNK N   1      34.199  14.599  11.972  0.00  0.00     0.150 HD
HETATM    5  H   UNK N   1      32.833  15.327  11.124  0.00  0.00     0.150 HD
ENDBRANCH   2   3
BRANCH   2   6
HETATM    6  C   UNK N   1      35.657  16.439  10.359  0.00  0.00     0.163 C 
HETATM    7  O   UNK N   1      35.377  17.608  10.152  0.00  0.00    -0.648 OA
BRANCH   6   8
HETATM    8  O   UNK N   1      36.837  16.131  10.935  0.00  0.00    -0.775 OA
HETATM    9  H   UNK N   1      37.663  16.231  10.504  0.00  0.00     0.167 HD
ENDBRANCH   6   8
ENDBRANCH   2   6
ENDBRANCH   1   2
BRANCH   1  10
HETATM   10  C   UNK N   1      35.480  13.085  10.687  0.00  0.00     0.269 C 
HETATM   11  O   UNK N   1      34.690  12.154  10.742  0.00  0.00    -0.265 OA
BRANCH  10  12
HETATM   12  O   UNK N   1      36.428  13.244  11.652  0.00  0.00    -0.220 OA
BRANCH  12  13
HETATM   13  P   UNK N   1      36.120  13.029  13.343  0.00  0.00     0.398 P 
HETATM   14  O   UNK N   1      36.098  14.584  13.322  0.00  0.00    -0.631 OA
BRANCH  13  15
HETATM   15  O   UNK N   1      37.271  13.435  14.577  0.00  0.00    -0.307 OA
HETATM   16  H   UNK N   1      37.090  13.795  15.460  0.00  0.00     0.222 HD
ENDBRANCH  13  15
BRANCH  13  17
HETATM   17  O   UNK N   1      37.736  12.529  12.953  0.00  0.00    -0.307 OA
HETATM   18  H   UNK N   1      38.169  11.720  13.269  0.00  0.00     0.222 HD
ENDBRANCH  13  17
ENDBRANCH  12  13
ENDBRANCH  10  12
ENDBRANCH   1  10
TORSDOF 9
ENDMDL
MODEL 8
REMARK VINA RESULT:      -4.3      3.044      5.217
REMARK  9 active torsions:
REMARK  status: ('A' for Active; 'I' for Inactive)
REMARK    1  A    between atoms: C_2  and  N_1 
REMARK    2  A    between atoms: C_2  and  C_3 
REMARK    3  A    between atoms: C_2  and  C_11 
REMARK    4  A    between atoms: C_3  and  C_4 
REMARK    5  A    between atoms: C_4  and  O_6 
REMARK    6  A    between atoms: O_6  and  P_7 
REMARK    7  A    between atoms: P_7  and  O_8 
REMARK    8  A    between atoms: P_7  and  O_9 
REMARK    9  A    between atoms: C_11  and  O_12 
ROOT
HETATM    1  C   UNK N   1      34.267  15.990   7.861  0.00  0.00     0.147 C 
ENDROOT
BRANCH   1   2
HETATM    2  C   UNK N   1      34.697  15.886   9.325  0.00  0.00     0.182 C 
BRANCH   2   3
HETATM    3  N   UNK N   1      34.510  17.176   9.973  0.00  0.00    -0.417 N 
HETATM    4  H   UNK N   1      33.998  17.922   9.502  0.00  0.00     0.150 HD
HETATM    5  H   UNK N   1      34.894  17.335  10.904  0.00  0.00     0.150 HD
ENDBRANCH   2   3
BRANCH   2   6
HETATM    6  C   UNK N   1      33.917  14.825  10.046  0.00  0.00     0.163 C 
HETATM    7  O   UNK N   1      34.202  13.649   9.889  0.00  0.00    -0.648 OA
BRANCH   6   8
HETATM    8  O   UNK N   1      32.923  15.159  10.895  0.00  0.00    -0.775 OA
HETATM    9  H   UNK N   1      32.272  14.554  11.190  0.00  0.00     0.167 HD
ENDBRANCH   6   8
ENDBRANCH   2   6
ENDBRANCH   1   2
BRANCH   1  10
HETATM   10  C   UNK N   1      33.847  17.388   7.503  0.00  0.00     0.269 C 
HETATM   11  O   UNK N   1      34.685  18.206   7.152  0.00  0.00    -0.265 OA
BRANCH  10  12
HETATM   12  O   UNK N   1      32.536  17.743   7.603  0.00  0.00    -0.220 OA
BRANCH  12  13
HETATM   13  P   UNK N   1      31.251  16.607   7.847  0.00  0.00     0.398 P 
HETATM   14  O   UNK N   1      30.525  17.530   6.829  0.00  0.00    -0.631 OA
BRANCH  13  15
HETATM   15  O   UNK N   1      29.782  17.000   8.683  0.00  0.00    -0.307 OA
HETATM   16  H   UNK N   1      28.925  16.548   8.619  0.00  0.00     0.222 HD
ENDBRANCH  13  15
BRANCH  13  17
HETATM   17  O   UNK N   1      31.519  17.537   9.289  0.00  0.00    -0.307 OA
HETATM   18  H   UNK N   1      31.985  17.229  10.082  0.00  0.00     0.222 HD
ENDBRANCH  13  17
ENDBRANCH  12  13
ENDBRANCH  10  12
ENDBRANCH   1  10
TORSDOF 9
ENDMDL
MODEL 9
REMARK VINA RESULT:      -4.3      2.564      3.393
REMARK  9 active torsions:
REMARK  status: ('A' for Active; 'I' for Inactive)
REMARK    1  A    between atoms: C_2  and  N_1 
REMARK    2  A    between atoms: C_2  and  C_3 
REMARK    3  A    between atoms: C_2  and  C_11 
REMARK    4  A    between atoms: C_3  and  C_4 
REMARK    5  A    between atoms: C_4  and  O_6 
REMARK    6  A    between atoms: O_6  and  P_7 
REMARK    7  A    between atoms: P_7  and  O_8 
REMARK    8  A    between atoms: P_7  and  O_9 
REMARK    9  A    between atoms: C_11  and  O_12 
ROOT
HETATM    1  C   UNK N   1      33.157  17.601   6.687  0.00  0.00     0.147 C 
ENDROOT
BRANCH   1   2
HETATM    2  C   UNK N   1      31.812  16.877   6.760  0.00  0.00     0.182 C 
BRANCH   2   3
HETATM    3  N   UNK N   1      32.043  15.456   6.979  0.00  0.00    -0.417 N 
HETATM    4  H   UNK N   1      32.547  15.135   7.805  0.00  0.00     0.150 HD
HETATM    5  H   UNK N   1      31.699  14.777   6.300  0.00  0.00     0.150 HD
ENDBRANCH   2   3
BRANCH   2   6
HETATM    6  C   UNK N   1      30.952  17.438   7.856  0.00  0.00     0.163 C 
HETATM    7  O   UNK N   1      29.808  17.785   7.613  0.00  0.00    -0.648 OA
BRANCH   6   8
HETATM    8  O   UNK N   1      31.420  17.530   9.118  0.00  0.00    -0.775 OA
HETATM    9  H   UNK N   1      32.307  17.340   9.354  0.00  0.00     0.167 HD
ENDBRANCH   6   8
ENDBRANCH   2   6
ENDBRANCH   1   2
BRANCH   1  10
HETATM   10  C   UNK N   1      34.236  16.842   7.406  0.00  0.00     0.269 C 
HETATM   11  O   UNK N   1      35.031  16.163   6.773  0.00  0.00    -0.265 OA
BRANCH  10  12
HETATM   12  O   UNK N   1      34.302  16.893   8.766  0.00  0.00    -0.220 OA
BRANCH  12  13
HETATM   13  P   UNK N   1      34.669  15.523   9.760  0.00  0.00     0.398 P 
HETATM   14  O   UNK N   1      33.157  15.231   9.551  0.00  0.00    -0.631 OA
BRANCH  13  15
HETATM   15  O   UNK N   1      34.095  15.350  11.389  0.00  0.00    -0.307 OA
HETATM   16  H   UNK N   1      34.253  15.947  12.138  0.00  0.00     0.222 HD
ENDBRANCH  13  15
BRANCH  13  17
HETATM   17  O   UNK N   1      34.791  16.990  10.681  0.00  0.00    -0.307 OA
HETATM   18  H   UNK N   1      35.587  17.307  11.136  0.00  0.00     0.222 HD
ENDBRANCH  13  17
ENDBRANCH  12  13
ENDBRANCH  10  12
ENDBRANCH   1  10
TORSDOF 9
ENDMDL
