MODEL 1
REMARK VINA RESULT:      -5.5      0.000      0.000
REMARK  22 active torsions:
REMARK  status: ('A' for Active; 'I' for Inactive)
REMARK    1  A    between atoms: C_6  and  C_5 
REMARK    2  A    between atoms: C_7  and  C_6 
REMARK    3  A    between atoms: C_8  and  C_7 
REMARK    4  A    between atoms: C_9  and  C_8 
REMARK    5  A    between atoms: C_10  and  C_9 
REMARK    6  A    between atoms: C_11  and  C_10 
REMARK    7  A    between atoms: C_12  and  C_11 
REMARK    8  A    between atoms: C_13  and  C_12 
REMARK    9  A    between atoms: C_14  and  C_13 
REMARK   10  A    between atoms: C_20  and  C_14 
REMARK   11  A    between atoms: C_16  and  C_15 
REMARK   12  A    between atoms: N_21  and  C_15 
REMARK   13  A    between atoms: O_27  and  C_16 
REMARK   14  A    between atoms: C_19  and  C_17 
REMARK   15  A    between atoms: O_26  and  C_17 
REMARK   16  A    between atoms: C_19  and  C_18 
REMARK   17  A    between atoms: O_28  and  C_18 
REMARK   18  A    between atoms: O_22  and  C_19 
REMARK   19  A    between atoms: O_26  and  C_20 
REMARK   20  A    between atoms: P_29  and  O_25 
REMARK   21  A    between atoms: P_29  and  O_27 
REMARK   22  A    between atoms: P_29  and  O_28 
ROOT
HETATM    1  C   UNK N   1      34.576  15.360  11.273  0.00  0.00     0.166 C 
ENDROOT
BRANCH   1   2
HETATM    2  C   UNK N   1      35.143  14.098  11.892  0.00  0.00     0.212 C 
BRANCH   2   3
HETATM    3  O   UNK N   1      36.433  13.903  11.452  0.00  0.00    -0.319 OA
BRANCH   3   4
HETATM    4  C   UNK N   1      37.198  12.850  11.846  0.00  0.00     0.258 C 
HETATM    5  O   UNK N   1      38.195  12.565  11.208  0.00  0.00    -0.265 OA
BRANCH   4   6
HETATM    6  C   UNK N   1      36.851  12.040  13.069  0.00  0.00     0.111 C 
BRANCH   6   7
HETATM    7  C   UNK N   1      36.987  10.548  12.778  0.00  0.00     0.010 C 
BRANCH   7   8
HETATM    8  C   UNK N   1      35.738   9.736  13.088  0.00  0.00     0.000 C 
BRANCH   8   9
HETATM    9  C   UNK N   1      34.538  10.607  13.407  0.00  0.00     0.000 C 
BRANCH   9  10
HETATM   10  C   UNK N   1      34.190  10.401  14.870  0.00  0.00     0.000 C 
BRANCH  10  11
HETATM   11  C   UNK N   1      35.044   9.302  15.479  0.00  0.00     0.000 C 
BRANCH  11  12
HETATM   12  C   UNK N   1      35.564   9.703  16.849  0.00  0.00     0.000 C 
BRANCH  12  13
HETATM   13  C   UNK N   1      36.075  11.126  16.798  0.00  0.00     0.000 C 
BRANCH  13  14
HETATM   14  C   UNK N   1      35.396  11.951  17.869  0.00  0.00    -0.000 C 
BRANCH  14  15
HETATM   15  C   UNK N   1      34.961  13.271  17.273  0.00  0.00    -0.005 C 
HETATM   16  C   UNK N   1      35.278  14.389  18.241  0.00  0.00     0.005 C 
ENDBRANCH  14  15
ENDBRANCH  13  14
ENDBRANCH  12  13
ENDBRANCH  11  12
ENDBRANCH  10  11
ENDBRANCH   9  10
ENDBRANCH   8   9
ENDBRANCH   7   8
ENDBRANCH   6   7
ENDBRANCH   4   6
ENDBRANCH   3   4
ENDBRANCH   2   3
ENDBRANCH   1   2
BRANCH   1  17
HETATM   17  C   UNK N   1      35.311  15.740   9.989  0.00  0.00     0.214 C 
BRANCH  17  18
HETATM   18  O   UNK N   1      35.445  17.130   9.854  0.00  0.00    -0.294 OA
BRANCH  18  19
HETATM   19  P   UNK N   1      34.402  17.642   8.550  0.00  0.00     0.393 P 
HETATM   20  O   UNK N   1      34.755  19.126   8.266  0.00  0.00    -0.631 OA
BRANCH  19  21
HETATM   21  O   UNK N   1      32.713  17.624   8.977  0.00  0.00    -0.307 OA
HETATM   22  H   UNK N   1      31.830  17.913   8.699  0.00  0.00     0.222 HD
ENDBRANCH  19  21
BRANCH  19  23
HETATM   23  O   UNK N   1      34.736  16.774   7.079  0.00  0.00    -0.295 OA
BRANCH  23  24
HETATM   24  C   UNK N   1      33.903  17.340   6.116  0.00  0.00     0.208 C 
BRANCH  24  25
HETATM   25  C   UNK N   1      33.668  16.342   4.983  0.00  0.00     0.262 C 
BRANCH  25  26
HETATM   26  N   UNK N   1      32.290  16.360   4.490  0.00  0.00    -0.077 N 
HETATM   27  C   UNK N   1      31.486  17.130   5.421  0.00  0.00     0.271 C 
HETATM   28  C   UNK N   1      31.736  15.016   4.411  0.00  0.00     0.271 C 
HETATM   29  C   UNK N   1      32.214  16.999   3.185  0.00  0.00     0.271 C 
ENDBRANCH  25  26
ENDBRANCH  24  25
ENDBRANCH  23  24
ENDBRANCH  19  23
ENDBRANCH  18  19
ENDBRANCH  17  18
ENDBRANCH   1  17
BRANCH   1  30
HETATM   30  O   UNK N   1      33.220  15.183  11.004  0.00  0.00    -0.391 OA
HETATM   31  H   UNK N   1      32.722  14.484  11.459  0.00  0.00     0.210 HD
ENDBRANCH   1  30
TORSDOF 22
ENDMDL
MODEL 2
REMARK VINA RESULT:      -5.5      1.466      2.089
REMARK  22 active torsions:
REMARK  status: ('A' for Active; 'I' for Inactive)
REMARK    1  A    between atoms: C_6  and  C_5 
REMARK    2  A    between atoms: C_7  and  C_6 
REMARK    3  A    between atoms: C_8  and  C_7 
REMARK    4  A    between atoms: C_9  and  C_8 
REMARK    5  A    between atoms: C_10  and  C_9 
REMARK    6  A    between atoms: C_11  and  C_10 
REMARK    7  A    between atoms: C_12  and  C_11 
REMARK    8  A    between atoms: C_13  and  C_12 
REMARK    9  A    between atoms: C_14  and  C_13 
REMARK   10  A    between atoms: C_20  and  C_14 
REMARK   11  A    between atoms: C_16  and  C_15 
REMARK   12  A    between atoms: N_21  and  C_15 
REMARK   13  A    between atoms: O_27  and  C_16 
REMARK   14  A    between atoms: C_19  and  C_17 
REMARK   15  A    between atoms: O_26  and  C_17 
REMARK   16  A    between atoms: C_19  and  C_18 
REMARK   17  A    between atoms: O_28  and  C_18 
REMARK   18  A    between atoms: O_22  and  C_19 
REMARK   19  A    between atoms: O_26  and  C_20 
REMARK   20  A    between atoms: P_29  and  O_25 
REMARK   21  A    between atoms: P_29  and  O_27 
REMARK   22  A    between atoms: P_29  and  O_28 
ROOT
HETATM    1  C   UNK N   1      35.783  15.460  10.391  0.00  0.00     0.166 C 
ENDROOT
BRANCH   1   2
HETATM    2  C   UNK N   1      35.079  14.607  11.427  0.00  0.00     0.212 C 
BRANCH   2   3
HETATM    3  O   UNK N   1      35.994  13.799  12.064  0.00  0.00    -0.319 OA
BRANCH   3   4
HETATM    4  C   UNK N   1      36.196  13.829  13.409  0.00  0.00     0.258 C 
HETATM    5  O   UNK N   1      36.567  14.863  13.935  0.00  0.00    -0.265 OA
BRANCH   4   6
HETATM    6  C   UNK N   1      35.953  12.614  14.268  0.00  0.00     0.111 C 
BRANCH   6   7
HETATM    7  C   UNK N   1      34.711  11.864  13.795  0.00  0.00     0.010 C 
BRANCH   7   8
HETATM    8  C   UNK N   1      34.140  10.895  14.820  0.00  0.00     0.000 C 
BRANCH   8   9
HETATM    9  C   UNK N   1      34.860   9.560  14.826  0.00  0.00     0.000 C 
BRANCH   9  10
HETATM   10  C   UNK N   1      35.496   9.382  16.193  0.00  0.00     0.000 C 
BRANCH  10  11
HETATM   11  C   UNK N   1      34.882  10.336  17.204  0.00  0.00     0.000 C 
BRANCH  11  12
HETATM   12  C   UNK N   1      35.935  11.247  17.812  0.00  0.00     0.000 C 
BRANCH  12  13
HETATM   13  C   UNK N   1      35.266  12.262  18.712  0.00  0.00     0.000 C 
BRANCH  13  14
HETATM   14  C   UNK N   1      34.899  13.492  17.911  0.00  0.00    -0.000 C 
BRANCH  14  15
HETATM   15  C   UNK N   1      36.165  14.137  17.392  0.00  0.00    -0.005 C 
HETATM   16  C   UNK N   1      36.233  15.569  17.875  0.00  0.00     0.005 C 
ENDBRANCH  14  15
ENDBRANCH  13  14
ENDBRANCH  12  13
ENDBRANCH  11  12
ENDBRANCH  10  11
ENDBRANCH   9  10
ENDBRANCH   8   9
ENDBRANCH   7   8
ENDBRANCH   6   7
ENDBRANCH   4   6
ENDBRANCH   3   4
ENDBRANCH   2   3
ENDBRANCH   1   2
BRANCH   1  17
HETATM   17  C   UNK N   1      34.835  16.475   9.755  0.00  0.00     0.214 C 
BRANCH  17  18
HETATM   18  O   UNK N   1      34.915  16.461   8.354  0.00  0.00    -0.294 OA
BRANCH  18  19
HETATM   19  P   UNK N   1      34.141  17.909   7.762  0.00  0.00     0.393 P 
HETATM   20  O   UNK N   1      35.024  19.097   8.225  0.00  0.00    -0.631 OA
BRANCH  19  21
HETATM   21  O   UNK N   1      32.568  18.181   8.461  0.00  0.00    -0.307 OA
HETATM   22  H   UNK N   1      31.957  18.864   8.778  0.00  0.00     0.222 HD
ENDBRANCH  19  21
BRANCH  19  23
HETATM   23  O   UNK N   1      34.125  17.966   6.022  0.00  0.00    -0.295 OA
BRANCH  23  24
HETATM   24  C   UNK N   1      33.926  16.650   5.608  0.00  0.00     0.208 C 
BRANCH  24  25
HETATM   25  C   UNK N   1      32.478  16.461   5.160  0.00  0.00     0.262 C 
BRANCH  25  26
HETATM   26  N   UNK N   1      31.961  15.126   5.465  0.00  0.00    -0.077 N 
HETATM   27  C   UNK N   1      32.826  14.150   4.832  0.00  0.00     0.271 C 
HETATM   28  C   UNK N   1      30.613  14.948   4.946  0.00  0.00     0.271 C 
HETATM   29  C   UNK N   1      31.970  14.882   6.900  0.00  0.00     0.271 C 
ENDBRANCH  25  26
ENDBRANCH  24  25
ENDBRANCH  23  24
ENDBRANCH  19  23
ENDBRANCH  18  19
ENDBRANCH  17  18
ENDBRANCH   1  17
BRANCH   1  30
HETATM   30  O   UNK N   1      36.857  16.123  10.980  0.00  0.00    -0.391 OA
HETATM   31  H   UNK N   1      37.121  15.907  11.889  0.00  0.00     0.210 HD
ENDBRANCH   1  30
TORSDOF 22
ENDMDL
MODEL 3
REMARK VINA RESULT:      -5.4      3.760      9.233
REMARK  22 active torsions:
REMARK  status: ('A' for Active; 'I' for Inactive)
REMARK    1  A    between atoms: C_6  and  C_5 
REMARK    2  A    between atoms: C_7  and  C_6 
REMARK    3  A    between atoms: C_8  and  C_7 
REMARK    4  A    between atoms: C_9  and  C_8 
REMARK    5  A    between atoms: C_10  and  C_9 
REMARK    6  A    between atoms: C_11  and  C_10 
REMARK    7  A    between atoms: C_12  and  C_11 
REMARK    8  A    between atoms: C_13  and  C_12 
REMARK    9  A    between atoms: C_14  and  C_13 
REMARK   10  A    between atoms: C_20  and  C_14 
REMARK   11  A    between atoms: C_16  and  C_15 
REMARK   12  A    between atoms: N_21  and  C_15 
REMARK   13  A    between atoms: O_27  and  C_16 
REMARK   14  A    between atoms: C_19  and  C_17 
REMARK   15  A    between atoms: O_26  and  C_17 
REMARK   16  A    between atoms: C_19  and  C_18 
REMARK   17  A    between atoms: O_28  and  C_18 
REMARK   18  A    between atoms: O_22  and  C_19 
REMARK   19  A    between atoms: O_26  and  C_20 
REMARK   20  A    between atoms: P_29  and  O_25 
REMARK   21  A    between atoms: P_29  and  O_27 
REMARK   22  A    between atoms: P_29  and  O_28 
ROOT
HETATM    1  C   UNK N   1      34.233  15.023  10.424  0.00  0.00     0.166 C 
ENDROOT
BRANCH   1   2
HETATM    2  C   UNK N   1      34.118  15.806   9.132  0.00  0.00     0.212 C 
BRANCH   2   3
HETATM    3  O   UNK N   1      34.694  17.048   9.288  0.00  0.00    -0.319 OA
BRANCH   3   4
HETATM    4  C   UNK N   1      34.469  18.080   8.432  0.00  0.00     0.258 C 
HETATM    5  O   UNK N   1      35.241  19.022   8.417  0.00  0.00    -0.265 OA
BRANCH   4   6
HETATM    6  C   UNK N   1      33.295  18.077   7.486  0.00  0.00     0.111 C 
BRANCH   6   7
HETATM    7  C   UNK N   1      33.728  17.613   6.098  0.00  0.00     0.010 C 
BRANCH   7   8
HETATM    8  C   UNK N   1      32.583  17.148   5.212  0.00  0.00     0.000 C 
BRANCH   8   9
HETATM    9  C   UNK N   1      31.287  16.961   5.978  0.00  0.00     0.000 C 
BRANCH   9  10
HETATM   10  C   UNK N   1      30.162  16.840   4.966  0.00  0.00     0.000 C 
BRANCH  10  11
HETATM   11  C   UNK N   1      29.278  18.074   4.992  0.00  0.00     0.000 C 
BRANCH  11  12
HETATM   12  C   UNK N   1      28.002  17.823   5.779  0.00  0.00     0.000 C 
BRANCH  12  13
HETATM   13  C   UNK N   1      28.099  18.503   7.126  0.00  0.00     0.000 C 
BRANCH  13  14
HETATM   14  C   UNK N   1      28.171  17.461   8.221  0.00  0.00    -0.000 C 
BRANCH  14  15
HETATM   15  C   UNK N   1      28.727  18.099   9.474  0.00  0.00    -0.005 C 
HETATM   16  C   UNK N   1      30.092  18.682   9.178  0.00  0.00     0.005 C 
ENDBRANCH  14  15
ENDBRANCH  13  14
ENDBRANCH  12  13
ENDBRANCH  11  12
ENDBRANCH  10  11
ENDBRANCH   9  10
ENDBRANCH   8   9
ENDBRANCH   7   8
ENDBRANCH   6   7
ENDBRANCH   4   6
ENDBRANCH   3   4
ENDBRANCH   2   3
ENDBRANCH   1   2
BRANCH   1  17
HETATM   17  C   UNK N   1      35.276  15.627  11.362  0.00  0.00     0.214 C 
BRANCH  17  18
HETATM   18  O   UNK N   1      36.419  14.820  11.464  0.00  0.00    -0.294 OA
BRANCH  18  19
HETATM   19  P   UNK N   1      36.293  13.905  12.946  0.00  0.00     0.393 P 
HETATM   20  O   UNK N   1      34.777  13.738  13.229  0.00  0.00    -0.631 OA
BRANCH  19  21
HETATM   21  O   UNK N   1      36.948  14.742  14.327  0.00  0.00    -0.307 OA
HETATM   22  H   UNK N   1      36.718  15.278  15.102  0.00  0.00     0.222 HD
ENDBRANCH  19  21
BRANCH  19  23
HETATM   23  O   UNK N   1      36.933  12.296  12.767  0.00  0.00    -0.295 OA
BRANCH  23  24
HETATM   24  C   UNK N   1      36.649  11.927  11.453  0.00  0.00     0.208 C 
BRANCH  24  25
HETATM   25  C   UNK N   1      37.948  11.619  10.710  0.00  0.00     0.262 C 
BRANCH  25  26
HETATM   26  N   UNK N   1      37.951  12.134   9.340  0.00  0.00    -0.077 N 
HETATM   27  C   UNK N   1      38.762  13.336   9.310  0.00  0.00     0.271 C 
HETATM   28  C   UNK N   1      36.607  12.480   8.899  0.00  0.00     0.271 C 
HETATM   29  C   UNK N   1      38.533  11.166   8.422  0.00  0.00     0.271 C 
ENDBRANCH  25  26
ENDBRANCH  24  25
ENDBRANCH  23  24
ENDBRANCH  19  23
ENDBRANCH  18  19
ENDBRANCH  17  18
ENDBRANCH   1  17
BRANCH   1  30
HETATM   30  O   UNK N   1      32.994  14.983  11.060  0.00  0.00    -0.391 OA
HETATM   31  H   UNK N   1      32.836  14.346  11.776  0.00  0.00     0.210 HD
ENDBRANCH   1  30
TORSDOF 22
ENDMDL
MODEL 4
REMARK VINA RESULT:      -5.4      1.413      2.611
REMARK  22 active torsions:
REMARK  status: ('A' for Active; 'I' for Inactive)
REMARK    1  A    between atoms: C_6  and  C_5 
REMARK    2  A    between atoms: C_7  and  C_6 
REMARK    3  A    between atoms: C_8  and  C_7 
REMARK    4  A    between atoms: C_9  and  C_8 
REMARK    5  A    between atoms: C_10  and  C_9 
REMARK    6  A    between atoms: C_11  and  C_10 
REMARK    7  A    between atoms: C_12  and  C_11 
REMARK    8  A    between atoms: C_13  and  C_12 
REMARK    9  A    between atoms: C_14  and  C_13 
REMARK   10  A    between atoms: C_20  and  C_14 
REMARK   11  A    between atoms: C_16  and  C_15 
REMARK   12  A    between atoms: N_21  and  C_15 
REMARK   13  A    between atoms: O_27  and  C_16 
REMARK   14  A    between atoms: C_19  and  C_17 
REMARK   15  A    between atoms: O_26  and  C_17 
REMARK   16  A    between atoms: C_19  and  C_18 
REMARK   17  A    between atoms: O_28  and  C_18 
REMARK   18  A    between atoms: O_22  and  C_19 
REMARK   19  A    between atoms: O_26  and  C_20 
REMARK   20  A    between atoms: P_29  and  O_25 
REMARK   21  A    between atoms: P_29  and  O_27 
REMARK   22  A    between atoms: P_29  and  O_28 
ROOT
HETATM    1  C   UNK N   1      34.302  15.221  10.707  0.00  0.00     0.166 C 
ENDROOT
BRANCH   1   2
HETATM    2  C   UNK N   1      34.965  14.001  10.099  0.00  0.00     0.212 C 
BRANCH   2   3
HETATM    3  O   UNK N   1      34.675  12.888  10.856  0.00  0.00    -0.319 OA
BRANCH   3   4
HETATM    4  C   UNK N   1      35.496  12.424  11.835  0.00  0.00     0.258 C 
HETATM    5  O   UNK N   1      36.603  12.009  11.541  0.00  0.00    -0.265 OA
BRANCH   4   6
HETATM    6  C   UNK N   1      35.075  12.430  13.283  0.00  0.00     0.111 C 
BRANCH   6   7
HETATM    7  C   UNK N   1      35.637  13.655  13.999  0.00  0.00     0.010 C 
BRANCH   7   8
HETATM    8  C   UNK N   1      36.548  13.327  15.172  0.00  0.00     0.000 C 
BRANCH   8   9
HETATM    9  C   UNK N   1      36.000  13.825  16.496  0.00  0.00     0.000 C 
BRANCH   9  10
HETATM   10  C   UNK N   1      34.962  12.826  16.974  0.00  0.00     0.000 C 
BRANCH  10  11
HETATM   11  C   UNK N   1      35.561  11.434  17.082  0.00  0.00     0.000 C 
BRANCH  11  12
HETATM   12  C   UNK N   1      34.648  10.392  16.458  0.00  0.00     0.000 C 
BRANCH  12  13
HETATM   13  C   UNK N   1      35.471   9.435  15.624  0.00  0.00     0.000 C 
BRANCH  13  14
HETATM   14  C   UNK N   1      36.925   9.522  16.033  0.00  0.00    -0.000 C 
BRANCH  14  15
HETATM   15  C   UNK N   1      37.794   9.245  14.827  0.00  0.00    -0.005 C 
HETATM   16  C   UNK N   1      38.464  10.526  14.384  0.00  0.00     0.005 C 
ENDBRANCH  14  15
ENDBRANCH  13  14
ENDBRANCH  12  13
ENDBRANCH  11  12
ENDBRANCH  10  11
ENDBRANCH   9  10
ENDBRANCH   8   9
ENDBRANCH   7   8
ENDBRANCH   6   7
ENDBRANCH   4   6
ENDBRANCH   3   4
ENDBRANCH   2   3
ENDBRANCH   1   2
BRANCH   1  17
HETATM   17  C   UNK N   1      34.930  16.518  10.200  0.00  0.00     0.214 C 
BRANCH  17  18
HETATM   18  O   UNK N   1      35.134  16.494   8.813  0.00  0.00    -0.294 OA
BRANCH  18  19
HETATM   19  P   UNK N   1      34.236  17.821   8.119  0.00  0.00     0.393 P 
HETATM   20  O   UNK N   1      34.983  19.116   8.533  0.00  0.00    -0.631 OA
BRANCH  19  21
HETATM   21  O   UNK N   1      32.625  17.971   8.765  0.00  0.00    -0.307 OA
HETATM   22  H   UNK N   1      32.009  18.577   9.206  0.00  0.00     0.222 HD
ENDBRANCH  19  21
BRANCH  19  23
HETATM   23  O   UNK N   1      34.265  17.780   6.379  0.00  0.00    -0.295 OA
BRANCH  23  24
HETATM   24  C   UNK N   1      34.000  16.456   6.034  0.00  0.00     0.208 C 
BRANCH  24  25
HETATM   25  C   UNK N   1      32.593  16.345   5.448  0.00  0.00     0.262 C 
BRANCH  25  26
HETATM   26  N   UNK N   1      32.588  15.801   4.089  0.00  0.00    -0.077 N 
HETATM   27  C   UNK N   1      32.517  16.911   3.158  0.00  0.00     0.271 C 
HETATM   28  C   UNK N   1      31.434  14.943   3.866  0.00  0.00     0.271 C 
HETATM   29  C   UNK N   1      33.810  15.058   3.823  0.00  0.00     0.271 C 
ENDBRANCH  25  26
ENDBRANCH  24  25
ENDBRANCH  23  24
ENDBRANCH  19  23
ENDBRANCH  18  19
ENDBRANCH  17  18
ENDBRANCH   1  17
BRANCH   1  30
HETATM   30  O   UNK N   1      32.940  15.210  10.414  0.00  0.00    -0.391 OA
HETATM   31  H   UNK N   1      32.605  14.663   9.685  0.00  0.00     0.210 HD
ENDBRANCH   1  30
TORSDOF 22
ENDMDL
MODEL 5
REMARK VINA RESULT:      -5.4      3.099      9.442
REMARK  22 active torsions:
REMARK  status: ('A' for Active; 'I' for Inactive)
REMARK    1  A    between atoms: C_6  and  C_5 
REMARK    2  A    between atoms: C_7  and  C_6 
REMARK    3  A    between atoms: C_8  and  C_7 
REMARK    4  A    between atoms: C_9  and  C_8 
REMARK    5  A    between atoms: C_10  and  C_9 
REMARK    6  A    between atoms: C_11  and  C_10 
REMARK    7  A    between atoms: C_12  and  C_11 
REMARK    8  A    between atoms: C_13  and  C_12 
REMARK    9  A    between atoms: C_14  and  C_13 
REMARK   10  A    between atoms: C_20  and  C_14 
REMARK   11  A    between atoms: C_16  and  C_15 
REMARK   12  A    between atoms: N_21  and  C_15 
REMARK   13  A    between atoms: O_27  and  C_16 
REMARK   14  A    between atoms: C_19  and  C_17 
REMARK   15  A    between atoms: O_26  and  C_17 
REMARK   16  A    between atoms: C_19  and  C_18 
REMARK   17  A    between atoms: O_28  and  C_18 
REMARK   18  A    between atoms: O_22  and  C_19 
REMARK   19  A    between atoms: O_26  and  C_20 
REMARK   20  A    between atoms: P_29  and  O_25 
REMARK   21  A    between atoms: P_29  and  O_27 
REMARK   22  A    between atoms: P_29  and  O_28 
ROOT
HETATM    1  C   UNK N   1      34.661  15.268  10.611  0.00  0.00     0.166 C 
ENDROOT
BRANCH   1   2
HETATM    2  C   UNK N   1      34.923  16.725  10.287  0.00  0.00     0.212 C 
BRANCH   2   3
HETATM    3  O   UNK N   1      34.997  16.891   8.922  0.00  0.00    -0.319 OA
BRANCH   3   4
HETATM    4  C   UNK N   1      34.627  18.040   8.295  0.00  0.00     0.258 C 
HETATM    5  O   UNK N   1      35.256  19.062   8.501  0.00  0.00    -0.265 OA
BRANCH   4   6
HETATM    6  C   UNK N   1      33.465  18.073   7.334  0.00  0.00     0.111 C 
BRANCH   6   7
HETATM    7  C   UNK N   1      33.766  17.225   6.102  0.00  0.00     0.010 C 
BRANCH   7   8
HETATM    8  C   UNK N   1      33.146  17.752   4.817  0.00  0.00     0.000 C 
BRANCH   8   9
HETATM    9  C   UNK N   1      32.629  16.644   3.919  0.00  0.00     0.000 C 
BRANCH   9  10
HETATM   10  C   UNK N   1      31.275  16.208   4.450  0.00  0.00     0.000 C 
BRANCH  10  11
HETATM   11  C   UNK N   1      30.314  17.383   4.507  0.00  0.00     0.000 C 
BRANCH  11  12
HETATM   12  C   UNK N   1      29.699  17.524   5.889  0.00  0.00     0.000 C 
BRANCH  12  13
HETATM   13  C   UNK N   1      30.169  16.388   6.769  0.00  0.00     0.000 C 
BRANCH  13  14
HETATM   14  C   UNK N   1      30.170  16.830   8.217  0.00  0.00    -0.000 C 
BRANCH  14  15
HETATM   15  C   UNK N   1      29.551  18.206   8.312  0.00  0.00    -0.005 C 
HETATM   16  C   UNK N   1      29.823  18.786   9.682  0.00  0.00     0.005 C 
ENDBRANCH  14  15
ENDBRANCH  13  14
ENDBRANCH  12  13
ENDBRANCH  11  12
ENDBRANCH  10  11
ENDBRANCH   9  10
ENDBRANCH   8   9
ENDBRANCH   7   8
ENDBRANCH   6   7
ENDBRANCH   4   6
ENDBRANCH   3   4
ENDBRANCH   2   3
ENDBRANCH   1   2
BRANCH   1  17
HETATM   17  C   UNK N   1      35.634  14.739  11.664  0.00  0.00     0.214 C 
BRANCH  17  18
HETATM   18  O   UNK N   1      34.967  14.282  12.811  0.00  0.00    -0.294 OA
BRANCH  18  19
HETATM   19  P   UNK N   1      36.102  13.342  13.747  0.00  0.00     0.393 P 
HETATM   20  O   UNK N   1      36.676  14.298  14.826  0.00  0.00    -0.631 OA
BRANCH  19  21
HETATM   21  O   UNK N   1      37.470  12.793  12.817  0.00  0.00    -0.307 OA
HETATM   22  H   UNK N   1      38.359  12.411  12.879  0.00  0.00     0.222 HD
ENDBRANCH  19  21
BRANCH  19  23
HETATM   23  O   UNK N   1      35.313  12.053  14.611  0.00  0.00    -0.295 OA
BRANCH  23  24
HETATM   24  C   UNK N   1      35.519  10.909  13.843  0.00  0.00     0.208 C 
BRANCH  24  25
HETATM   25  C   UNK N   1      34.303  10.656  12.953  0.00  0.00     0.262 C 
BRANCH  25  26
HETATM   26  N   UNK N   1      34.670  10.216  11.606  0.00  0.00    -0.077 N 
HETATM   27  C   UNK N   1      34.558  11.353  10.713  0.00  0.00     0.271 C 
HETATM   28  C   UNK N   1      33.777   9.170  11.128  0.00  0.00     0.271 C 
HETATM   29  C   UNK N   1      36.045   9.741  11.571  0.00  0.00     0.271 C 
ENDBRANCH  25  26
ENDBRANCH  24  25
ENDBRANCH  23  24
ENDBRANCH  19  23
ENDBRANCH  18  19
ENDBRANCH  17  18
ENDBRANCH   1  17
BRANCH   1  30
HETATM   30  O   UNK N   1      33.351  15.116  11.062  0.00  0.00    -0.391 OA
HETATM   31  H   UNK N   1      33.179  14.929  11.998  0.00  0.00     0.210 HD
ENDBRANCH   1  30
TORSDOF 22
ENDMDL
MODEL 6
REMARK VINA RESULT:      -5.4      3.619     10.258
REMARK  22 active torsions:
REMARK  status: ('A' for Active; 'I' for Inactive)
REMARK    1  A    between atoms: C_6  and  C_5 
REMARK    2  A    between atoms: C_7  and  C_6 
REMARK    3  A    between atoms: C_8  and  C_7 
REMARK    4  A    between atoms: C_9  and  C_8 
REMARK    5  A    between atoms: C_10  and  C_9 
REMARK    6  A    between atoms: C_11  and  C_10 
REMARK    7  A    between atoms: C_12  and  C_11 
REMARK    8  A    between atoms: C_13  and  C_12 
REMARK    9  A    between atoms: C_14  and  C_13 
REMARK   10  A    between atoms: C_20  and  C_14 
REMARK   11  A    between atoms: C_16  and  C_15 
REMARK   12  A    between atoms: N_21  and  C_15 
REMARK   13  A    between atoms: O_27  and  C_16 
REMARK   14  A    between atoms: C_19  and  C_17 
REMARK   15  A    between atoms: O_26  and  C_17 
REMARK   16  A    between atoms: C_19  and  C_18 
REMARK   17  A    between atoms: O_28  and  C_18 
REMARK   18  A    between atoms: O_22  and  C_19 
REMARK   19  A    between atoms: O_26  and  C_20 
REMARK   20  A    between atoms: P_29  and  O_25 
REMARK   21  A    between atoms: P_29  and  O_27 
REMARK   22  A    between atoms: P_29  and  O_28 
ROOT
HETATM    1  C   UNK N   1      34.693  15.221  10.386  0.00  0.00     0.166 C 
ENDROOT
BRANCH   1   2
HETATM    2  C   UNK N   1      35.149  16.654  10.202  0.00  0.00     0.212 C 
BRANCH   2   3
HETATM    3  O   UNK N   1      34.181  17.369   9.532  0.00  0.00    -0.319 OA
BRANCH   3   4
HETATM    4  C   UNK N   1      34.453  18.152   8.455  0.00  0.00     0.258 C 
HETATM    5  O   UNK N   1      35.311  19.012   8.542  0.00  0.00    -0.265 OA
BRANCH   4   6
HETATM    6  C   UNK N   1      33.728  17.968   7.145  0.00  0.00     0.111 C 
BRANCH   6   7
HETATM    7  C   UNK N   1      34.101  16.631   6.511  0.00  0.00     0.010 C 
BRANCH   7   8
HETATM    8  C   UNK N   1      33.667  16.487   5.061  0.00  0.00     0.000 C 
BRANCH   8   9
HETATM    9  C   UNK N   1      32.480  17.366   4.714  0.00  0.00     0.000 C 
BRANCH   9  10
HETATM   10  C   UNK N   1      31.218  16.558   4.957  0.00  0.00     0.000 C 
BRANCH  10  11
HETATM   11  C   UNK N   1      30.268  17.302   5.880  0.00  0.00     0.000 C 
BRANCH  11  12
HETATM   12  C   UNK N   1      29.035  16.470   6.189  0.00  0.00     0.000 C 
BRANCH  12  13
HETATM   13  C   UNK N   1      27.974  17.352   6.809  0.00  0.00     0.000 C 
BRANCH  13  14
HETATM   14  C   UNK N   1      28.064  17.275   8.317  0.00  0.00    -0.000 C 
BRANCH  14  15
HETATM   15  C   UNK N   1      28.442  18.635   8.859  0.00  0.00    -0.005 C 
HETATM   16  C   UNK N   1      29.748  18.529   9.614  0.00  0.00     0.005 C 
ENDBRANCH  14  15
ENDBRANCH  13  14
ENDBRANCH  12  13
ENDBRANCH  11  12
ENDBRANCH  10  11
ENDBRANCH   9  10
ENDBRANCH   8   9
ENDBRANCH   7   8
ENDBRANCH   6   7
ENDBRANCH   4   6
ENDBRANCH   3   4
ENDBRANCH   2   3
ENDBRANCH   1   2
BRANCH   1  17
HETATM   17  C   UNK N   1      35.744  14.381  11.110  0.00  0.00     0.214 C 
BRANCH  17  18
HETATM   18  O   UNK N   1      35.777  14.655  12.486  0.00  0.00    -0.294 OA
BRANCH  18  19
HETATM   19  P   UNK N   1      35.446  13.164  13.333  0.00  0.00     0.393 P 
HETATM   20  O   UNK N   1      36.809  12.443  13.495  0.00  0.00    -0.631 OA
BRANCH  19  21
HETATM   21  O   UNK N   1      34.431  12.073  12.430  0.00  0.00    -0.307 OA
HETATM   22  H   UNK N   1      34.153  11.147  12.346  0.00  0.00     0.222 HD
ENDBRANCH  19  21
BRANCH  19  23
HETATM   23  O   UNK N   1      34.857  13.456  14.945  0.00  0.00    -0.295 OA
BRANCH  23  24
HETATM   24  C   UNK N   1      35.840  12.957  15.797  0.00  0.00     0.208 C 
BRANCH  24  25
HETATM   25  C   UNK N   1      35.191  12.154  16.923  0.00  0.00     0.262 C 
BRANCH  25  26
HETATM   26  N   UNK N   1      35.336  10.709  16.743  0.00  0.00    -0.077 N 
HETATM   27  C   UNK N   1      34.963  10.059  17.985  0.00  0.00     0.271 C 
HETATM   28  C   UNK N   1      36.712  10.348  16.434  0.00  0.00     0.271 C 
HETATM   29  C   UNK N   1      34.455  10.225  15.691  0.00  0.00     0.271 C 
ENDBRANCH  25  26
ENDBRANCH  24  25
ENDBRANCH  23  24
ENDBRANCH  19  23
ENDBRANCH  18  19
ENDBRANCH  17  18
ENDBRANCH   1  17
BRANCH   1  30
HETATM   30  O   UNK N   1      33.497  15.197  11.101  0.00  0.00    -0.391 OA
HETATM   31  H   UNK N   1      33.295  15.905  11.733  0.00  0.00     0.210 HD
ENDBRANCH   1  30
TORSDOF 22
ENDMDL
MODEL 7
REMARK VINA RESULT:      -5.3      1.791      3.924
REMARK  22 active torsions:
REMARK  status: ('A' for Active; 'I' for Inactive)
REMARK    1  A    between atoms: C_6  and  C_5 
REMARK    2  A    between atoms: C_7  and  C_6 
REMARK    3  A    between atoms: C_8  and  C_7 
REMARK    4  A    between atoms: C_9  and  C_8 
REMARK    5  A    between atoms: C_10  and  C_9 
REMARK    6  A    between atoms: C_11  and  C_10 
REMARK    7  A    between atoms: C_12  and  C_11 
REMARK    8  A    between atoms: C_13  and  C_12 
REMARK    9  A    between atoms: C_14  and  C_13 
REMARK   10  A    between atoms: C_20  and  C_14 
REMARK   11  A    between atoms: C_16  and  C_15 
REMARK   12  A    between atoms: N_21  and  C_15 
REMARK   13  A    between atoms: O_27  and  C_16 
REMARK   14  A    between atoms: C_19  and  C_17 
REMARK   15  A    between atoms: O_26  and  C_17 
REMARK   16  A    between atoms: C_19  and  C_18 
REMARK   17  A    between atoms: O_28  and  C_18 
REMARK   18  A    between atoms: O_22  and  C_19 
REMARK   19  A    between atoms: O_26  and  C_20 
REMARK   20  A    between atoms: P_29  and  O_25 
REMARK   21  A    between atoms: P_29  and  O_27 
REMARK   22  A    between atoms: P_29  and  O_28 
ROOT
HETATM    1  C   UNK N   1      36.827  13.489  10.064  0.00  0.00     0.166 C 
ENDROOT
BRANCH   1   2
HETATM    2  C   UNK N   1      36.524  12.734  11.342  0.00  0.00     0.212 C 
BRANCH   2   3
HETATM    3  O   UNK N   1      36.929  13.477  12.429  0.00  0.00    -0.319 OA
BRANCH   3   4
HETATM    4  C   UNK N   1      36.112  13.758  13.479  0.00  0.00     0.258 C 
HETATM    5  O   UNK N   1      34.906  13.755  13.315  0.00  0.00    -0.265 OA
BRANCH   4   6
HETATM    6  C   UNK N   1      36.667  14.054  14.849  0.00  0.00     0.111 C 
BRANCH   6   7
HETATM    7  C   UNK N   1      35.865  13.321  15.921  0.00  0.00     0.010 C 
BRANCH   7   8
HETATM    8  C   UNK N   1      36.223  11.850  16.069  0.00  0.00     0.000 C 
BRANCH   8   9
HETATM    9  C   UNK N   1      35.079  11.022  16.622  0.00  0.00     0.000 C 
BRANCH   9  10
HETATM   10  C   UNK N   1      34.634  10.060  15.534  0.00  0.00     0.000 C 
BRANCH  10  11
HETATM   11  C   UNK N   1      33.626  10.719  14.609  0.00  0.00     0.000 C 
BRANCH  11  12
HETATM   12  C   UNK N   1      33.950  10.436  13.151  0.00  0.00     0.000 C 
BRANCH  12  13
HETATM   13  C   UNK N   1      35.209   9.604  13.066  0.00  0.00     0.000 C 
BRANCH  13  14
HETATM   14  C   UNK N   1      35.349   9.030  11.673  0.00  0.00    -0.000 C 
BRANCH  14  15
HETATM   15  C   UNK N   1      35.035   7.551  11.715  0.00  0.00    -0.005 C 
HETATM   16  C   UNK N   1      33.753   7.288  10.957  0.00  0.00     0.005 C 
ENDBRANCH  14  15
ENDBRANCH  13  14
ENDBRANCH  12  13
ENDBRANCH  11  12
ENDBRANCH  10  11
ENDBRANCH   9  10
ENDBRANCH   8   9
ENDBRANCH   7   8
ENDBRANCH   6   7
ENDBRANCH   4   6
ENDBRANCH   3   4
ENDBRANCH   2   3
ENDBRANCH   1   2
BRANCH   1  17
HETATM   17  C   UNK N   1      35.550  13.932   9.351  0.00  0.00     0.214 C 
BRANCH  17  18
HETATM   18  O   UNK N   1      35.649  15.244   8.866  0.00  0.00    -0.294 OA
BRANCH  18  19
HETATM   19  P   UNK N   1      34.821  16.292   9.991  0.00  0.00     0.393 P 
HETATM   20  O   UNK N   1      35.922  17.094  10.732  0.00  0.00    -0.631 OA
BRANCH  19  21
HETATM   21  O   UNK N   1      33.951  15.422  11.225  0.00  0.00    -0.307 OA
HETATM   22  H   UNK N   1      34.046  14.942  12.063  0.00  0.00     0.222 HD
ENDBRANCH  19  21
BRANCH  19  23
HETATM   23  O   UNK N   1      33.833  17.467   9.170  0.00  0.00    -0.295 OA
BRANCH  23  24
HETATM   24  C   UNK N   1      32.741  16.756   8.677  0.00  0.00     0.208 C 
BRANCH  24  25
HETATM   25  C   UNK N   1      32.108  17.519   7.515  0.00  0.00     0.262 C 
BRANCH  25  26
HETATM   26  N   UNK N   1      32.360  16.886   6.219  0.00  0.00    -0.077 N 
HETATM   27  C   UNK N   1      32.489  15.457   6.431  0.00  0.00     0.271 C 
HETATM   28  C   UNK N   1      33.596  17.372   5.622  0.00  0.00     0.271 C 
HETATM   29  C   UNK N   1      31.251  17.114   5.305  0.00  0.00     0.271 C 
ENDBRANCH  25  26
ENDBRANCH  24  25
ENDBRANCH  23  24
ENDBRANCH  19  23
ENDBRANCH  18  19
ENDBRANCH  17  18
ENDBRANCH   1  17
BRANCH   1  30
HETATM   30  O   UNK N   1      37.616  14.602  10.351  0.00  0.00    -0.391 OA
HETATM   31  H   UNK N   1      37.982  15.137   9.629  0.00  0.00     0.210 HD
ENDBRANCH   1  30
TORSDOF 22
ENDMDL
MODEL 8
REMARK VINA RESULT:      -5.3      3.972      8.846
REMARK  22 active torsions:
REMARK  status: ('A' for Active; 'I' for Inactive)
REMARK    1  A    between atoms: C_6  and  C_5 
REMARK    2  A    between atoms: C_7  and  C_6 
REMARK    3  A    between atoms: C_8  and  C_7 
REMARK    4  A    between atoms: C_9  and  C_8 
REMARK    5  A    between atoms: C_10  and  C_9 
REMARK    6  A    between atoms: C_11  and  C_10 
REMARK    7  A    between atoms: C_12  and  C_11 
REMARK    8  A    between atoms: C_13  and  C_12 
REMARK    9  A    between atoms: C_14  and  C_13 
REMARK   10  A    between atoms: C_20  and  C_14 
REMARK   11  A    between atoms: C_16  and  C_15 
REMARK   12  A    between atoms: N_21  and  C_15 
REMARK   13  A    between atoms: O_27  and  C_16 
REMARK   14  A    between atoms: C_19  and  C_17 
REMARK   15  A    between atoms: O_26  and  C_17 
REMARK   16  A    between atoms: C_19  and  C_18 
REMARK   17  A    between atoms: O_28  and  C_18 
REMARK   18  A    between atoms: O_22  and  C_19 
REMARK   19  A    between atoms: O_26  and  C_20 
REMARK   20  A    between atoms: P_29  and  O_25 
REMARK   21  A    between atoms: P_29  and  O_27 
REMARK   22  A    between atoms: P_29  and  O_28 
ROOT
HETATM    1  C   UNK N   1      36.071  16.233  10.840  0.00  0.00     0.166 C 
ENDROOT
BRANCH   1   2
HETATM    2  C   UNK N   1      35.138  16.205   9.647  0.00  0.00     0.212 C 
BRANCH   2   3
HETATM    3  O   UNK N   1      34.440  17.390   9.574  0.00  0.00    -0.319 OA
BRANCH   3   4
HETATM    4  C   UNK N   1      34.455  18.191   8.475  0.00  0.00     0.258 C 
HETATM    5  O   UNK N   1      35.285  19.079   8.396  0.00  0.00    -0.265 OA
BRANCH   4   6
HETATM    6  C   UNK N   1      33.480  17.993   7.343  0.00  0.00     0.111 C 
BRANCH   6   7
HETATM    7  C   UNK N   1      32.117  17.564   7.880  0.00  0.00     0.010 C 
BRANCH   7   8
HETATM    8  C   UNK N   1      31.673  16.183   7.421  0.00  0.00     0.000 C 
BRANCH   8   9
HETATM    9  C   UNK N   1      31.950  15.938   5.950  0.00  0.00     0.000 C 
BRANCH   9  10
HETATM   10  C   UNK N   1      30.621  15.972   5.216  0.00  0.00     0.000 C 
BRANCH  10  11
HETATM   11  C   UNK N   1      30.346  17.358   4.659  0.00  0.00     0.000 C 
BRANCH  11  12
HETATM   12  C   UNK N   1      29.126  17.984   5.315  0.00  0.00     0.000 C 
BRANCH  12  13
HETATM   13  C   UNK N   1      28.217  16.892   5.833  0.00  0.00     0.000 C 
BRANCH  13  14
HETATM   14  C   UNK N   1      28.056  17.031   7.331  0.00  0.00    -0.000 C 
BRANCH  14  15
HETATM   15  C   UNK N   1      28.464  18.427   7.744  0.00  0.00    -0.005 C 
HETATM   16  C   UNK N   1      28.719  18.457   9.235  0.00  0.00     0.005 C 
ENDBRANCH  14  15
ENDBRANCH  13  14
ENDBRANCH  12  13
ENDBRANCH  11  12
ENDBRANCH  10  11
ENDBRANCH   9  10
ENDBRANCH   8   9
ENDBRANCH   7   8
ENDBRANCH   6   7
ENDBRANCH   4   6
ENDBRANCH   3   4
ENDBRANCH   2   3
ENDBRANCH   1   2
BRANCH   1  17
HETATM   17  C   UNK N   1      35.387  15.722  12.106  0.00  0.00     0.214 C 
BRANCH  17  18
HETATM   18  O   UNK N   1      34.611  14.580  11.858  0.00  0.00    -0.294 OA
BRANCH  18  19
HETATM   19  P   UNK N   1      35.443  13.209  12.550  0.00  0.00     0.393 P 
HETATM   20  O   UNK N   1      34.640  12.804  13.814  0.00  0.00    -0.631 OA
BRANCH  19  21
HETATM   21  O   UNK N   1      37.050  13.592  13.106  0.00  0.00    -0.307 OA
HETATM   22  H   UNK N   1      37.770  13.300  13.687  0.00  0.00     0.222 HD
ENDBRANCH  19  21
BRANCH  19  23
HETATM   23  O   UNK N   1      35.407  11.830  11.489  0.00  0.00    -0.295 OA
BRANCH  23  24
HETATM   24  C   UNK N   1      35.368  12.354  10.198  0.00  0.00     0.208 C 
BRANCH  24  25
HETATM   25  C   UNK N   1      34.170  11.782   9.443  0.00  0.00     0.262 C 
BRANCH  25  26
HETATM   26  N   UNK N   1      34.380  11.745   7.995  0.00  0.00    -0.077 N 
HETATM   27  C   UNK N   1      33.390  10.857   7.416  0.00  0.00     0.271 C 
HETATM   28  C   UNK N   1      35.702  11.236   7.662  0.00  0.00     0.271 C 
HETATM   29  C   UNK N   1      34.203  13.067   7.411  0.00  0.00     0.271 C 
ENDBRANCH  25  26
ENDBRANCH  24  25
ENDBRANCH  23  24
ENDBRANCH  19  23
ENDBRANCH  18  19
ENDBRANCH  17  18
ENDBRANCH   1  17
BRANCH   1  30
HETATM   30  O   UNK N   1      37.200  15.461  10.571  0.00  0.00    -0.391 OA
HETATM   31  H   UNK N   1      37.257  14.551  10.902  0.00  0.00     0.210 HD
ENDBRANCH   1  30
TORSDOF 22
ENDMDL
MODEL 9
REMARK VINA RESULT:      -5.3      3.193     10.483
REMARK  22 active torsions:
REMARK  status: ('A' for Active; 'I' for Inactive)
REMARK    1  A    between atoms: C_6  and  C_5 
REMARK    2  A    between atoms: C_7  and  C_6 
REMARK    3  A    between atoms: C_8  and  C_7 
REMARK    4  A    between atoms: C_9  and  C_8 
REMARK    5  A    between atoms: C_10  and  C_9 
REMARK    6  A    between atoms: C_11  and  C_10 
REMARK    7  A    between atoms: C_12  and  C_11 
REMARK    8  A    between atoms: C_13  and  C_12 
REMARK    9  A    between atoms: C_14  and  C_13 
REMARK   10  A    between atoms: C_20  and  C_14 
REMARK   11  A    between atoms: C_16  and  C_15 
REMARK   12  A    between atoms: N_21  and  C_15 
REMARK   13  A    between atoms: O_27  and  C_16 
REMARK   14  A    between atoms: C_19  and  C_17 
REMARK   15  A    between atoms: O_26  and  C_17 
REMARK   16  A    between atoms: C_19  and  C_18 
REMARK   17  A    between atoms: O_28  and  C_18 
REMARK   18  A    between atoms: O_22  and  C_19 
REMARK   19  A    between atoms: O_26  and  C_20 
REMARK   20  A    between atoms: P_29  and  O_25 
REMARK   21  A    between atoms: P_29  and  O_27 
REMARK   22  A    between atoms: P_29  and  O_28 
ROOT
HETATM    1  C   UNK N   1      34.316  15.027  10.130  0.00  0.00     0.166 C 
ENDROOT
BRANCH   1   2
HETATM    2  C   UNK N   1      35.082  16.318   9.922  0.00  0.00     0.212 C 
BRANCH   2   3
HETATM    3  O   UNK N   1      34.209  17.327   9.579  0.00  0.00    -0.319 OA
BRANCH   3   4
HETATM    4  C   UNK N   1      34.392  18.128   8.495  0.00  0.00     0.258 C 
HETATM    5  O   UNK N   1      35.295  18.945   8.501  0.00  0.00    -0.265 OA
BRANCH   4   6
HETATM    6  C   UNK N   1      33.513  18.012   7.275  0.00  0.00     0.111 C 
BRANCH   6   7
HETATM    7  C   UNK N   1      33.957  16.841   6.404  0.00  0.00     0.010 C 
BRANCH   7   8
HETATM    8  C   UNK N   1      33.532  16.951   4.948  0.00  0.00     0.000 C 
BRANCH   8   9
HETATM    9  C   UNK N   1      33.671  15.640   4.197  0.00  0.00     0.000 C 
BRANCH   9  10
HETATM   10  C   UNK N   1      32.376  15.398   3.442  0.00  0.00     0.000 C 
BRANCH  10  11
HETATM   11  C   UNK N   1      31.593  16.691   3.285  0.00  0.00     0.000 C 
BRANCH  11  12
HETATM   12  C   UNK N   1      30.096  16.429   3.272  0.00  0.00     0.000 C 
BRANCH  12  13
HETATM   13  C   UNK N   1      29.446  17.164   4.423  0.00  0.00     0.000 C 
BRANCH  13  14
HETATM   14  C   UNK N   1      29.665  16.396   5.708  0.00  0.00    -0.000 C 
BRANCH  14  15
HETATM   15  C   UNK N   1      29.928  17.377   6.829  0.00  0.00    -0.005 C 
HETATM   16  C   UNK N   1      28.669  18.164   7.114  0.00  0.00     0.005 C 
ENDBRANCH  14  15
ENDBRANCH  13  14
ENDBRANCH  12  13
ENDBRANCH  11  12
ENDBRANCH  10  11
ENDBRANCH   9  10
ENDBRANCH   8   9
ENDBRANCH   7   8
ENDBRANCH   6   7
ENDBRANCH   4   6
ENDBRANCH   3   4
ENDBRANCH   2   3
ENDBRANCH   1   2
BRANCH   1  17
HETATM   17  C   UNK N   1      35.230  13.896  10.598  0.00  0.00     0.214 C 
BRANCH  17  18
HETATM   18  O   UNK N   1      36.364  14.382  11.266  0.00  0.00    -0.294 OA
BRANCH  18  19
HETATM   19  P   UNK N   1      36.267  13.857  12.929  0.00  0.00     0.393 P 
HETATM   20  O   UNK N   1      34.761  13.645  13.233  0.00  0.00    -0.631 OA
BRANCH  19  21
HETATM   21  O   UNK N   1      36.819  15.061  14.061  0.00  0.00    -0.307 OA
HETATM   22  H   UNK N   1      37.587  15.586  14.337  0.00  0.00     0.222 HD
ENDBRANCH  19  21
BRANCH  19  23
HETATM   23  O   UNK N   1      37.031  12.310  13.162  0.00  0.00    -0.295 OA
BRANCH  23  24
HETATM   24  C   UNK N   1      37.211  12.188  14.539  0.00  0.00     0.208 C 
BRANCH  24  25
HETATM   25  C   UNK N   1      37.180  10.713  14.936  0.00  0.00     0.262 C 
BRANCH  25  26
HETATM   26  N   UNK N   1      36.163  10.421  15.948  0.00  0.00    -0.077 N 
HETATM   27  C   UNK N   1      36.741   9.516  16.922  0.00  0.00     0.271 C 
HETATM   28  C   UNK N   1      34.999   9.775  15.358  0.00  0.00     0.271 C 
HETATM   29  C   UNK N   1      35.753  11.635  16.637  0.00  0.00     0.271 C 
ENDBRANCH  25  26
ENDBRANCH  24  25
ENDBRANCH  23  24
ENDBRANCH  19  23
ENDBRANCH  18  19
ENDBRANCH  17  18
ENDBRANCH   1  17
BRANCH   1  30
HETATM   30  O   UNK N   1      33.301  15.229  11.063  0.00  0.00    -0.391 OA
HETATM   31  H   UNK N   1      33.261  14.682  11.863  0.00  0.00     0.210 HD
ENDBRANCH   1  30
TORSDOF 22
ENDMDL
