REMARK  0 active torsions:
REMARK  status: ('A' for Active; 'I' for Inactive)
ROOT
HETATM    1  C   UNK N   1       1.018  -2.515   0.120  0.00  0.00     0.089 C 
HETATM    2  C   UNK N   1       1.015  -1.027   0.133  0.00  0.00     0.078 A 
HETATM    3  N   UNK N   1      -0.115  -0.394   0.170  0.00  0.00    -0.332 N 
ATOM      4  HN  UNK N   1      -0.986  -0.925   0.180  1.00  0.00     0.168 HD
HETATM    5  C   UNK N   1      -0.164   1.025   0.197  0.00  0.00     0.111 A 
HETATM    6  N   UNK N   1      -1.295   1.631   0.181  0.00  0.00    -0.385 N 
ATOM      7  HN  UNK N   1      -2.162   1.094   0.181  1.00  0.00     0.157 HD
HETATM    8  C   UNK N   1       1.105   1.770   0.220  0.00  0.00     0.014 A 
HETATM    9  C   UNK N   1       1.159   3.100   0.281  0.00  0.00     0.028 C 
HETATM   10  C   UNK N   1       2.335   0.968   0.152  0.00  0.00     0.103 A 
HETATM   11  N   UNK N   1       2.263  -0.321   0.109  0.00  0.00    -0.355 N 
ATOM     12  HN  UNK N   1       3.129  -0.858   0.055  1.00  0.00     0.166 HD
HETATM   13  H   UNK N   1      -1.327   2.615   0.169  0.00  0.00     0.157 HD
ENDROOT
TORSDOF 0
