MODEL 1
REMARK VINA RESULT:      -4.9      0.000      0.000
REMARK  8 active torsions:
REMARK  status: ('A' for Active; 'I' for Inactive)
REMARK    1  A    between atoms: O_1  and  C_2 
REMARK    2  A    between atoms: C_2  and  C_3 
REMARK    3  A    between atoms: C_3  and  O_4 
REMARK    4  A    between atoms: C_3  and  C_9 
REMARK    5  A    between atoms: O_4  and  P_5 
REMARK    6  A    between atoms: P_5  and  O_6 
REMARK    7  A    between atoms: P_5  and  O_7 
REMARK    8  A    between atoms: C_9  and  O_10 
ROOT
HETATM    1  C   UNK N   1      21.218  19.981   2.059  0.00  0.00     0.254 C 
ENDROOT
BRANCH   1   2
HETATM    2  C   UNK N   1      20.663  21.066   1.139  0.00  0.00     0.207 C 
BRANCH   2   3
HETATM    3  O   UNK N   1      20.592  20.603  -0.176  0.00  0.00    -0.398 OA
HETATM    4  H   UNK N   1      20.720  19.713  -0.541  0.00  0.00     0.209 HD
ENDBRANCH   2   3
ENDBRANCH   1   2
BRANCH   1   5
HETATM    5  O   UNK N   1      20.213  19.581   2.953  0.00  0.00    -0.279 OA
BRANCH   5   6
HETATM    6  P   UNK N   1      20.078  17.852   2.778  0.00  0.00     0.391 P 
HETATM    7  O   UNK N   1      20.538  18.009   4.252  0.00  0.00    -0.632 OA
BRANCH   6   8
HETATM    8  O   UNK N   1      18.892  16.960   3.677  0.00  0.00    -0.307 OA
HETATM    9  H   UNK N   1      19.130  16.267   4.314  0.00  0.00     0.222 HD
ENDBRANCH   6   8
BRANCH   6  10
HETATM   10  O   UNK N   1      18.507  18.563   2.574  0.00  0.00    -0.307 OA
HETATM   11  H   UNK N   1      17.977  19.050   3.224  0.00  0.00     0.222 HD
ENDBRANCH   6  10
ENDBRANCH   5   6
ENDBRANCH   1   5
BRANCH   1  12
HETATM   12  C   UNK N   1      22.439  20.434   2.824  0.00  0.00     0.172 C 
HETATM   13  O   UNK N   1      22.750  21.614   2.821  0.00  0.00    -0.648 OA
BRANCH  12  14
HETATM   14  O   UNK N   1      23.185  19.555   3.522  0.00  0.00    -0.774 OA
HETATM   15  H   UNK N   1      22.861  18.798   3.968  0.00  0.00     0.167 HD
ENDBRANCH  12  14
ENDBRANCH   1  12
TORSDOF 8
ENDMDL
MODEL 2
REMARK VINA RESULT:      -4.7     13.701     15.482
REMARK  8 active torsions:
REMARK  status: ('A' for Active; 'I' for Inactive)
REMARK    1  A    between atoms: O_1  and  C_2 
REMARK    2  A    between atoms: C_2  and  C_3 
REMARK    3  A    between atoms: C_3  and  O_4 
REMARK    4  A    between atoms: C_3  and  C_9 
REMARK    5  A    between atoms: O_4  and  P_5 
REMARK    6  A    between atoms: P_5  and  O_6 
REMARK    7  A    between atoms: P_5  and  O_7 
REMARK    8  A    between atoms: C_9  and  O_10 
ROOT
HETATM    1  C   UNK N   1      33.757  16.961   8.518  0.00  0.00     0.254 C 
ENDROOT
BRANCH   1   2
HETATM    2  C   UNK N   1      32.238  16.931   8.362  0.00  0.00     0.207 C 
BRANCH   2   3
HETATM    3  O   UNK N   1      31.651  16.240   9.424  0.00  0.00    -0.398 OA
HETATM    4  H   UNK N   1      31.790  16.314  10.381  0.00  0.00     0.209 HD
ENDBRANCH   2   3
ENDBRANCH   1   2
BRANCH   1   5
HETATM    5  O   UNK N   1      34.075  17.072   9.880  0.00  0.00    -0.279 OA
BRANCH   5   6
HETATM    6  P   UNK N   1      35.316  15.885  10.179  0.00  0.00     0.391 P 
HETATM    7  O   UNK N   1      35.988  17.205  10.646  0.00  0.00    -0.632 OA
BRANCH   6   8
HETATM    8  O   UNK N   1      35.836  15.534  11.797  0.00  0.00    -0.307 OA
HETATM    9  H   UNK N   1      35.573  16.073  12.560  0.00  0.00     0.222 HD
ENDBRANCH   6   8
BRANCH   6  10
HETATM   10  O   UNK N   1      33.948  15.534  11.188  0.00  0.00    -0.307 OA
HETATM   11  H   UNK N   1      33.695  14.686  11.587  0.00  0.00     0.222 HD
ENDBRANCH   6  10
ENDBRANCH   5   6
ENDBRANCH   1   5
BRANCH   1  12
HETATM   12  C   UNK N   1      34.400  18.088   7.745  0.00  0.00     0.172 C 
HETATM   13  O   UNK N   1      34.346  18.092   6.526  0.00  0.00    -0.648 OA
BRANCH  12  14
HETATM   14  O   UNK N   1      35.024  19.098   8.382  0.00  0.00    -0.774 OA
HETATM   15  H   UNK N   1      34.648  19.635   9.051  0.00  0.00     0.167 HD
ENDBRANCH  12  14
ENDBRANCH   1  12
TORSDOF 8
ENDMDL
MODEL 3
REMARK VINA RESULT:      -4.6      1.271      2.592
REMARK  8 active torsions:
REMARK  status: ('A' for Active; 'I' for Inactive)
REMARK    1  A    between atoms: O_1  and  C_2 
REMARK    2  A    between atoms: C_2  and  C_3 
REMARK    3  A    between atoms: C_3  and  O_4 
REMARK    4  A    between atoms: C_3  and  C_9 
REMARK    5  A    between atoms: O_4  and  P_5 
REMARK    6  A    between atoms: P_5  and  O_6 
REMARK    7  A    between atoms: P_5  and  O_7 
REMARK    8  A    between atoms: C_9  and  O_10 
ROOT
HETATM    1  C   UNK N   1      20.544  20.525   2.344  0.00  0.00     0.254 C 
ENDROOT
BRANCH   1   2
HETATM    2  C   UNK N   1      21.841  19.954   2.910  0.00  0.00     0.207 C 
BRANCH   2   3
HETATM    3  O   UNK N   1      22.877  20.882   2.792  0.00  0.00    -0.398 OA
HETATM    4  H   UNK N   1      23.659  20.888   2.217  0.00  0.00     0.209 HD
ENDBRANCH   2   3
ENDBRANCH   1   2
BRANCH   1   5
HETATM    5  O   UNK N   1      19.605  19.490   2.216  0.00  0.00    -0.279 OA
BRANCH   5   6
HETATM    6  P   UNK N   1      20.468  18.017   2.568  0.00  0.00     0.391 P 
HETATM    7  O   UNK N   1      19.235  17.923   3.508  0.00  0.00    -0.632 OA
BRANCH   6   8
HETATM    8  O   UNK N   1      19.775  16.472   2.187  0.00  0.00    -0.307 OA
HETATM    9  H   UNK N   1      18.909  16.189   2.521  0.00  0.00     0.222 HD
ENDBRANCH   6   8
BRANCH   6  10
HETATM   10  O   UNK N   1      19.948  17.982   0.912  0.00  0.00    -0.307 OA
HETATM   11  H   UNK N   1      20.425  18.285   0.124  0.00  0.00     0.222 HD
ENDBRANCH   6  10
ENDBRANCH   5   6
ENDBRANCH   1   5
BRANCH   1  12
HETATM   12  C   UNK N   1      20.741  21.210   1.012  0.00  0.00     0.172 C 
HETATM   13  O   UNK N   1      21.213  20.585   0.076  0.00  0.00    -0.648 OA
BRANCH  12  14
HETATM   14  O   UNK N   1      20.393  22.499   0.837  0.00  0.00    -0.774 OA
HETATM   15  H   UNK N   1      19.536  22.856   0.969  0.00  0.00     0.167 HD
ENDBRANCH  12  14
ENDBRANCH   1  12
TORSDOF 8
ENDMDL
MODEL 4
REMARK VINA RESULT:      -4.6     12.316     14.180
REMARK  8 active torsions:
REMARK  status: ('A' for Active; 'I' for Inactive)
REMARK    1  A    between atoms: O_1  and  C_2 
REMARK    2  A    between atoms: C_2  and  C_3 
REMARK    3  A    between atoms: C_3  and  O_4 
REMARK    4  A    between atoms: C_3  and  C_9 
REMARK    5  A    between atoms: O_4  and  P_5 
REMARK    6  A    between atoms: P_5  and  O_6 
REMARK    7  A    between atoms: P_5  and  O_7 
REMARK    8  A    between atoms: C_9  and  O_10 
ROOT
HETATM    1  C   UNK N   1      33.832  17.432   9.021  0.00  0.00     0.254 C 
ENDROOT
BRANCH   1   2
HETATM    2  C   UNK N   1      34.756  16.478   9.772  0.00  0.00     0.207 C 
BRANCH   2   3
HETATM    3  O   UNK N   1      35.703  17.192  10.508  0.00  0.00    -0.398 OA
HETATM    4  H   UNK N   1      36.624  17.419  10.303  0.00  0.00     0.209 HD
ENDBRANCH   2   3
ENDBRANCH   1   2
BRANCH   1   5
HETATM    5  O   UNK N   1      32.852  16.686   8.348  0.00  0.00    -0.279 OA
BRANCH   5   6
HETATM    6  P   UNK N   1      31.408  17.663   8.372  0.00  0.00     0.391 P 
HETATM    7  O   UNK N   1      31.483  17.202   6.891  0.00  0.00    -0.632 OA
BRANCH   6   8
HETATM    8  O   UNK N   1      29.852  16.952   8.082  0.00  0.00    -0.307 OA
HETATM    9  H   UNK N   1      29.721  16.208   7.471  0.00  0.00     0.222 HD
ENDBRANCH   6   8
BRANCH   6  10
HETATM   10  O   UNK N   1      31.173  16.287   9.404  0.00  0.00    -0.307 OA
HETATM   11  H   UNK N   1      31.014  15.364   9.151  0.00  0.00     0.222 HD
ENDBRANCH   6  10
ENDBRANCH   5   6
ENDBRANCH   1   5
BRANCH   1  12
HETATM   12  C   UNK N   1      34.573  18.311   8.041  0.00  0.00     0.172 C 
HETATM   13  O   UNK N   1      35.267  19.226   8.456  0.00  0.00    -0.648 OA
BRANCH  12  14
HETATM   14  O   UNK N   1      34.489  18.095   6.714  0.00  0.00    -0.774 OA
HETATM   15  H   UNK N   1      33.730  17.787   6.259  0.00  0.00     0.167 HD
ENDBRANCH  12  14
ENDBRANCH   1  12
TORSDOF 8
ENDMDL
MODEL 5
REMARK VINA RESULT:      -4.5     14.286     15.365
REMARK  8 active torsions:
REMARK  status: ('A' for Active; 'I' for Inactive)
REMARK    1  A    between atoms: O_1  and  C_2 
REMARK    2  A    between atoms: C_2  and  C_3 
REMARK    3  A    between atoms: C_3  and  O_4 
REMARK    4  A    between atoms: C_3  and  C_9 
REMARK    5  A    between atoms: O_4  and  P_5 
REMARK    6  A    between atoms: P_5  and  O_6 
REMARK    7  A    between atoms: P_5  and  O_7 
REMARK    8  A    between atoms: C_9  and  O_10 
ROOT
HETATM    1  C   UNK N   1      34.624  16.757   8.663  0.00  0.00     0.254 C 
ENDROOT
BRANCH   1   2
HETATM    2  C   UNK N   1      34.693  15.882   7.414  0.00  0.00     0.207 C 
BRANCH   2   3
HETATM    3  O   UNK N   1      34.770  16.673   6.266  0.00  0.00    -0.398 OA
HETATM    4  H   UNK N   1      34.547  16.472   5.343  0.00  0.00     0.209 HD
ENDBRANCH   2   3
ENDBRANCH   1   2
BRANCH   1   5
HETATM    5  O   UNK N   1      33.641  16.248   9.525  0.00  0.00    -0.279 OA
BRANCH   5   6
HETATM    6  P   UNK N   1      34.296  14.770  10.177  0.00  0.00     0.391 P 
HETATM    7  O   UNK N   1      35.166  15.859  10.861  0.00  0.00    -0.632 OA
BRANCH   6   8
HETATM    8  O   UNK N   1      34.155  14.408  11.868  0.00  0.00    -0.307 OA
HETATM    9  H   UNK N   1      33.910  13.529  12.197  0.00  0.00     0.222 HD
ENDBRANCH   6   8
BRANCH   6  10
HETATM   10  O   UNK N   1      32.646  14.928  10.691  0.00  0.00    -0.307 OA
HETATM   11  H   UNK N   1      32.212  14.524  11.460  0.00  0.00     0.222 HD
ENDBRANCH   6  10
ENDBRANCH   5   6
ENDBRANCH   1   5
BRANCH   1  12
HETATM   12  C   UNK N   1      34.330  18.204   8.345  0.00  0.00     0.172 C 
HETATM   13  O   UNK N   1      33.198  18.537   8.034  0.00  0.00    -0.648 OA
BRANCH  12  14
HETATM   14  O   UNK N   1      35.298  19.139   8.410  0.00  0.00    -0.774 OA
HETATM   15  H   UNK N   1      36.162  19.007   8.749  0.00  0.00     0.167 HD
ENDBRANCH  12  14
ENDBRANCH   1  12
TORSDOF 8
ENDMDL
MODEL 6
REMARK VINA RESULT:      -4.4     14.185     15.005
REMARK  8 active torsions:
REMARK  status: ('A' for Active; 'I' for Inactive)
REMARK    1  A    between atoms: O_1  and  C_2 
REMARK    2  A    between atoms: C_2  and  C_3 
REMARK    3  A    between atoms: C_3  and  O_4 
REMARK    4  A    between atoms: C_3  and  C_9 
REMARK    5  A    between atoms: O_4  and  P_5 
REMARK    6  A    between atoms: P_5  and  O_6 
REMARK    7  A    between atoms: P_5  and  O_7 
REMARK    8  A    between atoms: C_9  and  O_10 
ROOT
HETATM    1  C   UNK N   1      33.967  17.200   9.011  0.00  0.00     0.254 C 
ENDROOT
BRANCH   1   2
HETATM    2  C   UNK N   1      35.059  16.537   9.848  0.00  0.00     0.207 C 
BRANCH   2   3
HETATM    3  O   UNK N   1      35.848  17.502  10.475  0.00  0.00    -0.398 OA
HETATM    4  H   UNK N   1      36.708  17.877  10.226  0.00  0.00     0.209 HD
ENDBRANCH   2   3
ENDBRANCH   1   2
BRANCH   1   5
HETATM    5  O   UNK N   1      33.231  16.206   8.349  0.00  0.00    -0.279 OA
BRANCH   5   6
HETATM    6  P   UNK N   1      33.303  14.797   9.373  0.00  0.00     0.391 P 
HETATM    7  O   UNK N   1      31.851  15.301   9.590  0.00  0.00    -0.632 OA
BRANCH   6   8
HETATM    8  O   UNK N   1      32.327  13.403   9.032  0.00  0.00    -0.307 OA
HETATM    9  H   UNK N   1      31.439  13.467   8.644  0.00  0.00     0.222 HD
ENDBRANCH   6   8
BRANCH   6  10
HETATM   10  O   UNK N   1      33.512  14.304   7.721  0.00  0.00    -0.307 OA
HETATM   11  H   UNK N   1      32.831  14.139   7.050  0.00  0.00     0.222 HD
ENDBRANCH   6  10
ENDBRANCH   5   6
ENDBRANCH   1   5
BRANCH   1  12
HETATM   12  C   UNK N   1      34.519  18.186   8.009  0.00  0.00     0.172 C 
HETATM   13  O   UNK N   1      35.073  19.200   8.402  0.00  0.00    -0.648 OA
BRANCH  12  14
HETATM   14  O   UNK N   1      34.420  17.958   6.685  0.00  0.00    -0.774 OA
HETATM   15  H   UNK N   1      33.704  17.531   6.258  0.00  0.00     0.167 HD
ENDBRANCH  12  14
ENDBRANCH   1  12
TORSDOF 8
ENDMDL
MODEL 7
REMARK VINA RESULT:      -4.3     15.243     17.255
REMARK  8 active torsions:
REMARK  status: ('A' for Active; 'I' for Inactive)
REMARK    1  A    between atoms: O_1  and  C_2 
REMARK    2  A    between atoms: C_2  and  C_3 
REMARK    3  A    between atoms: C_3  and  O_4 
REMARK    4  A    between atoms: C_3  and  C_9 
REMARK    5  A    between atoms: O_4  and  P_5 
REMARK    6  A    between atoms: P_5  and  O_6 
REMARK    7  A    between atoms: P_5  and  O_7 
REMARK    8  A    between atoms: C_9  and  O_10 
ROOT
HETATM    1  C   UNK N   1      34.631  15.369   9.467  0.00  0.00     0.254 C 
ENDROOT
BRANCH   1   2
HETATM    2  C   UNK N   1      34.161  14.688  10.750  0.00  0.00     0.207 C 
BRANCH   2   3
HETATM    3  O   UNK N   1      32.844  15.049  11.042  0.00  0.00    -0.398 OA
HETATM    4  H   UNK N   1      32.117  15.317  10.457  0.00  0.00     0.209 HD
ENDBRANCH   2   3
ENDBRANCH   1   2
BRANCH   1   5
HETATM    5  O   UNK N   1      35.991  15.089   9.271  0.00  0.00    -0.279 OA
BRANCH   5   6
HETATM    6  P   UNK N   1      36.489  14.151  10.654  0.00  0.00     0.391 P 
HETATM    7  O   UNK N   1      36.916  13.253   9.461  0.00  0.00    -0.632 OA
BRANCH   6   8
HETATM    8  O   UNK N   1      38.170  13.838  10.953  0.00  0.00    -0.307 OA
HETATM    9  H   UNK N   1      38.629  13.059  10.601  0.00  0.00     0.222 HD
ENDBRANCH   6   8
BRANCH   6  10
HETATM   10  O   UNK N   1      37.393  15.633  10.625  0.00  0.00    -0.307 OA
HETATM   11  H   UNK N   1      38.264  15.816  11.012  0.00  0.00     0.222 HD
ENDBRANCH   6  10
ENDBRANCH   5   6
ENDBRANCH   1   5
BRANCH   1  12
HETATM   12  C   UNK N   1      34.411  16.863   9.487  0.00  0.00     0.172 C 
HETATM   13  O   UNK N   1      35.323  17.604   9.817  0.00  0.00    -0.648 OA
BRANCH  12  14
HETATM   14  O   UNK N   1      33.224  17.395   9.134  0.00  0.00    -0.774 OA
HETATM   15  H   UNK N   1      32.425  17.313   9.617  0.00  0.00     0.167 HD
ENDBRANCH  12  14
ENDBRANCH   1  12
TORSDOF 8
ENDMDL
MODEL 8
REMARK VINA RESULT:      -4.3     13.055     14.343
REMARK  8 active torsions:
REMARK  status: ('A' for Active; 'I' for Inactive)
REMARK    1  A    between atoms: O_1  and  C_2 
REMARK    2  A    between atoms: C_2  and  C_3 
REMARK    3  A    between atoms: C_3  and  O_4 
REMARK    4  A    between atoms: C_3  and  C_9 
REMARK    5  A    between atoms: O_4  and  P_5 
REMARK    6  A    between atoms: P_5  and  O_6 
REMARK    7  A    between atoms: P_5  and  O_7 
REMARK    8  A    between atoms: C_9  and  O_10 
ROOT
HETATM    1  C   UNK N   1      33.613  18.106   7.499  0.00  0.00     0.254 C 
ENDROOT
BRANCH   1   2
HETATM    2  C   UNK N   1      32.602  17.015   7.841  0.00  0.00     0.207 C 
BRANCH   2   3
HETATM    3  O   UNK N   1      31.911  17.338   9.011  0.00  0.00    -0.398 OA
HETATM    4  H   UNK N   1      31.779  16.832   9.828  0.00  0.00     0.209 HD
ENDBRANCH   2   3
ENDBRANCH   1   2
BRANCH   1   5
HETATM    5  O   UNK N   1      34.236  17.788   6.283  0.00  0.00    -0.279 OA
BRANCH   5   6
HETATM    6  P   UNK N   1      33.403  16.384   5.673  0.00  0.00     0.391 P 
HETATM    7  O   UNK N   1      33.171  17.432   4.551  0.00  0.00    -0.632 OA
BRANCH   6   8
HETATM    8  O   UNK N   1      33.954  15.580   4.237  0.00  0.00    -0.307 OA
HETATM    9  H   UNK N   1      34.863  15.255   4.135  0.00  0.00     0.222 HD
ENDBRANCH   6   8
BRANCH   6  10
HETATM   10  O   UNK N   1      35.096  16.022   5.797  0.00  0.00    -0.307 OA
HETATM   11  H   UNK N   1      35.840  16.640   5.884  0.00  0.00     0.222 HD
ENDBRANCH   6  10
ENDBRANCH   5   6
ENDBRANCH   1   5
BRANCH   1  12
HETATM   12  C   UNK N   1      34.654  18.295   8.577  0.00  0.00     0.172 C 
HETATM   13  O   UNK N   1      34.777  17.453   9.452  0.00  0.00    -0.648 OA
BRANCH  12  14
HETATM   14  O   UNK N   1      35.458  19.376   8.583  0.00  0.00    -0.774 OA
HETATM   15  H   UNK N   1      36.392  19.360   8.511  0.00  0.00     0.167 HD
ENDBRANCH  12  14
ENDBRANCH   1  12
TORSDOF 8
ENDMDL
MODEL 9
REMARK VINA RESULT:      -4.3      1.708      3.098
REMARK  8 active torsions:
REMARK  status: ('A' for Active; 'I' for Inactive)
REMARK    1  A    between atoms: O_1  and  C_2 
REMARK    2  A    between atoms: C_2  and  C_3 
REMARK    3  A    between atoms: C_3  and  O_4 
REMARK    4  A    between atoms: C_3  and  C_9 
REMARK    5  A    between atoms: O_4  and  P_5 
REMARK    6  A    between atoms: P_5  and  O_6 
REMARK    7  A    between atoms: P_5  and  O_7 
REMARK    8  A    between atoms: C_9  and  O_10 
ROOT
HETATM    1  C   UNK N   1      20.898  18.915   2.419  0.00  0.00     0.254 C 
ENDROOT
BRANCH   1   2
HETATM    2  C   UNK N   1      19.642  18.055   2.298  0.00  0.00     0.207 C 
BRANCH   2   3
HETATM    3  O   UNK N   1      18.497  18.848   2.388  0.00  0.00    -0.398 OA
HETATM    4  H   UNK N   1      18.398  19.804   2.523  0.00  0.00     0.209 HD
ENDBRANCH   2   3
ENDBRANCH   1   2
BRANCH   1   5
HETATM    5  O   UNK N   1      21.042  19.331   3.751  0.00  0.00    -0.279 OA
BRANCH   5   6
HETATM    6  P   UNK N   1      21.714  17.968   4.607  0.00  0.00     0.391 P 
HETATM    7  O   UNK N   1      22.961  18.586   3.917  0.00  0.00    -0.632 OA
BRANCH   6   8
HETATM    8  O   UNK N   1      22.832  18.206   5.912  0.00  0.00    -0.307 OA
HETATM    9  H   UNK N   1      23.312  19.039   6.047  0.00  0.00     0.222 HD
ENDBRANCH   6   8
BRANCH   6  10
HETATM   10  O   UNK N   1      21.064  19.092   5.760  0.00  0.00    -0.307 OA
HETATM   11  H   UNK N   1      20.643  19.950   5.595  0.00  0.00     0.222 HD
ENDBRANCH   6  10
ENDBRANCH   5   6
ENDBRANCH   1   5
BRANCH   1  12
HETATM   12  C   UNK N   1      20.873  20.116   1.504  0.00  0.00     0.172 C 
HETATM   13  O   UNK N   1      21.170  21.215   1.943  0.00  0.00    -0.648 OA
BRANCH  12  14
HETATM   14  O   UNK N   1      20.537  19.992   0.205  0.00  0.00    -0.774 OA
HETATM   15  H   UNK N   1      20.159  19.231  -0.190  0.00  0.00     0.167 HD
ENDBRANCH  12  14
ENDBRANCH   1  12
TORSDOF 8
ENDMDL
