MODEL 1
REMARK VINA RESULT:      -4.1      0.000      0.000
REMARK  6 active torsions:
REMARK  status: ('A' for Active; 'I' for Inactive)
REMARK    1  A    between atoms: O_1  and  C_2 
REMARK    2  A    between atoms: C_2  and  C_3 
REMARK    3  A    between atoms: C_3  and  O_4 
REMARK    4  A    between atoms: C_3  and  C_5 
REMARK    5  A    between atoms: C_5  and  S_6 
REMARK    6  A    between atoms: S_6  and  O_7 
ROOT
HETATM    1  C   UNK N   1      20.767  20.930   2.312  0.00  0.00     0.153 C 
ENDROOT
BRANCH   1   2
HETATM    2  C   UNK N   1      21.097  20.208   1.017  0.00  0.00     0.196 C 
BRANCH   2   3
HETATM    3  O   UNK N   1      20.722  20.989  -0.079  0.00  0.00    -0.398 OA
HETATM    4  H   UNK N   1      21.133  20.918  -0.955  0.00  0.00     0.209 HD
ENDBRANCH   2   3
ENDBRANCH   1   2
BRANCH   1   5
HETATM    5  O   UNK N   1      21.891  21.629   2.750  0.00  0.00    -0.393 OA
HETATM    6  H   UNK N   1      22.406  22.233   2.193  0.00  0.00     0.210 HD
ENDBRANCH   1   5
BRANCH   1   7
HETATM    7  C   UNK N   1      20.371  19.899   3.356  0.00  0.00     0.138 C 
BRANCH   7   8
HETATM    8  S   UNK N   1      19.928  18.320   2.568  0.00  0.00    -0.013 SA
BRANCH   8   9
HETATM    9  O   UNK N   1      18.279  18.773   2.426  0.00  0.00    -0.329 OA
HETATM   10  H   UNK N   1      17.586  18.204   2.798  0.00  0.00     0.227 HD
ENDBRANCH   8   9
ENDBRANCH   7   8
ENDBRANCH   1   7
TORSDOF 6
ENDMDL
MODEL 2
REMARK VINA RESULT:      -3.8      2.303      3.221
REMARK  6 active torsions:
REMARK  status: ('A' for Active; 'I' for Inactive)
REMARK    1  A    between atoms: O_1  and  C_2 
REMARK    2  A    between atoms: C_2  and  C_3 
REMARK    3  A    between atoms: C_3  and  O_4 
REMARK    4  A    between atoms: C_3  and  C_5 
REMARK    5  A    between atoms: C_5  and  S_6 
REMARK    6  A    between atoms: S_6  and  O_7 
ROOT
HETATM    1  C   UNK N   1      19.943  18.123   2.256  0.00  0.00     0.153 C 
ENDROOT
BRANCH   1   2
HETATM    2  C   UNK N   1      20.037  17.062   1.172  0.00  0.00     0.196 C 
BRANCH   2   3
HETATM    3  O   UNK N   1      20.248  17.662  -0.072  0.00  0.00    -0.398 OA
HETATM    4  H   UNK N   1      20.611  18.555  -0.182  0.00  0.00     0.209 HD
ENDBRANCH   2   3
ENDBRANCH   1   2
BRANCH   1   5
HETATM    5  O   UNK N   1      18.758  18.839   2.101  0.00  0.00    -0.393 OA
HETATM    6  H   UNK N   1      18.544  19.647   2.593  0.00  0.00     0.210 HD
ENDBRANCH   1   5
BRANCH   1   7
HETATM    7  C   UNK N   1      21.128  19.064   2.118  0.00  0.00     0.138 C 
BRANCH   7   8
HETATM    8  S   UNK N   1      20.570  20.751   1.724  0.00  0.00    -0.013 SA
BRANCH   8   9
HETATM    9  O   UNK N   1      20.596  20.441   0.036  0.00  0.00    -0.329 OA
HETATM   10  H   UNK N   1      20.678  21.177  -0.591  0.00  0.00     0.227 HD
ENDBRANCH   8   9
ENDBRANCH   7   8
ENDBRANCH   1   7
TORSDOF 6
ENDMDL
MODEL 3
REMARK VINA RESULT:      -3.7     16.122     16.492
REMARK  6 active torsions:
REMARK  status: ('A' for Active; 'I' for Inactive)
REMARK    1  A    between atoms: O_1  and  C_2 
REMARK    2  A    between atoms: C_2  and  C_3 
REMARK    3  A    between atoms: C_3  and  O_4 
REMARK    4  A    between atoms: C_3  and  C_5 
REMARK    5  A    between atoms: C_5  and  S_6 
REMARK    6  A    between atoms: S_6  and  O_7 
ROOT
HETATM    1  C   UNK N   1      34.472  17.127   9.406  0.00  0.00     0.153 C 
ENDROOT
BRANCH   1   2
HETATM    2  C   UNK N   1      34.529  18.086   8.229  0.00  0.00     0.196 C 
BRANCH   2   3
HETATM    3  O   UNK N   1      35.303  19.202   8.554  0.00  0.00    -0.398 OA
HETATM    4  H   UNK N   1      35.181  20.076   8.151  0.00  0.00     0.209 HD
ENDBRANCH   2   3
ENDBRANCH   1   2
BRANCH   1   5
HETATM    5  O   UNK N   1      35.523  17.403  10.278  0.00  0.00    -0.393 OA
HETATM    6  H   UNK N   1      36.437  17.111  10.138  0.00  0.00     0.210 HD
ENDBRANCH   1   5
BRANCH   1   7
HETATM    7  C   UNK N   1      34.607  15.706   8.882  0.00  0.00     0.138 C 
BRANCH   7   8
HETATM    8  S   UNK N   1      34.807  14.528  10.255  0.00  0.00    -0.013 SA
BRANCH   8   9
HETATM    9  O   UNK N   1      33.441  15.154  11.084  0.00  0.00    -0.329 OA
HETATM   10  H   UNK N   1      33.556  15.612  11.931  0.00  0.00     0.227 HD
ENDBRANCH   8   9
ENDBRANCH   7   8
ENDBRANCH   1   7
TORSDOF 6
ENDMDL
MODEL 4
REMARK VINA RESULT:      -3.5      1.922      2.461
REMARK  6 active torsions:
REMARK  status: ('A' for Active; 'I' for Inactive)
REMARK    1  A    between atoms: O_1  and  C_2 
REMARK    2  A    between atoms: C_2  and  C_3 
REMARK    3  A    between atoms: C_3  and  O_4 
REMARK    4  A    between atoms: C_3  and  C_5 
REMARK    5  A    between atoms: C_5  and  S_6 
REMARK    6  A    between atoms: S_6  and  O_7 
ROOT
HETATM    1  C   UNK N   1      22.274  20.413   2.638  0.00  0.00     0.153 C 
ENDROOT
BRANCH   1   2
HETATM    2  C   UNK N   1      23.719  20.338   3.102  0.00  0.00     0.196 C 
BRANCH   2   3
HETATM    3  O   UNK N   1      24.566  20.880   2.131  0.00  0.00    -0.398 OA
HETATM    4  H   UNK N   1      24.708  20.481   1.259  0.00  0.00     0.209 HD
ENDBRANCH   2   3
ENDBRANCH   1   2
BRANCH   1   5
HETATM    5  O   UNK N   1      21.820  21.726   2.750  0.00  0.00    -0.393 OA
HETATM    6  H   UNK N   1      22.208  22.386   3.347  0.00  0.00     0.210 HD
ENDBRANCH   1   5
BRANCH   1   7
HETATM    7  C   UNK N   1      21.433  19.507   3.521  0.00  0.00     0.138 C 
BRANCH   7   8
HETATM    8  S   UNK N   1      19.859  19.092   2.706  0.00  0.00    -0.013 SA
BRANCH   8   9
HETATM    9  O   UNK N   1      20.421  19.645   1.182  0.00  0.00    -0.329 OA
HETATM   10  H   UNK N   1      21.354  19.888   1.068  0.00  0.00     0.227 HD
ENDBRANCH   8   9
ENDBRANCH   7   8
ENDBRANCH   1   7
TORSDOF 6
ENDMDL
MODEL 5
REMARK VINA RESULT:      -3.5     15.848     16.694
REMARK  6 active torsions:
REMARK  status: ('A' for Active; 'I' for Inactive)
REMARK    1  A    between atoms: O_1  and  C_2 
REMARK    2  A    between atoms: C_2  and  C_3 
REMARK    3  A    between atoms: C_3  and  O_4 
REMARK    4  A    between atoms: C_3  and  C_5 
REMARK    5  A    between atoms: C_5  and  S_6 
REMARK    6  A    between atoms: S_6  and  O_7 
ROOT
HETATM    1  C   UNK N   1      35.325  15.897  10.443  0.00  0.00     0.153 C 
ENDROOT
BRANCH   1   2
HETATM    2  C   UNK N   1      34.568  14.843  11.235  0.00  0.00     0.196 C 
BRANCH   2   3
HETATM    3  O   UNK N   1      33.192  15.033  11.097  0.00  0.00    -0.398 OA
HETATM    4  H   UNK N   1      32.762  15.255  10.256  0.00  0.00     0.209 HD
ENDBRANCH   2   3
ENDBRANCH   1   2
BRANCH   1   5
HETATM    5  O   UNK N   1      35.050  17.157  10.971  0.00  0.00    -0.393 OA
HETATM    6  H   UNK N   1      34.760  17.916  10.442  0.00  0.00     0.210 HD
ENDBRANCH   1   5
BRANCH   1   7
HETATM    7  C   UNK N   1      34.864  15.841   8.995  0.00  0.00     0.138 C 
BRANCH   7   8
HETATM    8  S   UNK N   1      34.284  17.474   8.439  0.00  0.00    -0.013 SA
BRANCH   8   9
HETATM    9  O   UNK N   1      32.739  17.247   9.151  0.00  0.00    -0.329 OA
HETATM   10  H   UNK N   1      32.134  16.579   8.792  0.00  0.00     0.227 HD
ENDBRANCH   8   9
ENDBRANCH   7   8
ENDBRANCH   1   7
TORSDOF 6
ENDMDL
MODEL 6
REMARK VINA RESULT:      -3.5     18.087     18.931
REMARK  6 active torsions:
REMARK  status: ('A' for Active; 'I' for Inactive)
REMARK    1  A    between atoms: O_1  and  C_2 
REMARK    2  A    between atoms: C_2  and  C_3 
REMARK    3  A    between atoms: C_3  and  O_4 
REMARK    4  A    between atoms: C_3  and  C_5 
REMARK    5  A    between atoms: C_5  and  S_6 
REMARK    6  A    between atoms: S_6  and  O_7 
ROOT
HETATM    1  C   UNK N   1      34.843  14.844  11.163  0.00  0.00     0.153 C 
ENDROOT
BRANCH   1   2
HETATM    2  C   UNK N   1      35.454  16.235  11.110  0.00  0.00     0.196 C 
BRANCH   2   3
HETATM    3  O   UNK N   1      36.826  16.150  10.862  0.00  0.00    -0.398 OA
HETATM    4  H   UNK N   1      37.308  16.771  10.294  0.00  0.00     0.209 HD
ENDBRANCH   2   3
ENDBRANCH   1   2
BRANCH   1   5
HETATM    5  O   UNK N   1      33.455  14.951  11.236  0.00  0.00    -0.393 OA
HETATM    6  H   UNK N   1      32.976  15.273  12.015  0.00  0.00     0.210 HD
ENDBRANCH   1   5
BRANCH   1   7
HETATM    7  C   UNK N   1      35.364  14.132  12.401  0.00  0.00     0.138 C 
BRANCH   7   8
HETATM    8  S   UNK N   1      36.255  12.612  11.944  0.00  0.00    -0.013 SA
BRANCH   8   9
HETATM    9  O   UNK N   1      37.719  13.467  11.677  0.00  0.00    -0.329 OA
HETATM   10  H   UNK N   1      38.033  13.622  10.772  0.00  0.00     0.227 HD
ENDBRANCH   8   9
ENDBRANCH   7   8
ENDBRANCH   1   7
TORSDOF 6
ENDMDL
MODEL 7
REMARK VINA RESULT:      -3.4     23.814     24.667
REMARK  6 active torsions:
REMARK  status: ('A' for Active; 'I' for Inactive)
REMARK    1  A    between atoms: O_1  and  C_2 
REMARK    2  A    between atoms: C_2  and  C_3 
REMARK    3  A    between atoms: C_3  and  O_4 
REMARK    4  A    between atoms: C_3  and  C_5 
REMARK    5  A    between atoms: C_5  and  S_6 
REMARK    6  A    between atoms: S_6  and  O_7 
ROOT
HETATM    1  C   UNK N   1      43.985  23.650   2.267  0.00  0.00     0.153 C 
ENDROOT
BRANCH   1   2
HETATM    2  C   UNK N   1      45.156  24.491   1.788  0.00  0.00     0.196 C 
BRANCH   2   3
HETATM    3  O   UNK N   1      46.170  24.497   2.748  0.00  0.00    -0.398 OA
HETATM    4  H   UNK N   1      46.189  25.103   3.505  0.00  0.00     0.209 HD
ENDBRANCH   2   3
ENDBRANCH   1   2
BRANCH   1   5
HETATM    5  O   UNK N   1      43.685  23.984   3.587  0.00  0.00    -0.393 OA
HETATM    6  H   UNK N   1      43.313  24.836   3.860  0.00  0.00     0.210 HD
ENDBRANCH   1   5
BRANCH   1   7
HETATM    7  C   UNK N   1      44.377  22.183   2.191  0.00  0.00     0.138 C 
BRANCH   7   8
HETATM    8  S   UNK N   1      44.358  21.423   3.844  0.00  0.00    -0.013 SA
BRANCH   8   9
HETATM    9  O   UNK N   1      45.846  22.160   4.278  0.00  0.00    -0.329 OA
HETATM   10  H   UNK N   1      46.675  21.663   4.196  0.00  0.00     0.227 HD
ENDBRANCH   8   9
ENDBRANCH   7   8
ENDBRANCH   1   7
TORSDOF 6
ENDMDL
MODEL 8
REMARK VINA RESULT:      -3.4     11.755     12.702
REMARK  6 active torsions:
REMARK  status: ('A' for Active; 'I' for Inactive)
REMARK    1  A    between atoms: O_1  and  C_2 
REMARK    2  A    between atoms: C_2  and  C_3 
REMARK    3  A    between atoms: C_3  and  O_4 
REMARK    4  A    between atoms: C_3  and  C_5 
REMARK    5  A    between atoms: C_5  and  S_6 
REMARK    6  A    between atoms: S_6  and  O_7 
ROOT
HETATM    1  C   UNK N   1      32.060  21.741  -4.080  0.00  0.00     0.153 C 
ENDROOT
BRANCH   1   2
HETATM    2  C   UNK N   1      33.194  21.094  -3.303  0.00  0.00     0.196 C 
BRANCH   2   3
HETATM    3  O   UNK N   1      32.896  21.080  -1.938  0.00  0.00    -0.398 OA
HETATM    4  H   UNK N   1      33.505  21.398  -1.253  0.00  0.00     0.209 HD
ENDBRANCH   2   3
ENDBRANCH   1   2
BRANCH   1   5
HETATM    5  O   UNK N   1      32.199  23.127  -4.033  0.00  0.00    -0.393 OA
HETATM    6  H   UNK N   1      32.964  23.583  -3.650  0.00  0.00     0.210 HD
ENDBRANCH   1   5
BRANCH   1   7
HETATM    7  C   UNK N   1      30.741  21.342  -3.439  0.00  0.00     0.138 C 
BRANCH   7   8
HETATM    8  S   UNK N   1      29.775  22.814  -2.978  0.00  0.00    -0.013 SA
BRANCH   8   9
HETATM    9  O   UNK N   1      30.599  22.972  -1.480  0.00  0.00    -0.329 OA
HETATM   10  H   UNK N   1      31.478  23.381  -1.452  0.00  0.00     0.227 HD
ENDBRANCH   8   9
ENDBRANCH   7   8
ENDBRANCH   1   7
TORSDOF 6
ENDMDL
MODEL 9
REMARK VINA RESULT:      -3.4     10.705     11.589
REMARK  6 active torsions:
REMARK  status: ('A' for Active; 'I' for Inactive)
REMARK    1  A    between atoms: O_1  and  C_2 
REMARK    2  A    between atoms: C_2  and  C_3 
REMARK    3  A    between atoms: C_3  and  O_4 
REMARK    4  A    between atoms: C_3  and  C_5 
REMARK    5  A    between atoms: C_5  and  S_6 
REMARK    6  A    between atoms: S_6  and  O_7 
ROOT
HETATM    1  C   UNK N   1      31.039  22.790  -2.872  0.00  0.00     0.153 C 
ENDROOT
BRANCH   1   2
HETATM    2  C   UNK N   1      31.926  21.578  -3.103  0.00  0.00     0.196 C 
BRANCH   2   3
HETATM    3  O   UNK N   1      32.682  21.309  -1.960  0.00  0.00    -0.398 OA
HETATM    4  H   UNK N   1      32.328  20.863  -1.175  0.00  0.00     0.209 HD
ENDBRANCH   2   3
ENDBRANCH   1   2
BRANCH   1   5
HETATM    5  O   UNK N   1      30.708  22.870  -1.520  0.00  0.00    -0.393 OA
HETATM    6  H   UNK N   1      30.388  23.676  -1.086  0.00  0.00     0.210 HD
ENDBRANCH   1   5
BRANCH   1   7
HETATM    7  C   UNK N   1      29.773  22.631  -3.697  0.00  0.00     0.138 C 
BRANCH   7   8
HETATM    8  S   UNK N   1      28.650  24.039  -3.435  0.00  0.00    -0.013 SA
BRANCH   8   9
HETATM    9  O   UNK N   1      27.912  23.289  -2.079  0.00  0.00    -0.329 OA
HETATM   10  H   UNK N   1      27.038  22.878  -2.169  0.00  0.00     0.227 HD
ENDBRANCH   8   9
ENDBRANCH   7   8
ENDBRANCH   1   7
TORSDOF 6
ENDMDL
