MODEL 1
REMARK VINA RESULT:      -4.9      0.000      0.000
REMARK  3 active torsions:
REMARK  status: ('A' for Active; 'I' for Inactive)
REMARK    1  A    between atoms: O_1  and  C_2 
REMARK    2  A    between atoms: C_2  and  C_3 
REMARK    3  A    between atoms: C_7  and  O_8 
ROOT
HETATM    1  C   UNK N   1      23.326  12.572  10.504  0.00  0.00     0.080 A 
HETATM    2  C   UNK N   1      22.306  12.036  11.290  0.00  0.00     0.092 A 
HETATM    3  C   UNK N   1      21.004  12.477  11.095  0.00  0.00     0.209 A 
HETATM    4  O   UNK N   1      20.100  12.020  11.772  0.00  0.00    -0.285 OA
HETATM    5  C   UNK N   1      20.746  13.443  10.119  0.00  0.00     0.138 A 
HETATM    6  C   UNK N   1      21.814  13.938   9.367  0.00  0.00     0.182 A 
HETATM    7  O   UNK N   1      23.052  13.494   9.579  0.00  0.00    -0.322 OA
ENDROOT
BRANCH   1   8
HETATM    8  C   UNK N   1      24.722  12.093  10.720  0.00  0.00     0.229 C 
BRANCH   8   9
HETATM    9  O   UNK N   1      25.516  13.107  11.253  0.00  0.00    -0.394 OA
HETATM   10  H   UNK N   1      25.228  13.582  12.049  0.00  0.00     0.209 HD
ENDBRANCH   8   9
ENDBRANCH   1   8
BRANCH   5  11
HETATM   11  O   UNK N   1      19.498  13.892   9.904  0.00  0.00    -0.355 OA
HETATM   12  H   UNK N   1      18.844  13.793  10.567  0.00  0.00     0.218 HD
ENDBRANCH   5  11
TORSDOF 3
ENDMDL
MODEL 2
REMARK VINA RESULT:      -4.8     11.458     13.005
REMARK  3 active torsions:
REMARK  status: ('A' for Active; 'I' for Inactive)
REMARK    1  A    between atoms: O_1  and  C_2 
REMARK    2  A    between atoms: C_2  and  C_3 
REMARK    3  A    between atoms: C_7  and  O_8 
ROOT
HETATM    1  C   UNK N   1      34.521  17.269   9.110  0.00  0.00     0.080 A 
HETATM    2  C   UNK N   1      33.637  16.227   8.832  0.00  0.00     0.092 A 
HETATM    3  C   UNK N   1      33.554  15.161   9.718  0.00  0.00     0.209 A 
HETATM    4  O   UNK N   1      32.787  14.241   9.491  0.00  0.00    -0.285 OA
HETATM    5  C   UNK N   1      34.355  15.156  10.862  0.00  0.00     0.138 A 
HETATM    6  C   UNK N   1      35.219  16.232  11.081  0.00  0.00     0.182 A 
HETATM    7  O   UNK N   1      35.275  17.240  10.212  0.00  0.00    -0.322 OA
ENDROOT
BRANCH   1   8
HETATM    8  C   UNK N   1      34.605  18.410   8.154  0.00  0.00     0.229 C 
BRANCH   8   9
HETATM    9  O   UNK N   1      35.457  19.401   8.638  0.00  0.00    -0.394 OA
HETATM   10  H   UNK N   1      36.304  19.157   9.044  0.00  0.00     0.209 HD
ENDBRANCH   8   9
ENDBRANCH   1   8
BRANCH   5  11
HETATM   11  O   UNK N   1      34.300  14.141  11.741  0.00  0.00    -0.355 OA
HETATM   12  H   UNK N   1      35.084  13.688  11.983  0.00  0.00     0.218 HD
ENDBRANCH   5  11
TORSDOF 3
ENDMDL
MODEL 3
REMARK VINA RESULT:      -4.7     12.075     13.101
REMARK  3 active torsions:
REMARK  status: ('A' for Active; 'I' for Inactive)
REMARK    1  A    between atoms: O_1  and  C_2 
REMARK    2  A    between atoms: C_2  and  C_3 
REMARK    3  A    between atoms: C_7  and  O_8 
ROOT
HETATM    1  C   UNK N   1      34.358  15.796   9.379  0.00  0.00     0.080 A 
HETATM    2  C   UNK N   1      34.724  17.141   9.427  0.00  0.00     0.092 A 
HETATM    3  C   UNK N   1      34.640  17.904   8.270  0.00  0.00     0.209 A 
HETATM    4  O   UNK N   1      34.955  19.081   8.294  0.00  0.00    -0.285 OA
HETATM    5  C   UNK N   1      34.192  17.309   7.088  0.00  0.00     0.138 A 
HETATM    6  C   UNK N   1      33.842  15.957   7.108  0.00  0.00     0.182 A 
HETATM    7  O   UNK N   1      33.934  15.253   8.235  0.00  0.00    -0.322 OA
ENDROOT
BRANCH   1   8
HETATM    8  C   UNK N   1      34.451  14.984  10.626  0.00  0.00     0.229 C 
BRANCH   8   9
HETATM    9  O   UNK N   1      33.205  14.874  11.240  0.00  0.00    -0.394 OA
HETATM   10  H   UNK N   1      32.934  14.034  11.642  0.00  0.00     0.209 HD
ENDBRANCH   8   9
ENDBRANCH   1   8
BRANCH   5  11
HETATM   11  O   UNK N   1      34.099  18.018   5.950  0.00  0.00    -0.355 OA
HETATM   12  H   UNK N   1      33.629  17.668   5.218  0.00  0.00     0.218 HD
ENDBRANCH   5  11
TORSDOF 3
ENDMDL
MODEL 4
REMARK VINA RESULT:      -4.7      9.685     11.134
REMARK  3 active torsions:
REMARK  status: ('A' for Active; 'I' for Inactive)
REMARK    1  A    between atoms: O_1  and  C_2 
REMARK    2  A    between atoms: C_2  and  C_3 
REMARK    3  A    between atoms: C_7  and  O_8 
ROOT
HETATM    1  C   UNK N   1      20.310  18.126   1.447  0.00  0.00     0.080 A 
HETATM    2  C   UNK N   1      20.386  18.322   2.826  0.00  0.00     0.092 A 
HETATM    3  C   UNK N   1      20.817  19.551   3.308  0.00  0.00     0.209 A 
HETATM    4  O   UNK N   1      20.890  19.741   4.509  0.00  0.00    -0.285 OA
HETATM    5  C   UNK N   1      21.162  20.559   2.404  0.00  0.00     0.138 A 
HETATM    6  C   UNK N   1      21.062  20.296   1.035  0.00  0.00     0.182 A 
HETATM    7  O   UNK N   1      20.646  19.106   0.606  0.00  0.00    -0.322 OA
ENDROOT
BRANCH   1   8
HETATM    8  C   UNK N   1      19.846  16.803   0.938  0.00  0.00     0.229 C 
BRANCH   8   9
HETATM    9  O   UNK N   1      18.632  16.928   0.266  0.00  0.00    -0.394 OA
HETATM   10  H   UNK N   1      18.072  17.707   0.417  0.00  0.00     0.209 HD
ENDBRANCH   8   9
ENDBRANCH   1   8
BRANCH   5  11
HETATM   11  O   UNK N   1      21.582  21.760   2.835  0.00  0.00    -0.355 OA
HETATM   12  H   UNK N   1      22.296  22.189   2.405  0.00  0.00     0.218 HD
ENDBRANCH   5  11
TORSDOF 3
ENDMDL
MODEL 5
REMARK VINA RESULT:      -4.5      1.081      2.117
REMARK  3 active torsions:
REMARK  status: ('A' for Active; 'I' for Inactive)
REMARK    1  A    between atoms: O_1  and  C_2 
REMARK    2  A    between atoms: C_2  and  C_3 
REMARK    3  A    between atoms: C_7  and  O_8 
ROOT
HETATM    1  C   UNK N   1      23.664  12.898  10.248  0.00  0.00     0.080 A 
HETATM    2  C   UNK N   1      22.473  13.322   9.660  0.00  0.00     0.092 A 
HETATM    3  C   UNK N   1      21.267  12.955  10.241  0.00  0.00     0.209 A 
HETATM    4  O   UNK N   1      20.216  13.316   9.740  0.00  0.00    -0.285 OA
HETATM    5  C   UNK N   1      21.274  12.172  11.398  0.00  0.00     0.138 A 
HETATM    6  C   UNK N   1      22.502  11.781  11.937  0.00  0.00     0.182 A 
HETATM    7  O   UNK N   1      23.642  12.150  11.354  0.00  0.00    -0.322 OA
ENDROOT
BRANCH   1   8
HETATM    8  C   UNK N   1      24.955  13.296   9.618  0.00  0.00     0.229 C 
BRANCH   8   9
HETATM    9  O   UNK N   1      25.875  13.701  10.585  0.00  0.00    -0.394 OA
HETATM   10  H   UNK N   1      26.647  14.231  10.329  0.00  0.00     0.209 HD
ENDBRANCH   8   9
ENDBRANCH   1   8
BRANCH   5  11
HETATM   11  O   UNK N   1      20.125  11.798  11.987  0.00  0.00    -0.355 OA
HETATM   12  H   UNK N   1      19.968  12.011  12.886  0.00  0.00     0.218 HD
ENDBRANCH   5  11
TORSDOF 3
ENDMDL
MODEL 6
REMARK VINA RESULT:      -4.5     11.659     13.184
REMARK  3 active torsions:
REMARK  status: ('A' for Active; 'I' for Inactive)
REMARK    1  A    between atoms: O_1  and  C_2 
REMARK    2  A    between atoms: C_2  and  C_3 
REMARK    3  A    between atoms: C_7  and  O_8 
ROOT
HETATM    1  C   UNK N   1      34.335  17.047   9.068  0.00  0.00     0.080 A 
HETATM    2  C   UNK N   1      35.249  16.983  10.119  0.00  0.00     0.092 A 
HETATM    3  C   UNK N   1      35.164  15.932  11.022  0.00  0.00     0.209 A 
HETATM    4  O   UNK N   1      35.955  15.860  11.946  0.00  0.00    -0.285 OA
HETATM    5  C   UNK N   1      34.169  14.966  10.857  0.00  0.00     0.138 A 
HETATM    6  C   UNK N   1      33.285  15.089   9.782  0.00  0.00     0.182 A 
HETATM    7  O   UNK N   1      33.393  16.110   8.934  0.00  0.00    -0.322 OA
ENDROOT
BRANCH   1   8
HETATM    8  C   UNK N   1      34.433  18.180   8.102  0.00  0.00     0.229 C 
BRANCH   8   9
HETATM    9  O   UNK N   1      35.277  19.176   8.591  0.00  0.00    -0.394 OA
HETATM   10  H   UNK N   1      35.158  20.096   8.306  0.00  0.00     0.209 HD
ENDBRANCH   8   9
ENDBRANCH   1   8
BRANCH   5  11
HETATM   11  O   UNK N   1      34.058  13.935  11.712  0.00  0.00    -0.355 OA
HETATM   12  H   UNK N   1      33.706  13.118  11.418  0.00  0.00     0.218 HD
ENDBRANCH   5  11
TORSDOF 3
ENDMDL
MODEL 7
REMARK VINA RESULT:      -4.4     10.830     13.039
REMARK  3 active torsions:
REMARK  status: ('A' for Active; 'I' for Inactive)
REMARK    1  A    between atoms: O_1  and  C_2 
REMARK    2  A    between atoms: C_2  and  C_3 
REMARK    3  A    between atoms: C_7  and  O_8 
ROOT
HETATM    1  C   UNK N   1      32.785  16.891   7.534  0.00  0.00     0.080 A 
HETATM    2  C   UNK N   1      33.570  18.044   7.528  0.00  0.00     0.092 A 
HETATM    3  C   UNK N   1      34.565  18.187   8.486  0.00  0.00     0.209 A 
HETATM    4  O   UNK N   1      35.260  19.187   8.496  0.00  0.00    -0.285 OA
HETATM    5  C   UNK N   1      34.756  17.175   9.431  0.00  0.00     0.138 A 
HETATM    6  C   UNK N   1      33.935  16.046   9.381  0.00  0.00     0.182 A 
HETATM    7  O   UNK N   1      32.989  15.940   8.448  0.00  0.00    -0.322 OA
ENDROOT
BRANCH   1   8
HETATM    8  C   UNK N   1      31.719  16.746   6.501  0.00  0.00     0.229 C 
BRANCH   8   9
HETATM    9  O   UNK N   1      30.495  17.205   6.984  0.00  0.00    -0.394 OA
HETATM   10  H   UNK N   1      29.703  17.155   6.426  0.00  0.00     0.209 HD
ENDBRANCH   8   9
ENDBRANCH   1   8
BRANCH   5  11
HETATM   11  O   UNK N   1      35.709  17.280  10.373  0.00  0.00    -0.355 OA
HETATM   12  H   UNK N   1      35.469  17.353  11.276  0.00  0.00     0.218 HD
ENDBRANCH   5  11
TORSDOF 3
ENDMDL
MODEL 8
REMARK VINA RESULT:      -4.4     22.002     24.347
REMARK  3 active torsions:
REMARK  status: ('A' for Active; 'I' for Inactive)
REMARK    1  A    between atoms: O_1  and  C_2 
REMARK    2  A    between atoms: C_2  and  C_3 
REMARK    3  A    between atoms: C_7  and  O_8 
ROOT
HETATM    1  C   UNK N   1      42.019  21.909   2.546  0.00  0.00     0.080 A 
HETATM    2  C   UNK N   1      42.677  23.137   2.495  0.00  0.00     0.092 A 
HETATM    3  C   UNK N   1      43.942  23.246   3.057  0.00  0.00     0.209 A 
HETATM    4  O   UNK N   1      44.532  24.312   3.022  0.00  0.00    -0.285 OA
HETATM    5  C   UNK N   1      44.524  22.128   3.659  0.00  0.00     0.138 A 
HETATM    6  C   UNK N   1      43.810  20.927   3.675  0.00  0.00     0.182 A 
HETATM    7  O   UNK N   1      42.598  20.855   3.127  0.00  0.00    -0.322 OA
ENDROOT
BRANCH   1   8
HETATM    8  C   UNK N   1      40.661  21.799   1.940  0.00  0.00     0.229 C 
BRANCH   8   9
HETATM    9  O   UNK N   1      39.757  21.245   2.845  0.00  0.00    -0.394 OA
HETATM   10  H   UNK N   1      39.845  20.316   3.112  0.00  0.00     0.209 HD
ENDBRANCH   8   9
ENDBRANCH   1   8
BRANCH   5  11
HETATM   11  O   UNK N   1      45.746  22.198   4.213  0.00  0.00    -0.355 OA
HETATM   12  H   UNK N   1      45.857  22.593   5.055  0.00  0.00     0.218 HD
ENDBRANCH   5  11
TORSDOF 3
ENDMDL
MODEL 9
REMARK VINA RESULT:      -4.3      5.819      6.761
REMARK  3 active torsions:
REMARK  status: ('A' for Active; 'I' for Inactive)
REMARK    1  A    between atoms: O_1  and  C_2 
REMARK    2  A    between atoms: C_2  and  C_3 
REMARK    3  A    between atoms: C_7  and  O_8 
ROOT
HETATM    1  C   UNK N   1      19.012  16.702   8.206  0.00  0.00     0.080 A 
HETATM    2  C   UNK N   1      19.833  17.718   8.696  0.00  0.00     0.092 A 
HETATM    3  C   UNK N   1      19.324  18.595   9.645  0.00  0.00     0.209 A 
HETATM    4  O   UNK N   1      20.026  19.489  10.084  0.00  0.00    -0.285 OA
HETATM    5  C   UNK N   1      18.007  18.441  10.085  0.00  0.00     0.138 A 
HETATM    6  C   UNK N   1      17.239  17.402   9.553  0.00  0.00     0.182 A 
HETATM    7  O   UNK N   1      17.757  16.577   8.644  0.00  0.00    -0.322 OA
ENDROOT
BRANCH   1   8
HETATM    8  C   UNK N   1      19.566  15.765   7.188  0.00  0.00     0.229 C 
BRANCH   8   9
HETATM    9  O   UNK N   1      18.712  15.663   6.091  0.00  0.00    -0.394 OA
HETATM   10  H   UNK N   1      17.776  15.906   6.180  0.00  0.00     0.209 HD
ENDBRANCH   8   9
ENDBRANCH   1   8
BRANCH   5  11
HETATM   11  O   UNK N   1      17.483  19.272  11.002  0.00  0.00    -0.355 OA
HETATM   12  H   UNK N   1      16.689  19.733  10.816  0.00  0.00     0.218 HD
ENDBRANCH   5  11
TORSDOF 3
ENDMDL
