MODEL 1
REMARK VINA RESULT:      -8.0      0.000      0.000
REMARK  0 active torsions:
REMARK  status: ('A' for Active; 'I' for Inactive)
ROOT
HETATM    1  C   UNK N   1      27.921  23.794  -8.969  0.00  0.00     0.024 C 
HETATM    2  C   UNK N   1      26.410  23.884  -8.750  0.00  0.00     0.021 C 
HETATM    3  C   UNK N   1      25.873  25.269  -9.074  0.00  0.00     0.018 C 
HETATM    4  C   UNK N   1      26.530  26.333  -8.175  0.00  0.00     0.007 C 
HETATM    5  C   UNK N   1      26.723  25.939  -6.683  0.00  0.00     0.002 C 
HETATM    6  C   UNK N   1      26.649  24.437  -6.264  0.00  0.00    -0.004 C 
HETATM    7  C   UNK N   1      25.969  23.601  -7.338  0.00  0.00     0.006 C 
HETATM    8  C   UNK N   1      25.870  22.093  -7.181  0.00  0.00     0.013 C 
HETATM    9  C   UNK N   1      25.305  21.655  -8.533  0.00  0.00     0.079 C 
HETATM   10  C   UNK N   1      25.754  22.748  -9.446  0.00  0.00     0.135 C 
HETATM   11  O   UNK N   1      25.696  22.651 -10.661  0.00  0.00    -0.297 OA
HETATM   12  C   UNK N   1      25.859  24.251  -4.967  0.00  0.00     0.006 C 
HETATM   13  C   UNK N   1      26.351  25.126  -3.816  0.00  0.00     0.006 C 
HETATM   14  C   UNK N   1      26.780  26.534  -4.242  0.00  0.00     0.005 C 
HETATM   15  C   UNK N   1      26.282  26.978  -5.636  0.00  0.00    -0.018 C 
HETATM   16  C   UNK N   1      26.899  28.325  -5.942  0.00  0.00    -0.013 C 
HETATM   17  C   UNK N   1      27.009  29.269  -4.996  0.00  0.00     0.047 C 
HETATM   18  C   UNK N   1      26.666  28.967  -3.588  0.00  0.00     0.149 C 
HETATM   19  O   UNK N   1      26.574  29.873  -2.780  0.00  0.00    -0.293 OA
HETATM   20  C   UNK N   1      26.422  27.546  -3.145  0.00  0.00     0.088 C 
HETATM   21  C   UNK N   1      24.761  27.113  -5.659  0.00  0.00     0.020 C 
ENDROOT
TORSDOF 0
ENDMDL
MODEL 2
REMARK VINA RESULT:      -7.3      3.724      5.149
REMARK  0 active torsions:
REMARK  status: ('A' for Active; 'I' for Inactive)
ROOT
HETATM    1  C   UNK N   1      25.403  22.496  -7.599  0.00  0.00     0.024 C 
HETATM    2  C   UNK N   1      26.488  23.445  -8.106  0.00  0.00     0.021 C 
HETATM    3  C   UNK N   1      27.753  22.701  -8.502  0.00  0.00     0.018 C 
HETATM    4  C   UNK N   1      28.337  21.939  -7.298  0.00  0.00     0.007 C 
HETATM    5  C   UNK N   1      28.313  22.693  -5.938  0.00  0.00     0.002 C 
HETATM    6  C   UNK N   1      27.377  23.930  -5.757  0.00  0.00    -0.004 C 
HETATM    7  C   UNK N   1      26.929  24.480  -7.103  0.00  0.00     0.006 C 
HETATM    8  C   UNK N   1      25.937  25.629  -7.164  0.00  0.00     0.013 C 
HETATM    9  C   UNK N   1      25.632  25.725  -8.660  0.00  0.00     0.079 C 
HETATM   10  C   UNK N   1      25.903  24.337  -9.139  0.00  0.00     0.135 C 
HETATM   11  O   UNK N   1      25.557  23.948 -10.243  0.00  0.00    -0.297 OA
HETATM   12  C   UNK N   1      28.081  25.064  -5.008  0.00  0.00     0.006 C 
HETATM   13  C   UNK N   1      28.698  24.635  -3.679  0.00  0.00     0.006 C 
HETATM   14  C   UNK N   1      29.337  23.242  -3.710  0.00  0.00     0.005 C 
HETATM   15  C   UNK N   1      29.618  22.679  -5.122  0.00  0.00    -0.018 C 
HETATM   16  C   UNK N   1      30.123  21.263  -4.965  0.00  0.00    -0.013 C 
HETATM   17  C   UNK N   1      30.981  20.936  -3.987  0.00  0.00     0.047 C 
HETATM   18  C   UNK N   1      31.344  21.921  -2.944  0.00  0.00     0.149 C 
HETATM   19  O   UNK N   1      32.268  21.688  -2.187  0.00  0.00    -0.293 OA
HETATM   20  C   UNK N   1      30.582  23.216  -2.813  0.00  0.00     0.088 C 
HETATM   21  C   UNK N   1      30.680  23.507  -5.842  0.00  0.00     0.020 C 
ENDROOT
TORSDOF 0
ENDMDL
MODEL 3
REMARK VINA RESULT:      -7.1     26.482     29.007
REMARK  0 active torsions:
REMARK  status: ('A' for Active; 'I' for Inactive)
ROOT
HETATM    1  C   UNK N   1      36.811  10.050  19.087  0.00  0.00     0.024 C 
HETATM    2  C   UNK N   1      35.347  10.471  18.955  0.00  0.00     0.021 C 
HETATM    3  C   UNK N   1      34.516   9.413  18.246  0.00  0.00     0.018 C 
HETATM    4  C   UNK N   1      35.051   9.161  16.824  0.00  0.00     0.007 C 
HETATM    5  C   UNK N   1      35.486  10.424  16.026  0.00  0.00     0.002 C 
HETATM    6  C   UNK N   1      35.756  11.762  16.785  0.00  0.00    -0.004 C 
HETATM    7  C   UNK N   1      35.134  11.741  18.173  0.00  0.00     0.006 C 
HETATM    8  C   UNK N   1      35.351  12.907  19.122  0.00  0.00     0.013 C 
HETATM    9  C   UNK N   1      34.731  12.394  20.424  0.00  0.00     0.079 C 
HETATM   10  C   UNK N   1      34.851  10.912  20.282  0.00  0.00     0.135 C 
HETATM   11  O   UNK N   1      34.674  10.150  21.219  0.00  0.00    -0.297 OA
HETATM   12  C   UNK N   1      35.171  12.962  16.036  0.00  0.00     0.006 C 
HETATM   13  C   UNK N   1      35.610  13.051  14.576  0.00  0.00     0.006 C 
HETATM   14  C   UNK N   1      35.704  11.694  13.869  0.00  0.00     0.005 C 
HETATM   15  C   UNK N   1      34.973  10.532  14.579  0.00  0.00    -0.018 C 
HETATM   16  C   UNK N   1      35.275   9.260  13.819  0.00  0.00    -0.013 C 
HETATM   17  C   UNK N   1      35.306   9.244  12.478  0.00  0.00     0.047 C 
HETATM   18  C   UNK N   1      35.191  10.502  11.708  0.00  0.00     0.149 C 
HETATM   19  O   UNK N   1      35.017  10.460  10.504  0.00  0.00    -0.293 OA
HETATM   20  C   UNK N   1      35.283  11.839  12.401  0.00  0.00     0.088 C 
HETATM   21  C   UNK N   1      33.462  10.757  14.588  0.00  0.00     0.020 C 
ENDROOT
TORSDOF 0
ENDMDL
MODEL 4
REMARK VINA RESULT:      -7.1     16.522     18.472
REMARK  0 active torsions:
REMARK  status: ('A' for Active; 'I' for Inactive)
ROOT
HETATM    1  C   UNK N   1      30.156  15.705   5.586  0.00  0.00     0.024 C 
HETATM    2  C   UNK N   1      31.533  15.446   4.975  0.00  0.00     0.021 C 
HETATM    3  C   UNK N   1      32.151  14.159   5.498  0.00  0.00     0.018 C 
HETATM    4  C   UNK N   1      32.332  14.222   7.026  0.00  0.00     0.007 C 
HETATM    5  C   UNK N   1      32.840  15.577   7.597  0.00  0.00     0.002 C 
HETATM    6  C   UNK N   1      32.745  16.868   6.722  0.00  0.00    -0.004 C 
HETATM    7  C   UNK N   1      32.550  16.523   5.254  0.00  0.00     0.006 C 
HETATM    8  C   UNK N   1      32.340  17.628   4.233  0.00  0.00     0.013 C 
HETATM    9  C   UNK N   1      32.005  16.846   2.962  0.00  0.00     0.079 C 
HETATM   10  C   UNK N   1      31.438  15.574   3.499  0.00  0.00     0.135 C 
HETATM   11  O   UNK N   1      30.840  14.776   2.795  0.00  0.00    -0.297 OA
HETATM   12  C   UNK N   1      34.013  17.717   6.831  0.00  0.00     0.006 C 
HETATM   13  C   UNK N   1      34.413  18.046   8.268  0.00  0.00     0.006 C 
HETATM   14  C   UNK N   1      34.189  16.896   9.256  0.00  0.00     0.005 C 
HETATM   15  C   UNK N   1      33.995  15.505   8.612  0.00  0.00    -0.018 C 
HETATM   16  C   UNK N   1      33.662  14.525   9.714  0.00  0.00    -0.013 C 
HETATM   17  C   UNK N   1      34.288  14.575  10.900  0.00  0.00     0.047 C 
HETATM   18  C   UNK N   1      35.217  15.684  11.214  0.00  0.00     0.149 C 
HETATM   19  O   UNK N   1      35.928  15.616  12.199  0.00  0.00    -0.293 OA
HETATM   20  C   UNK N   1      35.294  16.898  10.321  0.00  0.00     0.088 C 
HETATM   21  C   UNK N   1      35.269  15.044   7.907  0.00  0.00     0.020 C 
ENDROOT
TORSDOF 0
ENDMDL
MODEL 5
REMARK VINA RESULT:      -7.0     27.071     29.426
REMARK  0 active torsions:
REMARK  status: ('A' for Active; 'I' for Inactive)
ROOT
HETATM    1  C   UNK N   1      36.875   9.033  19.343  0.00  0.00     0.024 C 
HETATM    2  C   UNK N   1      35.405   9.244  18.980  0.00  0.00     0.021 C 
HETATM    3  C   UNK N   1      35.063   8.639  17.628  0.00  0.00     0.018 C 
HETATM    4  C   UNK N   1      35.908   9.282  16.513  0.00  0.00     0.007 C 
HETATM    5  C   UNK N   1      36.105  10.822  16.610  0.00  0.00     0.002 C 
HETATM    6  C   UNK N   1      35.830  11.553  17.963  0.00  0.00    -0.004 C 
HETATM    7  C   UNK N   1      34.988  10.689  18.890  0.00  0.00     0.006 C 
HETATM    8  C   UNK N   1      34.676  11.165  20.299  0.00  0.00     0.013 C 
HETATM    9  C   UNK N   1      33.995   9.944  20.919  0.00  0.00     0.079 C 
HETATM   10  C   UNK N   1      34.560   8.814  20.123  0.00  0.00     0.135 C 
HETATM   11  O   UNK N   1      34.435   7.648  20.462  0.00  0.00    -0.297 OA
HETATM   12  C   UNK N   1      35.078  12.868  17.750  0.00  0.00     0.006 C 
HETATM   13  C   UNK N   1      35.742  13.801  16.739  0.00  0.00     0.006 C 
HETATM   14  C   UNK N   1      36.354  13.079  15.533  0.00  0.00     0.005 C 
HETATM   15  C   UNK N   1      35.867  11.628  15.321  0.00  0.00    -0.018 C 
HETATM   16  C   UNK N   1      36.660  11.035  14.178  0.00  0.00    -0.013 C 
HETATM   17  C   UNK N   1      36.949  11.757  13.085  0.00  0.00     0.047 C 
HETATM   18  C   UNK N   1      36.626  13.200  13.030  0.00  0.00     0.149 C 
HETATM   19  O   UNK N   1      36.704  13.797  11.972  0.00  0.00    -0.293 OA
HETATM   20  C   UNK N   1      36.196  13.939  14.272  0.00  0.00     0.088 C 
HETATM   21  C   UNK N   1      34.382  11.594  14.963  0.00  0.00     0.020 C 
ENDROOT
TORSDOF 0
ENDMDL
MODEL 6
REMARK VINA RESULT:      -6.9     13.901     15.831
REMARK  0 active torsions:
REMARK  status: ('A' for Active; 'I' for Inactive)
ROOT
HETATM    1  C   UNK N   1      27.630  17.816   4.032  0.00  0.00     0.024 C 
HETATM    2  C   UNK N   1      28.041  16.365   4.285  0.00  0.00     0.021 C 
HETATM    3  C   UNK N   1      28.040  16.027   5.767  0.00  0.00     0.018 C 
HETATM    4  C   UNK N   1      29.031  16.924   6.531  0.00  0.00     0.007 C 
HETATM    5  C   UNK N   1      30.394  17.187   5.828  0.00  0.00     0.002 C 
HETATM    6  C   UNK N   1      30.539  16.914   4.298  0.00  0.00    -0.004 C 
HETATM    7  C   UNK N   1      29.421  16.014   3.793  0.00  0.00     0.006 C 
HETATM    8  C   UNK N   1      29.313  15.692   2.313  0.00  0.00     0.013 C 
HETATM    9  C   UNK N   1      27.981  14.944   2.232  0.00  0.00     0.079 C 
HETATM   10  C   UNK N   1      27.234  15.476   3.411  0.00  0.00     0.135 C 
HETATM   11  O   UNK N   1      26.037  15.292   3.564  0.00  0.00    -0.297 OA
HETATM   12  C   UNK N   1      31.866  16.226   3.971  0.00  0.00     0.006 C 
HETATM   13  C   UNK N   1      33.090  16.953   4.525  0.00  0.00     0.006 C 
HETATM   14  C   UNK N   1      32.877  17.560   5.917  0.00  0.00     0.005 C 
HETATM   15  C   UNK N   1      31.657  17.014   6.691  0.00  0.00    -0.018 C 
HETATM   16  C   UNK N   1      31.528  17.806   7.973  0.00  0.00    -0.013 C 
HETATM   17  C   UNK N   1      32.610  18.151   8.687  0.00  0.00     0.047 C 
HETATM   18  C   UNK N   1      33.970  17.893   8.164  0.00  0.00     0.149 C 
HETATM   19  O   UNK N   1      34.934  18.021   8.897  0.00  0.00    -0.293 OA
HETATM   20  C   UNK N   1      34.175  17.469   6.731  0.00  0.00     0.088 C 
HETATM   21  C   UNK N   1      31.841  15.538   7.038  0.00  0.00     0.020 C 
ENDROOT
TORSDOF 0
ENDMDL
MODEL 7
REMARK VINA RESULT:      -6.9     27.308     29.512
REMARK  0 active torsions:
REMARK  status: ('A' for Active; 'I' for Inactive)
ROOT
HETATM    1  C   UNK N   1      36.812  13.653  15.122  0.00  0.00     0.024 C 
HETATM    2  C   UNK N   1      35.666  12.697  14.787  0.00  0.00     0.021 C 
HETATM    3  C   UNK N   1      34.523  12.812  15.782  0.00  0.00     0.018 C 
HETATM    4  C   UNK N   1      35.003  12.471  17.205  0.00  0.00     0.007 C 
HETATM    5  C   UNK N   1      35.976  11.264  17.326  0.00  0.00     0.002 C 
HETATM    6  C   UNK N   1      36.722  10.743  16.057  0.00  0.00    -0.004 C 
HETATM    7  C   UNK N   1      36.052  11.240  14.785  0.00  0.00     0.006 C 
HETATM    8  C   UNK N   1      36.667  10.930  13.430  0.00  0.00     0.013 C 
HETATM    9  C   UNK N   1      35.802  11.758  12.477  0.00  0.00     0.079 C 
HETATM   10  C   UNK N   1      35.307  12.859  13.356  0.00  0.00     0.135 C 
HETATM   11  O   UNK N   1      34.766  13.858  12.910  0.00  0.00    -0.297 OA
HETATM   12  C   UNK N   1      36.739   9.214  16.000  0.00  0.00     0.006 C 
HETATM   13  C   UNK N   1      37.276   8.557  17.271  0.00  0.00     0.006 C 
HETATM   14  C   UNK N   1      36.848   9.259  18.564  0.00  0.00     0.005 C 
HETATM   15  C   UNK N   1      35.655  10.230  18.420  0.00  0.00    -0.018 C 
HETATM   16  C   UNK N   1      35.455  10.920  19.751  0.00  0.00    -0.013 C 
HETATM   17  C   UNK N   1      35.569  10.248  20.906  0.00  0.00     0.047 C 
HETATM   18  C   UNK N   1      36.039   8.844  20.916  0.00  0.00     0.149 C 
HETATM   19  O   UNK N   1      35.947   8.183  21.934  0.00  0.00    -0.293 OA
HETATM   20  C   UNK N   1      36.627   8.222  19.674  0.00  0.00     0.088 C 
HETATM   21  C   UNK N   1      34.376   9.478  18.055  0.00  0.00     0.020 C 
ENDROOT
TORSDOF 0
ENDMDL
MODEL 8
REMARK VINA RESULT:      -6.9      5.624      7.764
REMARK  0 active torsions:
REMARK  status: ('A' for Active; 'I' for Inactive)
ROOT
HETATM    1  C   UNK N   1      29.137  25.554  -4.316  0.00  0.00     0.024 C 
HETATM    2  C   UNK N   1      28.370  24.248  -4.101  0.00  0.00     0.021 C 
HETATM    3  C   UNK N   1      28.813  23.534  -2.834  0.00  0.00     0.018 C 
HETATM    4  C   UNK N   1      30.310  23.180  -2.901  0.00  0.00     0.007 C 
HETATM    5  C   UNK N   1      30.824  22.653  -4.272  0.00  0.00     0.002 C 
HETATM    6  C   UNK N   1      29.972  22.889  -5.559  0.00  0.00    -0.004 C 
HETATM    7  C   UNK N   1      28.535  23.241  -5.209  0.00  0.00     0.006 C 
HETATM    8  C   UNK N   1      27.550  23.602  -6.308  0.00  0.00     0.013 C 
HETATM    9  C   UNK N   1      26.322  24.056  -5.516  0.00  0.00     0.079 C 
HETATM   10  C   UNK N   1      26.916  24.518  -4.226  0.00  0.00     0.135 C 
HETATM   11  O   UNK N   1      26.281  25.167  -3.410  0.00  0.00    -0.297 OA
HETATM   12  C   UNK N   1      29.938  21.643  -6.448  0.00  0.00     0.006 C 
HETATM   13  C   UNK N   1      31.320  21.091  -6.789  0.00  0.00     0.006 C 
HETATM   14  C   UNK N   1      32.323  21.164  -5.631  0.00  0.00     0.005 C 
HETATM   15  C   UNK N   1      31.699  21.387  -4.235  0.00  0.00    -0.018 C 
HETATM   16  C   UNK N   1      32.828  21.559  -3.244  0.00  0.00    -0.013 C 
HETATM   17  C   UNK N   1      33.934  20.803  -3.314  0.00  0.00     0.047 C 
HETATM   18  C   UNK N   1      34.144  19.879  -4.451  0.00  0.00     0.149 C 
HETATM   19  O   UNK N   1      35.040  19.057  -4.405  0.00  0.00    -0.293 OA
HETATM   20  C   UNK N   1      33.253  19.944  -5.667  0.00  0.00     0.088 C 
HETATM   21  C   UNK N   1      30.850  20.189  -3.815  0.00  0.00     0.020 C 
ENDROOT
TORSDOF 0
ENDMDL
MODEL 9
REMARK VINA RESULT:      -6.8     13.839     15.412
REMARK  0 active torsions:
REMARK  status: ('A' for Active; 'I' for Inactive)
ROOT
HETATM    1  C   UNK N   1      26.047  17.474   4.745  0.00  0.00     0.024 C 
HETATM    2  C   UNK N   1      26.548  16.032   4.661  0.00  0.00     0.021 C 
HETATM    3  C   UNK N   1      27.096  15.545   5.993  0.00  0.00     0.018 C 
HETATM    4  C   UNK N   1      28.282  16.416   6.446  0.00  0.00     0.007 C 
HETATM    5  C   UNK N   1      29.288  16.830   5.334  0.00  0.00     0.002 C 
HETATM    6  C   UNK N   1      28.867  16.723   3.834  0.00  0.00    -0.004 C 
HETATM    7  C   UNK N   1      27.658  15.816   3.666  0.00  0.00     0.006 C 
HETATM    8  C   UNK N   1      27.021  15.641   2.298  0.00  0.00     0.013 C 
HETATM    9  C   UNK N   1      25.766  14.827   2.619  0.00  0.00     0.079 C 
HETATM   10  C   UNK N   1      25.493  15.192   4.041  0.00  0.00     0.135 C 
HETATM   11  O   UNK N   1      24.439  14.923   4.594  0.00  0.00    -0.297 OA
HETATM   12  C   UNK N   1      29.995  16.152   2.971  0.00  0.00     0.006 C 
HETATM   13  C   UNK N   1      31.323  16.890   3.126  0.00  0.00     0.006 C 
HETATM   14  C   UNK N   1      31.624  17.337   4.561  0.00  0.00     0.005 C 
HETATM   15  C   UNK N   1      30.781  16.644   5.655  0.00  0.00    -0.018 C 
HETATM   16  C   UNK N   1      31.117  17.292   6.980  0.00  0.00    -0.013 C 
HETATM   17  C   UNK N   1      32.379  17.625   7.290  0.00  0.00     0.047 C 
HETATM   18  C   UNK N   1      33.458  17.503   6.284  0.00  0.00     0.149 C 
HETATM   19  O   UNK N   1      34.620  17.612   6.628  0.00  0.00    -0.293 OA
HETATM   20  C   UNK N   1      33.131  17.240   4.835  0.00  0.00     0.088 C 
HETATM   21  C   UNK N   1      31.106  15.154   5.737  0.00  0.00     0.020 C 
ENDROOT
TORSDOF 0
ENDMDL
