MODEL 1
REMARK VINA RESULT:      -6.1      0.000      0.000
REMARK  7 active torsions:
REMARK  status: ('A' for Active; 'I' for Inactive)
REMARK    1  A    between atoms: C_5  and  N_4 
REMARK    2  A    between atoms: C_7  and  O_8 
REMARK    3  A    between atoms: C_9  and  C_10 
REMARK    4  A    between atoms: C_10  and  O_11 
REMARK    5  A    between atoms: O_11  and  P_12 
REMARK    6  A    between atoms: P_12  and  O_13 
REMARK    7  A    between atoms: P_12  and  O_14 
ROOT
HETATM    1  C   UNK N   1      35.903  11.693  14.739  0.00  0.00     0.235 C 
HETATM    2  C   UNK N   1      37.172  12.360  14.242  0.00  0.00     0.088 C 
HETATM    3  C   UNK N   1      36.915  12.270  12.781  0.00  0.00     0.153 C 
HETATM    4  C   UNK N   1      35.434  12.595  12.716  0.00  0.00     0.177 C 
HETATM    5  O   UNK N   1      34.844  11.998  13.849  0.00  0.00    -0.356 OA
ENDROOT
BRANCH   1   6
HETATM    6  N   UNK N   1      35.616  12.008  16.152  0.00  0.00    -0.282 N 
HETATM    7  C   UNK N   1      35.595  13.328  16.493  0.00  0.00     0.110 A 
HETATM    8  C   UNK N   1      35.386  13.731  17.809  0.00  0.00     0.022 A 
HETATM    9  C   UNK N   1      35.376  15.184  18.143  0.00  0.00     0.056 C 
HETATM   10  C   UNK N   1      35.203  12.756  18.790  0.00  0.00     0.256 A 
HETATM   11  N   UNK N   1      35.219  11.435  18.438  0.00  0.00    -0.275 N 
HETATM   12  O   UNK N   1      35.034  13.069  19.956  0.00  0.00    -0.267 OA
HETATM   13  C   UNK N   1      35.421  11.048  17.138  0.00  0.00     0.331 A 
HETATM   14  H   UNK N   1      35.080  10.748  19.130  0.00  0.00     0.173 HD
HETATM   15  O   UNK N   1      35.432   9.861  16.871  0.00  0.00    -0.246 OA
ENDBRANCH   1   6
BRANCH   3  16
HETATM   16  O   UNK N   1      37.713  13.146  12.042  0.00  0.00    -0.393 OA
HETATM   17  H   UNK N   1      37.767  13.423  11.115  0.00  0.00     0.210 HD
ENDBRANCH   3  16
BRANCH   4  18
HETATM   18  C   UNK N   1      35.120  14.096  12.743  0.00  0.00     0.215 C 
BRANCH  18  19
HETATM   19  O   UNK N   1      34.534  14.519  11.542  0.00  0.00    -0.294 OA
BRANCH  19  20
HETATM   20  P   UNK N   1      35.428  15.933  11.048  0.00  0.00     0.390 P 
HETATM   21  O   UNK N   1      35.999  15.712  12.475  0.00  0.00    -0.632 OA
BRANCH  20  22
HETATM   22  O   UNK N   1      37.135  15.866  10.751  0.00  0.00    -0.307 OA
HETATM   23  H   UNK N   1      37.669  16.674  10.709  0.00  0.00     0.222 HD
ENDBRANCH  20  22
BRANCH  20  24
HETATM   24  O   UNK N   1      35.841  14.566  10.060  0.00  0.00    -0.307 OA
HETATM   25  H   UNK N   1      36.112  14.673   9.135  0.00  0.00     0.222 HD
ENDBRANCH  20  24
ENDBRANCH  19  20
ENDBRANCH  18  19
ENDBRANCH   4  18
TORSDOF 7
ENDMDL
MODEL 2
REMARK VINA RESULT:      -5.9      9.633     12.466
REMARK  7 active torsions:
REMARK  status: ('A' for Active; 'I' for Inactive)
REMARK    1  A    between atoms: C_5  and  N_4 
REMARK    2  A    between atoms: C_7  and  O_8 
REMARK    3  A    between atoms: C_9  and  C_10 
REMARK    4  A    between atoms: C_10  and  O_11 
REMARK    5  A    between atoms: O_11  and  P_12 
REMARK    6  A    between atoms: P_12  and  O_13 
REMARK    7  A    between atoms: P_12  and  O_14 
ROOT
HETATM    1  C   UNK N   1      28.590  17.327   7.258  0.00  0.00     0.235 C 
HETATM    2  C   UNK N   1      28.521  18.045   8.593  0.00  0.00     0.088 C 
HETATM    3  C   UNK N   1      29.397  17.139   9.381  0.00  0.00     0.153 C 
HETATM    4  C   UNK N   1      30.496  16.837   8.378  0.00  0.00     0.177 C 
HETATM    5  O   UNK N   1      29.871  16.739   7.118  0.00  0.00    -0.356 OA
ENDROOT
BRANCH   1   6
HETATM    6  N   UNK N   1      28.195  18.194   6.131  0.00  0.00    -0.282 N 
HETATM    7  C   UNK N   1      27.758  19.447   6.445  0.00  0.00     0.110 A 
HETATM    8  C   UNK N   1      27.312  20.324   5.460  0.00  0.00     0.022 A 
HETATM    9  C   UNK N   1      26.835  21.683   5.845  0.00  0.00     0.056 C 
HETATM   10  C   UNK N   1      27.312  19.900   4.132  0.00  0.00     0.256 A 
HETATM   11  N   UNK N   1      27.760  18.645   3.825  0.00  0.00    -0.275 N 
HETATM   12  O   UNK N   1      26.914  20.634   3.243  0.00  0.00    -0.267 OA
HETATM   13  C   UNK N   1      28.200  17.790   4.801  0.00  0.00     0.331 A 
HETATM   14  H   UNK N   1      27.767  18.351   2.885  0.00  0.00     0.173 HD
HETATM   15  O   UNK N   1      28.585  16.680   4.483  0.00  0.00    -0.246 OA
ENDBRANCH   1   6
BRANCH   3  16
HETATM   16  O   UNK N   1      29.860  17.730  10.557  0.00  0.00    -0.393 OA
HETATM   17  H   UNK N   1      30.096  18.627  10.840  0.00  0.00     0.210 HD
ENDBRANCH   3  16
BRANCH   4  18
HETATM   18  C   UNK N   1      31.582  17.918   8.295  0.00  0.00     0.215 C 
BRANCH  18  19
HETATM   19  O   UNK N   1      32.512  17.633   7.286  0.00  0.00    -0.294 OA
BRANCH  19  20
HETATM   20  P   UNK N   1      34.072  17.615   8.068  0.00  0.00     0.390 P 
HETATM   21  O   UNK N   1      34.482  17.951   6.608  0.00  0.00    -0.632 OA
BRANCH  20  22
HETATM   22  O   UNK N   1      34.997  19.068   8.274  0.00  0.00    -0.307 OA
HETATM   23  H   UNK N   1      35.533  19.211   9.070  0.00  0.00     0.222 HD
ENDBRANCH  20  22
BRANCH  20  24
HETATM   24  O   UNK N   1      33.087  18.906   8.685  0.00  0.00    -0.307 OA
HETATM   25  H   UNK N   1      32.326  18.732   9.260  0.00  0.00     0.222 HD
ENDBRANCH  20  24
ENDBRANCH  19  20
ENDBRANCH  18  19
ENDBRANCH   4  18
TORSDOF 7
ENDMDL
MODEL 3
REMARK VINA RESULT:      -5.8      9.111     10.498
REMARK  7 active torsions:
REMARK  status: ('A' for Active; 'I' for Inactive)
REMARK    1  A    between atoms: C_5  and  N_4 
REMARK    2  A    between atoms: C_7  and  O_8 
REMARK    3  A    between atoms: C_9  and  C_10 
REMARK    4  A    between atoms: C_10  and  O_11 
REMARK    5  A    between atoms: O_11  and  P_12 
REMARK    6  A    between atoms: P_12  and  O_13 
REMARK    7  A    between atoms: P_12  and  O_14 
ROOT
HETATM    1  C   UNK N   1      31.032  16.714   5.131  0.00  0.00     0.235 C 
HETATM    2  C   UNK N   1      31.556  15.289   5.124  0.00  0.00     0.088 C 
HETATM    3  C   UNK N   1      32.805  15.514   4.350  0.00  0.00     0.153 C 
HETATM    4  C   UNK N   1      33.284  16.833   4.929  0.00  0.00     0.177 C 
HETATM    5  O   UNK N   1      32.130  17.607   5.167  0.00  0.00    -0.356 OA
ENDROOT
BRANCH   1   6
HETATM    6  N   UNK N   1      30.031  16.941   6.191  0.00  0.00    -0.282 N 
HETATM    7  C   UNK N   1      30.451  17.628   7.292  0.00  0.00     0.110 A 
HETATM    8  C   UNK N   1      29.601  17.850   8.372  0.00  0.00     0.022 A 
HETATM    9  C   UNK N   1      30.100  18.599   9.561  0.00  0.00     0.056 C 
HETATM   10  C   UNK N   1      28.300  17.350   8.318  0.00  0.00     0.256 A 
HETATM   11  N   UNK N   1      27.885  16.670   7.207  0.00  0.00    -0.275 N 
HETATM   12  O   UNK N   1      27.531  17.511   9.251  0.00  0.00    -0.267 OA
HETATM   13  C   UNK N   1      28.728  16.460   6.147  0.00  0.00     0.331 A 
HETATM   14  H   UNK N   1      26.963  16.326   7.167  0.00  0.00     0.173 HD
HETATM   15  O   UNK N   1      28.318  15.844   5.180  0.00  0.00    -0.246 OA
ENDBRANCH   1   6
BRANCH   3  16
HETATM   16  O   UNK N   1      33.721  14.472   4.499  0.00  0.00    -0.393 OA
HETATM   17  H   UNK N   1      34.238  13.908   3.902  0.00  0.00     0.210 HD
ENDBRANCH   3  16
BRANCH   4  18
HETATM   18  C   UNK N   1      34.052  16.694   6.250  0.00  0.00     0.215 C 
BRANCH  18  19
HETATM   19  O   UNK N   1      34.291  17.944   6.838  0.00  0.00    -0.294 OA
BRANCH  19  20
HETATM   20  P   UNK N   1      34.009  17.729   8.546  0.00  0.00     0.390 P 
HETATM   21  O   UNK N   1      34.786  16.426   8.212  0.00  0.00    -0.632 OA
BRANCH  20  22
HETATM   22  O   UNK N   1      35.312  17.778   9.690  0.00  0.00    -0.307 OA
HETATM   23  H   UNK N   1      35.546  16.998  10.217  0.00  0.00     0.222 HD
ENDBRANCH  20  22
BRANCH  20  24
HETATM   24  O   UNK N   1      35.049  19.090   8.259  0.00  0.00    -0.307 OA
HETATM   25  H   UNK N   1      36.013  18.992   8.220  0.00  0.00     0.222 HD
ENDBRANCH  20  24
ENDBRANCH  19  20
ENDBRANCH  18  19
ENDBRANCH   4  18
TORSDOF 7
ENDMDL
MODEL 4
REMARK VINA RESULT:      -5.7      7.389     10.789
REMARK  7 active torsions:
REMARK  status: ('A' for Active; 'I' for Inactive)
REMARK    1  A    between atoms: C_5  and  N_4 
REMARK    2  A    between atoms: C_7  and  O_8 
REMARK    3  A    between atoms: C_9  and  C_10 
REMARK    4  A    between atoms: C_10  and  O_11 
REMARK    5  A    between atoms: O_11  and  P_12 
REMARK    6  A    between atoms: P_12  and  O_13 
REMARK    7  A    between atoms: P_12  and  O_14 
ROOT
HETATM    1  C   UNK N   1      32.974  17.046   6.378  0.00  0.00     0.235 C 
HETATM    2  C   UNK N   1      34.227  17.692   6.938  0.00  0.00     0.088 C 
HETATM    3  C   UNK N   1      33.784  17.856   8.348  0.00  0.00     0.153 C 
HETATM    4  C   UNK N   1      33.050  16.548   8.586  0.00  0.00     0.177 C 
HETATM    5  O   UNK N   1      32.383  16.240   7.382  0.00  0.00    -0.356 OA
ENDROOT
BRANCH   1   6
HETATM    6  N   UNK N   1      33.223  16.341   5.106  0.00  0.00    -0.282 N 
HETATM    7  C   UNK N   1      33.986  15.213   5.169  0.00  0.00     0.110 A 
HETATM    8  C   UNK N   1      34.324  14.504   4.020  0.00  0.00     0.022 A 
HETATM    9  C   UNK N   1      35.165  13.278   4.130  0.00  0.00     0.056 C 
HETATM   10  C   UNK N   1      33.873  14.970   2.785  0.00  0.00     0.256 A 
HETATM   11  N   UNK N   1      33.102  16.098   2.731  0.00  0.00    -0.275 N 
HETATM   12  O   UNK N   1      34.162  14.385   1.755  0.00  0.00    -0.267 OA
HETATM   13  C   UNK N   1      32.771  16.787   3.869  0.00  0.00     0.331 A 
HETATM   14  H   UNK N   1      32.777  16.420   1.859  0.00  0.00     0.173 HD
HETATM   15  O   UNK N   1      32.087  17.789   3.774  0.00  0.00    -0.246 OA
ENDBRANCH   1   6
BRANCH   3  16
HETATM   16  O   UNK N   1      34.850  18.066   9.223  0.00  0.00    -0.393 OA
HETATM   17  H   UNK N   1      35.243  17.588   9.970  0.00  0.00     0.210 HD
ENDBRANCH   3  16
BRANCH   4  18
HETATM   18  C   UNK N   1      33.967  15.372   8.944  0.00  0.00     0.215 C 
BRANCH  18  19
HETATM   19  O   UNK N   1      33.979  15.133  10.325  0.00  0.00    -0.294 OA
BRANCH  19  20
HETATM   20  P   UNK N   1      35.653  14.884  10.750  0.00  0.00     0.390 P 
HETATM   21  O   UNK N   1      35.774  15.133   9.222  0.00  0.00    -0.632 OA
BRANCH  20  22
HETATM   22  O   UNK N   1      36.805  16.179  10.683  0.00  0.00    -0.307 OA
HETATM   23  H   UNK N   1      36.997  16.720  11.464  0.00  0.00     0.222 HD
ENDBRANCH  20  22
BRANCH  20  24
HETATM   24  O   UNK N   1      35.032  16.320  11.505  0.00  0.00    -0.307 OA
HETATM   25  H   UNK N   1      34.161  16.333  11.931  0.00  0.00     0.222 HD
ENDBRANCH  20  24
ENDBRANCH  19  20
ENDBRANCH  18  19
ENDBRANCH   4  18
TORSDOF 7
ENDMDL
MODEL 5
REMARK VINA RESULT:      -5.7      6.701      9.381
REMARK  7 active torsions:
REMARK  status: ('A' for Active; 'I' for Inactive)
REMARK    1  A    between atoms: C_5  and  N_4 
REMARK    2  A    between atoms: C_7  and  O_8 
REMARK    3  A    between atoms: C_9  and  C_10 
REMARK    4  A    between atoms: C_10  and  O_11 
REMARK    5  A    between atoms: O_11  and  P_12 
REMARK    6  A    between atoms: P_12  and  O_13 
REMARK    7  A    between atoms: P_12  and  O_14 
ROOT
HETATM    1  C   UNK N   1      32.756  15.980   6.597  0.00  0.00     0.235 C 
HETATM    2  C   UNK N   1      32.724  17.145   5.625  0.00  0.00     0.088 C 
HETATM    3  C   UNK N   1      31.440  16.833   4.943  0.00  0.00     0.153 C 
HETATM    4  C   UNK N   1      30.581  16.383   6.111  0.00  0.00     0.177 C 
HETATM    5  O   UNK N   1      31.429  15.660   6.975  0.00  0.00    -0.356 OA
ENDROOT
BRANCH   1   6
HETATM    6  N   UNK N   1      33.669  16.217   7.732  0.00  0.00    -0.282 N 
HETATM    7  C   UNK N   1      34.530  15.208   8.046  0.00  0.00     0.110 A 
HETATM    8  C   UNK N   1      35.396  15.309   9.132  0.00  0.00     0.022 A 
HETATM    9  C   UNK N   1      36.319  14.182   9.447  0.00  0.00     0.056 C 
HETATM   10  C   UNK N   1      35.367  16.468   9.908  0.00  0.00     0.256 A 
HETATM   11  N   UNK N   1      34.506  17.477   9.581  0.00  0.00    -0.275 N 
HETATM   12  O   UNK N   1      36.099  16.586  10.877  0.00  0.00    -0.267 OA
HETATM   13  C   UNK N   1      33.660  17.370   8.508  0.00  0.00     0.331 A 
HETATM   14  H   UNK N   1      34.494  18.298  10.126  0.00  0.00     0.173 HD
HETATM   15  O   UNK N   1      32.906  18.291   8.257  0.00  0.00    -0.246 OA
ENDBRANCH   1   6
BRANCH   3  16
HETATM   16  O   UNK N   1      30.919  17.929   4.255  0.00  0.00    -0.393 OA
HETATM   17  H   UNK N   1      30.764  18.866   4.453  0.00  0.00     0.210 HD
ENDBRANCH   3  16
BRANCH   4  18
HETATM   18  C   UNK N   1      29.953  17.535   6.906  0.00  0.00     0.215 C 
BRANCH  18  19
HETATM   19  O   UNK N   1      29.184  17.060   7.978  0.00  0.00    -0.294 OA
BRANCH  19  20
HETATM   20  P   UNK N   1      29.271  18.292   9.210  0.00  0.00     0.390 P 
HETATM   21  O   UNK N   1      27.892  17.654   9.532  0.00  0.00    -0.632 OA
BRANCH  20  22
HETATM   22  O   UNK N   1      29.442  17.884  10.887  0.00  0.00    -0.307 OA
HETATM   23  H   UNK N   1      30.000  18.414  11.477  0.00  0.00     0.222 HD
ENDBRANCH  20  22
BRANCH  20  24
HETATM   24  O   UNK N   1      30.510  17.097   9.444  0.00  0.00    -0.307 OA
HETATM   25  H   UNK N   1      31.135  16.871   8.738  0.00  0.00     0.222 HD
ENDBRANCH  20  24
ENDBRANCH  19  20
ENDBRANCH  18  19
ENDBRANCH   4  18
TORSDOF 7
ENDMDL
MODEL 6
REMARK VINA RESULT:      -5.6      9.888     12.135
REMARK  7 active torsions:
REMARK  status: ('A' for Active; 'I' for Inactive)
REMARK    1  A    between atoms: C_5  and  N_4 
REMARK    2  A    between atoms: C_7  and  O_8 
REMARK    3  A    between atoms: C_9  and  C_10 
REMARK    4  A    between atoms: C_10  and  O_11 
REMARK    5  A    between atoms: O_11  and  P_12 
REMARK    6  A    between atoms: P_12  and  O_13 
REMARK    7  A    between atoms: P_12  and  O_14 
ROOT
HETATM    1  C   UNK N   1      31.478  16.669   3.848  0.00  0.00     0.235 C 
HETATM    2  C   UNK N   1      31.962  15.493   4.676  0.00  0.00     0.088 C 
HETATM    3  C   UNK N   1      33.416  15.798   4.670  0.00  0.00     0.153 C 
HETATM    4  C   UNK N   1      33.408  17.305   4.847  0.00  0.00     0.177 C 
HETATM    5  O   UNK N   1      32.306  17.788   4.111  0.00  0.00    -0.356 OA
ENDROOT
BRANCH   1   6
HETATM    6  N   UNK N   1      30.036  16.929   4.026  0.00  0.00    -0.282 N 
HETATM    7  C   UNK N   1      29.679  17.703   5.090  0.00  0.00     0.110 A 
HETATM    8  C   UNK N   1      28.343  17.963   5.377  0.00  0.00     0.022 A 
HETATM    9  C   UNK N   1      27.993  18.809   6.555  0.00  0.00     0.056 C 
HETATM   10  C   UNK N   1      27.358  17.412   4.557  0.00  0.00     0.256 A 
HETATM   11  N   UNK N   1      27.725  16.644   3.487  0.00  0.00    -0.275 N 
HETATM   12  O   UNK N   1      26.176  17.605   4.786  0.00  0.00    -0.267 OA
HETATM   13  C   UNK N   1      29.044  16.396   3.210  0.00  0.00     0.331 A 
HETATM   14  H   UNK N   1      27.029  16.263   2.905  0.00  0.00     0.173 HD
HETATM   15  O   UNK N   1      29.325  15.702   2.250  0.00  0.00    -0.246 OA
ENDBRANCH   1   6
BRANCH   3  16
HETATM   16  O   UNK N   1      34.109  15.121   5.674  0.00  0.00    -0.393 OA
HETATM   17  H   UNK N   1      34.995  15.172   6.065  0.00  0.00     0.210 HD
ENDBRANCH   3  16
BRANCH   4  18
HETATM   18  C   UNK N   1      33.252  17.764   6.303  0.00  0.00     0.215 C 
BRANCH  18  19
HETATM   19  O   UNK N   1      34.495  17.869   6.943  0.00  0.00    -0.294 OA
BRANCH  19  20
HETATM   20  P   UNK N   1      34.185  17.578   8.635  0.00  0.00     0.390 P 
HETATM   21  O   UNK N   1      35.019  16.319   8.271  0.00  0.00    -0.632 OA
BRANCH  20  22
HETATM   22  O   UNK N   1      35.459  17.634   9.810  0.00  0.00    -0.307 OA
HETATM   23  H   UNK N   1      35.663  16.865  10.365  0.00  0.00     0.222 HD
ENDBRANCH  20  22
BRANCH  20  24
HETATM   24  O   UNK N   1      35.176  18.989   8.423  0.00  0.00    -0.307 OA
HETATM   25  H   UNK N   1      36.015  19.094   8.898  0.00  0.00     0.222 HD
ENDBRANCH  20  24
ENDBRANCH  19  20
ENDBRANCH  18  19
ENDBRANCH   4  18
TORSDOF 7
ENDMDL
MODEL 7
REMARK VINA RESULT:      -5.6      7.210      9.645
REMARK  7 active torsions:
REMARK  status: ('A' for Active; 'I' for Inactive)
REMARK    1  A    between atoms: C_5  and  N_4 
REMARK    2  A    between atoms: C_7  and  O_8 
REMARK    3  A    between atoms: C_9  and  C_10 
REMARK    4  A    between atoms: C_10  and  O_11 
REMARK    5  A    between atoms: O_11  and  P_12 
REMARK    6  A    between atoms: P_12  and  O_13 
REMARK    7  A    between atoms: P_12  and  O_14 
ROOT
HETATM    1  C   UNK N   1      32.237  15.937   6.637  0.00  0.00     0.235 C 
HETATM    2  C   UNK N   1      32.238  14.721   7.545  0.00  0.00     0.088 C 
HETATM    3  C   UNK N   1      33.672  14.349   7.419  0.00  0.00     0.153 C 
HETATM    4  C   UNK N   1      34.339  15.712   7.447  0.00  0.00     0.177 C 
HETATM    5  O   UNK N   1      33.492  16.586   6.736  0.00  0.00    -0.356 OA
ENDROOT
BRANCH   1   6
HETATM    6  N   UNK N   1      31.078  16.819   6.876  0.00  0.00    -0.282 N 
HETATM    7  C   UNK N   1      30.928  17.303   8.142  0.00  0.00     0.110 A 
HETATM    8  C   UNK N   1      29.840  18.099   8.486  0.00  0.00     0.022 A 
HETATM    9  C   UNK N   1      29.708  18.604   9.883  0.00  0.00     0.056 C 
HETATM   10  C   UNK N   1      28.889  18.397   7.510  0.00  0.00     0.256 A 
HETATM   11  N   UNK N   1      29.051  17.914   6.242  0.00  0.00    -0.275 N 
HETATM   12  O   UNK N   1      27.914  19.078   7.778  0.00  0.00    -0.267 OA
HETATM   13  C   UNK N   1      30.128  17.133   5.912  0.00  0.00     0.331 A 
HETATM   14  H   UNK N   1      28.383  18.133   5.552  0.00  0.00     0.173 HD
HETATM   15  O   UNK N   1      30.230  16.721   4.771  0.00  0.00    -0.246 OA
ENDBRANCH   1   6
BRANCH   3  16
HETATM   16  O   UNK N   1      34.095  13.498   8.441  0.00  0.00    -0.393 OA
HETATM   17  H   UNK N   1      33.948  12.569   8.680  0.00  0.00     0.210 HD
ENDBRANCH   3  16
BRANCH   4  18
HETATM   18  C   UNK N   1      34.544  16.280   8.857  0.00  0.00     0.215 C 
BRANCH  18  19
HETATM   19  O   UNK N   1      35.630  15.671   9.503  0.00  0.00    -0.294 OA
BRANCH  19  20
HETATM   20  P   UNK N   1      35.424  16.009  11.202  0.00  0.00     0.390 P 
HETATM   21  O   UNK N   1      34.864  14.562  11.122  0.00  0.00    -0.632 OA
BRANCH  20  22
HETATM   22  O   UNK N   1      36.363  15.188  12.407  0.00  0.00    -0.307 OA
HETATM   23  H   UNK N   1      36.065  14.348  12.787  0.00  0.00     0.222 HD
ENDBRANCH  20  22
BRANCH  20  24
HETATM   24  O   UNK N   1      37.108  15.983  10.778  0.00  0.00    -0.307 OA
HETATM   25  H   UNK N   1      37.786  16.331  11.377  0.00  0.00     0.222 HD
ENDBRANCH  20  24
ENDBRANCH  19  20
ENDBRANCH  18  19
ENDBRANCH   4  18
TORSDOF 7
ENDMDL
MODEL 8
REMARK VINA RESULT:      -5.6     20.686     23.562
REMARK  7 active torsions:
REMARK  status: ('A' for Active; 'I' for Inactive)
REMARK    1  A    between atoms: C_5  and  N_4 
REMARK    2  A    between atoms: C_7  and  O_8 
REMARK    3  A    between atoms: C_9  and  C_10 
REMARK    4  A    between atoms: C_10  and  O_11 
REMARK    5  A    between atoms: O_11  and  P_12 
REMARK    6  A    between atoms: P_12  and  O_13 
REMARK    7  A    between atoms: P_12  and  O_14 
ROOT
HETATM    1  C   UNK N   1      29.382  23.959  -4.153  0.00  0.00     0.235 C 
HETATM    2  C   UNK N   1      28.022  23.546  -3.620  0.00  0.00     0.088 C 
HETATM    3  C   UNK N   1      27.197  24.593  -4.277  0.00  0.00     0.153 C 
HETATM    4  C   UNK N   1      27.837  24.662  -5.652  0.00  0.00     0.177 C 
HETATM    5  O   UNK N   1      29.223  24.492  -5.455  0.00  0.00    -0.356 OA
ENDROOT
BRANCH   1   6
HETATM    6  N   UNK N   1      30.377  22.874  -4.060  0.00  0.00    -0.282 N 
HETATM    7  C   UNK N   1      30.679  22.219  -5.217  0.00  0.00     0.110 A 
HETATM    8  C   UNK N   1      31.565  21.145  -5.229  0.00  0.00     0.022 A 
HETATM    9  C   UNK N   1      31.864  20.450  -6.514  0.00  0.00     0.056 C 
HETATM   10  C   UNK N   1      32.144  20.738  -4.028  0.00  0.00     0.256 A 
HETATM   11  N   UNK N   1      31.843  21.405  -2.873  0.00  0.00    -0.275 N 
HETATM   12  O   UNK N   1      32.913  19.791  -3.996  0.00  0.00    -0.267 OA
HETATM   13  C   UNK N   1      30.972  22.463  -2.872  0.00  0.00     0.331 A 
HETATM   14  H   UNK N   1      32.260  21.121  -2.028  0.00  0.00     0.173 HD
HETATM   15  O   UNK N   1      30.728  23.026  -1.820  0.00  0.00    -0.246 OA
ENDBRANCH   1   6
BRANCH   3  16
HETATM   16  O   UNK N   1      25.841  24.265  -4.308  0.00  0.00    -0.393 OA
HETATM   17  H   UNK N   1      25.221  23.926  -4.972  0.00  0.00     0.210 HD
ENDBRANCH   3  16
BRANCH   4  18
HETATM   18  C   UNK N   1      27.351  23.579  -6.624  0.00  0.00     0.215 C 
BRANCH  18  19
HETATM   19  O   UNK N   1      26.015  23.784  -6.993  0.00  0.00    -0.294 OA
BRANCH  19  20
HETATM   20  P   UNK N   1      25.478  22.278  -7.690  0.00  0.00     0.390 P 
HETATM   21  O   UNK N   1      24.823  22.197  -6.284  0.00  0.00    -0.632 OA
BRANCH  20  22
HETATM   22  O   UNK N   1      23.810  22.005  -8.080  0.00  0.00    -0.307 OA
HETATM   23  H   UNK N   1      23.374  22.501  -8.790  0.00  0.00     0.222 HD
ENDBRANCH  20  22
BRANCH  20  24
HETATM   24  O   UNK N   1      24.802  23.629  -8.547  0.00  0.00    -0.307 OA
HETATM   25  H   UNK N   1      25.278  24.056  -9.276  0.00  0.00     0.222 HD
ENDBRANCH  20  24
ENDBRANCH  19  20
ENDBRANCH  18  19
ENDBRANCH   4  18
TORSDOF 7
ENDMDL
MODEL 9
REMARK VINA RESULT:      -5.6      3.136      4.756
REMARK  7 active torsions:
REMARK  status: ('A' for Active; 'I' for Inactive)
REMARK    1  A    between atoms: C_5  and  N_4 
REMARK    2  A    between atoms: C_7  and  O_8 
REMARK    3  A    between atoms: C_9  and  C_10 
REMARK    4  A    between atoms: C_10  and  O_11 
REMARK    5  A    between atoms: O_11  and  P_12 
REMARK    6  A    between atoms: P_12  and  O_13 
REMARK    7  A    between atoms: P_12  and  O_14 
ROOT
HETATM    1  C   UNK N   1      35.955  13.968  11.288  0.00  0.00     0.235 C 
HETATM    2  C   UNK N   1      35.898  15.395  11.800  0.00  0.00     0.088 C 
HETATM    3  C   UNK N   1      36.188  16.102  10.526  0.00  0.00     0.153 C 
HETATM    4  C   UNK N   1      35.380  15.283   9.536  0.00  0.00     0.177 C 
HETATM    5  O   UNK N   1      35.483  13.940   9.953  0.00  0.00    -0.356 OA
ENDROOT
BRANCH   1   6
HETATM    6  N   UNK N   1      35.277  13.017  12.190  0.00  0.00    -0.282 N 
HETATM    7  C   UNK N   1      35.229  13.353  13.510  0.00  0.00     0.110 A 
HETATM    8  C   UNK N   1      34.660  12.501  14.452  0.00  0.00     0.022 A 
HETATM    9  C   UNK N   1      34.633  12.902  15.888  0.00  0.00     0.056 C 
HETATM   10  C   UNK N   1      34.137  11.281  14.026  0.00  0.00     0.256 A 
HETATM   11  N   UNK N   1      34.181  10.955  12.699  0.00  0.00    -0.275 N 
HETATM   12  O   UNK N   1      33.644  10.501  14.823  0.00  0.00    -0.267 OA
HETATM   13  C   UNK N   1      34.741  11.802  11.778  0.00  0.00     0.331 A 
HETATM   14  H   UNK N   1      33.804  10.097  12.399  0.00  0.00     0.173 HD
HETATM   15  O   UNK N   1      34.764  11.470  10.607  0.00  0.00    -0.246 OA
ENDBRANCH   1   6
BRANCH   3  16
HETATM   16  O   UNK N   1      35.823  17.449  10.566  0.00  0.00    -0.393 OA
HETATM   17  H   UNK N   1      36.255  18.294  10.366  0.00  0.00     0.210 HD
ENDBRANCH   3  16
BRANCH   4  18
HETATM   18  C   UNK N   1      33.893  15.657   9.480  0.00  0.00     0.215 C 
BRANCH  18  19
HETATM   19  O   UNK N   1      33.696  16.875   8.815  0.00  0.00    -0.294 OA
BRANCH  19  20
HETATM   20  P   UNK N   1      34.272  16.627   7.187  0.00  0.00     0.390 P 
HETATM   21  O   UNK N   1      32.736  16.624   6.956  0.00  0.00    -0.632 OA
BRANCH  20  22
HETATM   22  O   UNK N   1      34.085  17.845   5.966  0.00  0.00    -0.307 OA
HETATM   23  H   UNK N   1      33.686  17.636   5.107  0.00  0.00     0.222 HD
ENDBRANCH  20  22
BRANCH  20  24
HETATM   24  O   UNK N   1      34.747  18.189   7.778  0.00  0.00    -0.307 OA
HETATM   25  H   UNK N   1      34.917  18.344   8.720  0.00  0.00     0.222 HD
ENDBRANCH  20  24
ENDBRANCH  19  20
ENDBRANCH  18  19
ENDBRANCH   4  18
TORSDOF 7
ENDMDL
