REMARK  13 active torsions:
REMARK  status: ('A' for Active; 'I' for Inactive)
REMARK    1  A    between atoms: C_2  and  N_1 
REMARK    2  A    between atoms: C_2  and  C_3 
REMARK    3  A    between atoms: C_2  and  C_15 
REMARK    4  A    between atoms: C_3  and  C_4 
REMARK    5  A    between atoms: C_4  and  C_5 
REMARK    6  A    between atoms: C_5  and  C_6 
REMARK    7  A    between atoms: C_6  and  N_7 
REMARK    8  A    between atoms: N_7  and  C_8 
REMARK    9  A    between atoms: C_8  and  C_9 
REMARK   10  A    between atoms: C_8  and  C_12 
REMARK   11  A    between atoms: C_9  and  O_10 
REMARK   12  A    between atoms: C_12  and  O_13 
REMARK   13  A    between atoms: C_15  and  O_16 
ROOT
HETATM    1  C   UNK N   1       6.896  -0.146   0.564  0.00  0.00     0.115 C 
ENDROOT
BRANCH   1   2
HETATM    2  C   UNK N   1       8.217  -0.182  -0.186  0.00  0.00     0.019 C 
BRANCH   2   3
HETATM    3  C   UNK N   1       8.480   1.126  -0.918  0.00  0.00     0.004 C 
BRANCH   3   4
HETATM    4  C   UNK N   1       8.831   2.237   0.060  0.00  0.00     0.035 C 
BRANCH   4   5
HETATM    5  C   UNK N   1      10.175   2.865  -0.297  0.00  0.00     0.173 C 
BRANCH   5   6
HETATM    6  N   UNK N   1      10.313   4.128   0.407  0.00  0.00    -0.418 N 
HETATM    7  H   UNK N   1      11.130   4.487   0.901  0.00  0.00     0.150 HD
HETATM    8  H   UNK N   1       9.491   4.731   0.407  0.00  0.00     0.150 HD
ENDBRANCH   5   6
BRANCH   5   9
HETATM    9  C   UNK N   1      11.353   1.982   0.028  0.00  0.00     0.163 C 
HETATM   10  O   UNK N   1      11.198   0.899   0.570  0.00  0.00    -0.648 OA
BRANCH   9  11
HETATM   11  O   UNK N   1      12.596   2.395  -0.283  0.00  0.00    -0.775 OA
HETATM   12  H   UNK N   1      13.278   1.790  -0.499  0.00  0.00     0.167 HD
ENDBRANCH   9  11
ENDBRANCH   5   9
ENDBRANCH   4   5
ENDBRANCH   3   4
ENDBRANCH   2   3
ENDBRANCH   1   2
BRANCH   1  13
HETATM   13  N   UNK N   1       5.780  -0.169  -0.371  0.00  0.00    -0.400 N 
HETATM   14  H   UNK N   1       5.806  -0.467  -1.346  0.00  0.00     0.154 HD
BRANCH  13  15
HETATM   15  C   UNK N   1       4.620   0.318   0.362  0.00  0.00     0.274 C 
BRANCH  15  16
HETATM   16  C   UNK N   1       3.436  -0.586   0.099  0.00  0.00     0.174 C 
HETATM   17  O   UNK N   1       3.529  -1.777   0.351  0.00  0.00    -0.648 OA
BRANCH  16  18
HETATM   18  O   UNK N   1       2.279  -0.111  -0.400  0.00  0.00    -0.774 OA
HETATM   19  H   UNK N   1       2.163   0.752  -0.748  0.00  0.00     0.167 HD
ENDBRANCH  16  18
ENDBRANCH  15  16
BRANCH  15  20
HETATM   20  C   UNK N   1       4.420   1.795   0.086  0.00  0.00     0.174 C 
HETATM   21  O   UNK N   1       5.348   2.567   0.270  0.00  0.00    -0.648 OA
BRANCH  20  22
HETATM   22  O   UNK N   1       3.239   2.280  -0.341  0.00  0.00    -0.774 OA
HETATM   23  H   UNK N   1       3.121   3.161  -0.639  0.00  0.00     0.167 HD
ENDBRANCH  20  22
ENDBRANCH  15  20
ENDBRANCH  13  15
ENDBRANCH   1  13
TORSDOF 13
