MODEL 1
REMARK VINA RESULT:      -4.9      0.000      0.000
REMARK  8 active torsions:
REMARK  status: ('A' for Active; 'I' for Inactive)
REMARK    1  A    between atoms: C_2  and  C_3 
REMARK    2  A    between atoms: C_3  and  S_4 
REMARK    3  A    between atoms: S_4  and  C_5 
REMARK    4  A    between atoms: C_7  and  O_16 
REMARK    5  A    between atoms: C_8  and  C_13 
REMARK    6  A    between atoms: C_10  and  O_11 
REMARK    7  A    between atoms: C_13  and  C_14 
REMARK    8  A    between atoms: C_14  and  N_15 
ROOT
HETATM    1  C   UNK N   1      29.966  17.335   6.917  0.00  0.00     0.036 A 
HETATM    2  C   UNK N   1      30.993  17.115   5.995  0.00  0.00     0.058 A 
HETATM    3  C   UNK N   1      32.343  17.277   6.324  0.00  0.00     0.076 A 
HETATM    4  C   UNK N   1      32.682  17.665   7.649  0.00  0.00    -0.021 A 
HETATM    5  C   UNK N   1      31.651  17.870   8.578  0.00  0.00     0.048 A 
HETATM    6  C   UNK N   1      30.302  17.729   8.245  0.00  0.00     0.085 A 
ENDROOT
BRANCH   4   7
HETATM    7  C   UNK N   1      34.113  17.888   8.077  0.00  0.00     0.060 C 
BRANCH   7   8
HETATM    8  C   UNK N   1      34.715  16.758   8.905  0.00  0.00     0.115 C 
BRANCH   8   9
HETATM    9  N   UNK N   1      34.824  17.176  10.289  0.00  0.00    -0.430 N 
HETATM   10  H   UNK N   1      34.006  17.140  10.900  0.00  0.00     0.149 HD
HETATM   11  H   UNK N   1      35.717  17.507  10.654  0.00  0.00     0.149 HD
ENDBRANCH   8   9
ENDBRANCH   7   8
ENDBRANCH   4   7
BRANCH   3  12
HETATM   12  O   UNK N   1      33.248  17.068   5.327  0.00  0.00    -0.355 OA
HETATM   13  C   UNK N   1      33.878  15.885   5.022  0.00  0.00     0.210 C 
ENDBRANCH   3  12
BRANCH   6  14
HETATM   14  O   UNK N   1      29.406  18.008   9.229  0.00  0.00    -0.355 OA
HETATM   15  C   UNK N   1      28.872  17.124  10.132  0.00  0.00     0.210 C 
ENDBRANCH   6  14
BRANCH   1  16
HETATM   16  S   UNK N   1      28.283  17.166   6.284  0.00  0.00    -0.127 SA
BRANCH  16  17
HETATM   17  C   UNK N   1      28.164  18.809   5.514  0.00  0.00     0.079 C 
BRANCH  17  18
HETATM   18  C   UNK N   1      27.664  19.782   6.570  0.00  0.00     0.006 C 
HETATM   19  C   UNK N   1      27.078  21.019   5.921  0.00  0.00     0.006 C 
ENDBRANCH  17  18
ENDBRANCH  16  17
ENDBRANCH   1  16
TORSDOF 8
ENDMDL
MODEL 2
REMARK VINA RESULT:      -4.9     14.427     17.156
REMARK  8 active torsions:
REMARK  status: ('A' for Active; 'I' for Inactive)
REMARK    1  A    between atoms: C_2  and  C_3 
REMARK    2  A    between atoms: C_3  and  S_4 
REMARK    3  A    between atoms: S_4  and  C_5 
REMARK    4  A    between atoms: C_7  and  O_16 
REMARK    5  A    between atoms: C_8  and  C_13 
REMARK    6  A    between atoms: C_10  and  O_11 
REMARK    7  A    between atoms: C_13  and  C_14 
REMARK    8  A    between atoms: C_14  and  N_15 
ROOT
HETATM    1  C   UNK N   1      26.596  24.182  -7.482  0.00  0.00     0.036 A 
HETATM    2  C   UNK N   1      26.503  24.056  -6.093  0.00  0.00     0.058 A 
HETATM    3  C   UNK N   1      25.982  25.068  -5.282  0.00  0.00     0.076 A 
HETATM    4  C   UNK N   1      25.514  26.263  -5.894  0.00  0.00    -0.021 A 
HETATM    5  C   UNK N   1      25.593  26.382  -7.290  0.00  0.00     0.048 A 
HETATM    6  C   UNK N   1      26.133  25.381  -8.099  0.00  0.00     0.085 A 
ENDROOT
BRANCH   4   7
HETATM    7  C   UNK N   1      24.963  27.415  -5.087  0.00  0.00     0.060 C 
BRANCH   7   8
HETATM    8  C   UNK N   1      25.999  28.168  -4.260  0.00  0.00     0.115 C 
BRANCH   8   9
HETATM    9  N   UNK N   1      25.876  27.784  -2.867  0.00  0.00    -0.430 N 
HETATM   10  H   UNK N   1      25.313  26.973  -2.607  0.00  0.00     0.149 HD
HETATM   11  H   UNK N   1      26.354  28.324  -2.145  0.00  0.00     0.149 HD
ENDBRANCH   8   9
ENDBRANCH   7   8
ENDBRANCH   4   7
BRANCH   3  12
HETATM   12  O   UNK N   1      25.979  24.840  -3.938  0.00  0.00    -0.355 OA
HETATM   13  C   UNK N   1      26.994  24.286  -3.195  0.00  0.00     0.210 C 
ENDBRANCH   3  12
BRANCH   6  14
HETATM   14  O   UNK N   1      26.195  25.649  -9.431  0.00  0.00    -0.355 OA
HETATM   15  C   UNK N   1      25.139  25.753 -10.300  0.00  0.00     0.210 C 
ENDBRANCH   6  14
BRANCH   1  16
HETATM   16  S   UNK N   1      27.383  22.808  -8.352  0.00  0.00    -0.127 SA
BRANCH  16  17
HETATM   17  C   UNK N   1      25.866  22.068  -9.028  0.00  0.00     0.079 C 
BRANCH  17  18
HETATM   18  C   UNK N   1      25.533  20.843  -8.192  0.00  0.00     0.006 C 
HETATM   19  C   UNK N   1      24.519  21.187  -7.120  0.00  0.00     0.006 C 
ENDBRANCH  17  18
ENDBRANCH  16  17
ENDBRANCH   1  16
TORSDOF 8
ENDMDL
MODEL 3
REMARK VINA RESULT:      -4.7      1.408      3.568
REMARK  8 active torsions:
REMARK  status: ('A' for Active; 'I' for Inactive)
REMARK    1  A    between atoms: C_2  and  C_3 
REMARK    2  A    between atoms: C_3  and  S_4 
REMARK    3  A    between atoms: S_4  and  C_5 
REMARK    4  A    between atoms: C_7  and  O_16 
REMARK    5  A    between atoms: C_8  and  C_13 
REMARK    6  A    between atoms: C_10  and  O_11 
REMARK    7  A    between atoms: C_13  and  C_14 
REMARK    8  A    between atoms: C_14  and  N_15 
ROOT
HETATM    1  C   UNK N   1      29.783  17.523   5.487  0.00  0.00     0.036 A 
HETATM    2  C   UNK N   1      29.531  17.598   6.861  0.00  0.00     0.058 A 
HETATM    3  C   UNK N   1      30.544  17.465   7.816  0.00  0.00     0.076 A 
HETATM    4  C   UNK N   1      31.880  17.261   7.373  0.00  0.00    -0.021 A 
HETATM    5  C   UNK N   1      32.132  17.202   5.995  0.00  0.00     0.048 A 
HETATM    6  C   UNK N   1      31.120  17.313   5.041  0.00  0.00     0.085 A 
ENDROOT
BRANCH   4   7
HETATM    7  C   UNK N   1      33.026  17.080   8.340  0.00  0.00     0.060 C 
BRANCH   7   8
HETATM    8  C   UNK N   1      34.387  17.506   7.802  0.00  0.00     0.115 C 
BRANCH   8   9
HETATM    9  N   UNK N   1      34.805  18.730   8.458  0.00  0.00    -0.430 N 
HETATM   10  H   UNK N   1      34.118  19.316   8.933  0.00  0.00     0.149 HD
HETATM   11  H   UNK N   1      35.787  19.007   8.444  0.00  0.00     0.149 HD
ENDBRANCH   8   9
ENDBRANCH   7   8
ENDBRANCH   4   7
BRANCH   3  12
HETATM   12  O   UNK N   1      30.166  17.520   9.124  0.00  0.00    -0.355 OA
HETATM   13  C   UNK N   1      29.600  18.592   9.772  0.00  0.00     0.210 C 
ENDBRANCH   3  12
BRANCH   6  14
HETATM   14  O   UNK N   1      31.499  17.187   3.740  0.00  0.00    -0.355 OA
HETATM   15  C   UNK N   1      32.749  16.868   3.274  0.00  0.00     0.210 C 
ENDBRANCH   6  14
BRANCH   1  16
HETATM   16  S   UNK N   1      28.336  17.625   4.410  0.00  0.00    -0.127 SA
BRANCH  16  17
HETATM   17  C   UNK N   1      27.375  18.783   5.430  0.00  0.00     0.079 C 
BRANCH  17  18
HETATM   18  C   UNK N   1      27.674  20.191   4.942  0.00  0.00     0.006 C 
HETATM   19  C   UNK N   1      27.091  21.220   5.889  0.00  0.00     0.006 C 
ENDBRANCH  17  18
ENDBRANCH  16  17
ENDBRANCH   1  16
TORSDOF 8
ENDMDL
MODEL 4
REMARK VINA RESULT:      -4.6      3.003      5.148
REMARK  8 active torsions:
REMARK  status: ('A' for Active; 'I' for Inactive)
REMARK    1  A    between atoms: C_2  and  C_3 
REMARK    2  A    between atoms: C_3  and  S_4 
REMARK    3  A    between atoms: S_4  and  C_5 
REMARK    4  A    between atoms: C_7  and  O_16 
REMARK    5  A    between atoms: C_8  and  C_13 
REMARK    6  A    between atoms: C_10  and  O_11 
REMARK    7  A    between atoms: C_13  and  C_14 
REMARK    8  A    between atoms: C_14  and  N_15 
ROOT
HETATM    1  C   UNK N   1      32.269  17.239   5.645  0.00  0.00     0.036 A 
HETATM    2  C   UNK N   1      30.919  16.876   5.624  0.00  0.00     0.058 A 
HETATM    3  C   UNK N   1      30.126  16.874   6.776  0.00  0.00     0.076 A 
HETATM    4  C   UNK N   1      30.711  17.270   8.010  0.00  0.00    -0.021 A 
HETATM    5  C   UNK N   1      32.062  17.649   8.026  0.00  0.00     0.048 A 
HETATM    6  C   UNK N   1      32.860  17.631   6.881  0.00  0.00     0.085 A 
ENDROOT
BRANCH   4   7
HETATM    7  C   UNK N   1      29.932  17.269   9.304  0.00  0.00     0.060 C 
BRANCH   7   8
HETATM    8  C   UNK N   1      29.103  18.524   9.550  0.00  0.00     0.115 C 
BRANCH   8   9
HETATM    9  N   UNK N   1      27.745  18.305   9.088  0.00  0.00    -0.430 N 
HETATM   10  H   UNK N   1      26.960  18.449   9.724  0.00  0.00     0.149 HD
HETATM   11  H   UNK N   1      27.574  18.009   8.127  0.00  0.00     0.149 HD
ENDBRANCH   8   9
ENDBRANCH   7   8
ENDBRANCH   4   7
BRANCH   3  12
HETATM   12  O   UNK N   1      28.834  16.466   6.633  0.00  0.00    -0.355 OA
HETATM   13  C   UNK N   1      28.279  15.864   5.529  0.00  0.00     0.210 C 
ENDBRANCH   3  12
BRANCH   6  14
HETATM   14  O   UNK N   1      34.166  17.974   7.050  0.00  0.00    -0.355 OA
HETATM   15  C   UNK N   1      34.755  18.432   8.200  0.00  0.00     0.210 C 
ENDBRANCH   6  14
BRANCH   1  16
HETATM   16  S   UNK N   1      33.153  17.090   4.077  0.00  0.00    -0.127 SA
BRANCH  16  17
HETATM   17  C   UNK N   1      31.902  16.102   3.203  0.00  0.00     0.079 C 
BRANCH  17  18
HETATM   18  C   UNK N   1      32.460  14.698   3.025  0.00  0.00     0.006 C 
HETATM   19  C   UNK N   1      31.342  13.676   3.013  0.00  0.00     0.006 C 
ENDBRANCH  17  18
ENDBRANCH  16  17
ENDBRANCH   1  16
TORSDOF 8
ENDMDL
MODEL 5
REMARK VINA RESULT:      -4.6      7.138     10.257
REMARK  8 active torsions:
REMARK  status: ('A' for Active; 'I' for Inactive)
REMARK    1  A    between atoms: C_2  and  C_3 
REMARK    2  A    between atoms: C_3  and  S_4 
REMARK    3  A    between atoms: S_4  and  C_5 
REMARK    4  A    between atoms: C_7  and  O_16 
REMARK    5  A    between atoms: C_8  and  C_13 
REMARK    6  A    between atoms: C_10  and  O_11 
REMARK    7  A    between atoms: C_13  and  C_14 
REMARK    8  A    between atoms: C_14  and  N_15 
ROOT
HETATM    1  C   UNK N   1      24.412  19.520   3.724  0.00  0.00     0.036 A 
HETATM    2  C   UNK N   1      23.334  20.184   3.130  0.00  0.00     0.058 A 
HETATM    3  C   UNK N   1      22.038  19.661   3.136  0.00  0.00     0.076 A 
HETATM    4  C   UNK N   1      21.804  18.416   3.782  0.00  0.00    -0.021 A 
HETATM    5  C   UNK N   1      22.884  17.758   4.390  0.00  0.00     0.048 A 
HETATM    6  C   UNK N   1      24.183  18.269   4.367  0.00  0.00     0.085 A 
ENDROOT
BRANCH   4   7
HETATM    7  C   UNK N   1      20.439  17.770   3.808  0.00  0.00     0.060 C 
BRANCH   7   8
HETATM    8  C   UNK N   1      20.088  16.970   2.559  0.00  0.00     0.115 C 
BRANCH   8   9
HETATM    9  N   UNK N   1      19.217  17.759   1.708  0.00  0.00    -0.430 N 
HETATM   10  H   UNK N   1      19.610  18.488   1.111  0.00  0.00     0.149 HD
HETATM   11  H   UNK N   1      18.212  17.586   1.706  0.00  0.00     0.149 HD
ENDBRANCH   8   9
ENDBRANCH   7   8
ENDBRANCH   4   7
BRANCH   3  12
HETATM   12  O   UNK N   1      21.079  20.385   2.493  0.00  0.00    -0.355 OA
HETATM   13  C   UNK N   1      21.011  20.645   1.144  0.00  0.00     0.210 C 
ENDBRANCH   3  12
BRANCH   6  14
HETATM   14  O   UNK N   1      25.143  17.503   4.952  0.00  0.00    -0.355 OA
HETATM   15  C   UNK N   1      25.838  16.470   4.376  0.00  0.00     0.210 C 
ENDBRANCH   6  14
BRANCH   1  16
HETATM   16  S   UNK N   1      26.028  20.305   3.534  0.00  0.00    -0.127 SA
BRANCH  16  17
HETATM   17  C   UNK N   1      26.247  20.797   5.270  0.00  0.00     0.079 C 
BRANCH  17  18
HETATM   18  C   UNK N   1      27.561  20.208   5.759  0.00  0.00     0.006 C 
HETATM   19  C   UNK N   1      28.194  19.349   4.685  0.00  0.00     0.006 C 
ENDBRANCH  17  18
ENDBRANCH  16  17
ENDBRANCH   1  16
TORSDOF 8
ENDMDL
MODEL 6
REMARK VINA RESULT:      -4.4      2.720      6.260
REMARK  8 active torsions:
REMARK  status: ('A' for Active; 'I' for Inactive)
REMARK    1  A    between atoms: C_2  and  C_3 
REMARK    2  A    between atoms: C_3  and  S_4 
REMARK    3  A    between atoms: S_4  and  C_5 
REMARK    4  A    between atoms: C_7  and  O_16 
REMARK    5  A    between atoms: C_8  and  C_13 
REMARK    6  A    between atoms: C_10  and  O_11 
REMARK    7  A    between atoms: C_13  and  C_14 
REMARK    8  A    between atoms: C_14  and  N_15 
ROOT
HETATM    1  C   UNK N   1      32.420  17.080   6.903  0.00  0.00     0.036 A 
HETATM    2  C   UNK N   1      31.655  17.503   7.994  0.00  0.00     0.058 A 
HETATM    3  C   UNK N   1      30.268  17.663   7.920  0.00  0.00     0.076 A 
HETATM    4  C   UNK N   1      29.610  17.371   6.694  0.00  0.00    -0.021 A 
HETATM    5  C   UNK N   1      30.377  16.932   5.604  0.00  0.00     0.048 A 
HETATM    6  C   UNK N   1      31.764  16.791   5.671  0.00  0.00     0.085 A 
ENDROOT
BRANCH   4   7
HETATM    7  C   UNK N   1      28.119  17.545   6.523  0.00  0.00     0.060 C 
BRANCH   7   8
HETATM    8  C   UNK N   1      27.670  18.978   6.263  0.00  0.00     0.115 C 
BRANCH   8   9
HETATM    9  N   UNK N   1      27.320  19.611   7.520  0.00  0.00    -0.430 N 
HETATM   10  H   UNK N   1      28.007  20.183   8.013  0.00  0.00     0.149 HD
HETATM   11  H   UNK N   1      26.387  19.485   7.913  0.00  0.00     0.149 HD
ENDBRANCH   8   9
ENDBRANCH   7   8
ENDBRANCH   4   7
BRANCH   3  12
HETATM   12  O   UNK N   1      29.640  18.116   9.042  0.00  0.00    -0.355 OA
HETATM   13  C   UNK N   1      29.132  17.351  10.065  0.00  0.00     0.210 C 
ENDBRANCH   3  12
BRANCH   6  14
HETATM   14  O   UNK N   1      32.387  16.406   4.525  0.00  0.00    -0.355 OA
HETATM   15  C   UNK N   1      32.655  17.187   3.429  0.00  0.00     0.210 C 
ENDBRANCH   6  14
BRANCH   1  16
HETATM   16  S   UNK N   1      34.206  17.021   7.162  0.00  0.00    -0.127 SA
BRANCH  16  17
HETATM   17  C   UNK N   1      34.185  17.314   8.956  0.00  0.00     0.079 C 
BRANCH  17  18
HETATM   18  C   UNK N   1      34.815  16.106   9.633  0.00  0.00     0.006 C 
HETATM   19  C   UNK N   1      35.490  16.510  10.927  0.00  0.00     0.006 C 
ENDBRANCH  17  18
ENDBRANCH  16  17
ENDBRANCH   1  16
TORSDOF 8
ENDMDL
MODEL 7
REMARK VINA RESULT:      -4.4      8.995     10.843
REMARK  8 active torsions:
REMARK  status: ('A' for Active; 'I' for Inactive)
REMARK    1  A    between atoms: C_2  and  C_3 
REMARK    2  A    between atoms: C_3  and  S_4 
REMARK    3  A    between atoms: S_4  and  C_5 
REMARK    4  A    between atoms: C_7  and  O_16 
REMARK    5  A    between atoms: C_8  and  C_13 
REMARK    6  A    between atoms: C_10  and  O_11 
REMARK    7  A    between atoms: C_13  and  C_14 
REMARK    8  A    between atoms: C_14  and  N_15 
ROOT
HETATM    1  C   UNK N   1      20.487  15.393   7.155  0.00  0.00     0.036 A 
HETATM    2  C   UNK N   1      21.073  14.134   6.989  0.00  0.00     0.058 A 
HETATM    3  C   UNK N   1      21.242  13.241   8.051  0.00  0.00     0.076 A 
HETATM    4  C   UNK N   1      20.787  13.620   9.343  0.00  0.00    -0.021 A 
HETATM    5  C   UNK N   1      20.185  14.877   9.505  0.00  0.00     0.048 A 
HETATM    6  C   UNK N   1      20.035  15.778   8.450  0.00  0.00     0.085 A 
ENDROOT
BRANCH   4   7
HETATM    7  C   UNK N   1      20.957  12.724  10.548  0.00  0.00     0.060 C 
BRANCH   7   8
HETATM    8  C   UNK N   1      22.400  12.527  10.998  0.00  0.00     0.115 C 
BRANCH   8   9
HETATM    9  N   UNK N   1      22.835  11.187  10.653  0.00  0.00    -0.430 N 
HETATM   10  H   UNK N   1      23.183  10.560  11.380  0.00  0.00     0.149 HD
HETATM   11  H   UNK N   1      22.794  10.870   9.684  0.00  0.00     0.149 HD
ENDBRANCH   8   9
ENDBRANCH   7   8
ENDBRANCH   4   7
BRANCH   3  12
HETATM   12  O   UNK N   1      21.860  12.059   7.768  0.00  0.00    -0.355 OA
HETATM   13  C   UNK N   1      22.999  11.885   7.018  0.00  0.00     0.210 C 
ENDBRANCH   3  12
BRANCH   6  14
HETATM   14  O   UNK N   1      19.480  16.982   8.759  0.00  0.00    -0.355 OA
HETATM   15  C   UNK N   1      18.171  17.225   9.088  0.00  0.00     0.210 C 
ENDBRANCH   6  14
BRANCH   1  16
HETATM   16  S   UNK N   1      20.440  16.445   5.687  0.00  0.00    -0.127 SA
BRANCH  16  17
HETATM   17  C   UNK N   1      21.653  17.676   6.250  0.00  0.00     0.079 C 
BRANCH  17  18
HETATM   18  C   UNK N   1      22.823  17.655   5.279  0.00  0.00     0.006 C 
HETATM   19  C   UNK N   1      23.675  16.422   5.494  0.00  0.00     0.006 C 
ENDBRANCH  17  18
ENDBRANCH  16  17
ENDBRANCH   1  16
TORSDOF 8
ENDMDL
MODEL 8
REMARK VINA RESULT:      -4.4     13.427     15.975
REMARK  8 active torsions:
REMARK  status: ('A' for Active; 'I' for Inactive)
REMARK    1  A    between atoms: C_2  and  C_3 
REMARK    2  A    between atoms: C_3  and  S_4 
REMARK    3  A    between atoms: S_4  and  C_5 
REMARK    4  A    between atoms: C_7  and  O_16 
REMARK    5  A    between atoms: C_8  and  C_13 
REMARK    6  A    between atoms: C_10  and  O_11 
REMARK    7  A    between atoms: C_13  and  C_14 
REMARK    8  A    between atoms: C_14  and  N_15 
ROOT
HETATM    1  C   UNK N   1      27.582  24.816  -5.109  0.00  0.00     0.036 A 
HETATM    2  C   UNK N   1      27.554  25.937  -5.944  0.00  0.00     0.058 A 
HETATM    3  C   UNK N   1      26.996  27.155  -5.545  0.00  0.00     0.076 A 
HETATM    4  C   UNK N   1      26.450  27.262  -4.236  0.00  0.00    -0.021 A 
HETATM    5  C   UNK N   1      26.493  26.140  -3.393  0.00  0.00     0.048 A 
HETATM    6  C   UNK N   1      27.031  24.918  -3.798  0.00  0.00     0.085 A 
ENDROOT
BRANCH   4   7
HETATM    7  C   UNK N   1      25.804  28.533  -3.737  0.00  0.00     0.060 C 
BRANCH   7   8
HETATM    8  C   UNK N   1      26.783  29.624  -3.320  0.00  0.00     0.115 C 
BRANCH   8   9
HETATM    9  N   UNK N   1      26.836  30.646  -4.348  0.00  0.00    -0.430 N 
HETATM   10  H   UNK N   1      25.971  31.046  -4.716  0.00  0.00     0.149 HD
HETATM   11  H   UNK N   1      27.737  30.967  -4.704  0.00  0.00     0.149 HD
ENDBRANCH   8   9
ENDBRANCH   7   8
ENDBRANCH   4   7
BRANCH   3  12
HETATM   12  O   UNK N   1      26.996  28.163  -6.462  0.00  0.00    -0.355 OA
HETATM   13  C   UNK N   1      28.092  28.692  -7.101  0.00  0.00     0.210 C 
ENDBRANCH   3  12
BRANCH   6  14
HETATM   14  O   UNK N   1      26.961  23.900  -2.898  0.00  0.00    -0.355 OA
HETATM   15  C   UNK N   1      27.993  23.382  -2.159  0.00  0.00     0.210 C 
ENDBRANCH   6  14
BRANCH   1  16
HETATM   16  S   UNK N   1      28.259  23.306  -5.832  0.00  0.00    -0.127 SA
BRANCH  16  17
HETATM   17  C   UNK N   1      27.039  23.127  -7.168  0.00  0.00     0.079 C 
BRANCH  17  18
HETATM   18  C   UNK N   1      25.712  22.734  -6.537  0.00  0.00     0.006 C 
HETATM   19  C   UNK N   1      25.002  21.701  -7.387  0.00  0.00     0.006 C 
ENDBRANCH  17  18
ENDBRANCH  16  17
ENDBRANCH   1  16
TORSDOF 8
ENDMDL
MODEL 9
REMARK VINA RESULT:      -4.3      9.082     11.096
REMARK  8 active torsions:
REMARK  status: ('A' for Active; 'I' for Inactive)
REMARK    1  A    between atoms: C_2  and  C_3 
REMARK    2  A    between atoms: C_3  and  S_4 
REMARK    3  A    between atoms: S_4  and  C_5 
REMARK    4  A    between atoms: C_7  and  O_16 
REMARK    5  A    between atoms: C_8  and  C_13 
REMARK    6  A    between atoms: C_10  and  O_11 
REMARK    7  A    between atoms: C_13  and  C_14 
REMARK    8  A    between atoms: C_14  and  N_15 
ROOT
HETATM    1  C   UNK N   1      20.880  15.130   8.670  0.00  0.00     0.036 A 
HETATM    2  C   UNK N   1      21.949  15.042   7.773  0.00  0.00     0.058 A 
HETATM    3  C   UNK N   1      22.178  16.003   6.784  0.00  0.00     0.076 A 
HETATM    4  C   UNK N   1      21.301  17.119   6.698  0.00  0.00    -0.021 A 
HETATM    5  C   UNK N   1      20.239  17.214   7.609  0.00  0.00     0.048 A 
HETATM    6  C   UNK N   1      19.996  16.244   8.583  0.00  0.00     0.085 A 
ENDROOT
BRANCH   4   7
HETATM    7  C   UNK N   1      21.463  18.187   5.642  0.00  0.00     0.060 C 
BRANCH   7   8
HETATM    8  C   UNK N   1      20.883  17.829   4.279  0.00  0.00     0.115 C 
BRANCH   8   9
HETATM    9  N   UNK N   1      21.914  17.220   3.459  0.00  0.00    -0.430 N 
HETATM   10  H   UNK N   1      21.804  16.260   3.129  0.00  0.00     0.149 HD
HETATM   11  H   UNK N   1      22.749  17.751   3.212  0.00  0.00     0.149 HD
ENDBRANCH   8   9
ENDBRANCH   7   8
ENDBRANCH   4   7
BRANCH   3  12
HETATM   12  O   UNK N   1      23.232  15.787   5.947  0.00  0.00    -0.355 OA
HETATM   13  C   UNK N   1      23.803  14.574   5.639  0.00  0.00     0.210 C 
ENDBRANCH   3  12
BRANCH   6  14
HETATM   14  O   UNK N   1      18.901  16.436   9.367  0.00  0.00    -0.355 OA
HETATM   15  C   UNK N   1      17.758  17.116   9.033  0.00  0.00     0.210 C 
ENDBRANCH   6  14
BRANCH   1  16
HETATM   16  S   UNK N   1      20.692  13.746   9.815  0.00  0.00    -0.127 SA
BRANCH  16  17
HETATM   17  C   UNK N   1      21.653  12.531   8.864  0.00  0.00     0.079 C 
BRANCH  17  18
HETATM   18  C   UNK N   1      22.713  11.950   9.786  0.00  0.00     0.006 C 
HETATM   19  C   UNK N   1      22.321  12.140  11.237  0.00  0.00     0.006 C 
ENDBRANCH  17  18
ENDBRANCH  16  17
ENDBRANCH   1  16
TORSDOF 8
ENDMDL
