REMARK  7 active torsions:
REMARK  status: ('A' for Active; 'I' for Inactive)
REMARK    1  A    between atoms: C_2  and  N_1 
REMARK    2  A    between atoms: C_2  and  C_3 
REMARK    3  A    between atoms: C_2  and  C_11 
REMARK    4  A    between atoms: C_3  and  C_4 
REMARK    5  A    between atoms: C_4  and  O_5 
REMARK    6  A    between atoms: O_5  and  N_6 
REMARK       I    between atoms: N_6  and  C_7 
REMARK       I    between atoms: C_7  and  N_8 
REMARK    7  A    between atoms: C_11  and  O_12 
ROOT
HETATM    1  C   UNK N   1       5.405   2.256   0.448  0.00  0.00     0.204 C 
ENDROOT
BRANCH   1   2
HETATM    2  C   UNK N   1       6.705   1.817  -0.197  0.00  0.00     0.064 C 
BRANCH   2   3
HETATM    3  C   UNK N   1       7.872   2.533   0.463  0.00  0.00     0.175 C 
BRANCH   3   4
HETATM    4  N   UNK N   1       7.854   3.944   0.106  0.00  0.00    -0.417 N 
HETATM    5  H   UNK N   1       8.704   4.449  -0.145  0.00  0.00     0.150 HD
HETATM    6  H   UNK N   1       6.965   4.443   0.106  0.00  0.00     0.150 HD
ENDBRANCH   3   4
BRANCH   3   7
HETATM    7  C   UNK N   1       9.174   1.899   0.069  0.00  0.00     0.163 C 
HETATM    8  O   UNK N   1       9.370   0.718   0.308  0.00  0.00    -0.648 OA
BRANCH   7   9
HETATM    9  O   UNK N   1      10.142   2.627  -0.521  0.00  0.00    -0.775 OA
HETATM   10  H   UNK N   1      10.917   2.297  -0.932  0.00  0.00     0.167 HD
ENDBRANCH   7   9
ENDBRANCH   3   7
ENDBRANCH   2   3
ENDBRANCH   1   2
BRANCH   1  11
HETATM   11  O   UNK N   1       4.671   3.026  -0.457  0.00  0.00    -0.266 OA
BRANCH  11  12
HETATM   12  N   UNK N   1       3.456   3.164   0.095  0.00  0.00    -0.097 N 
HETATM   13  C   UNK N   1       2.450   2.177  -0.074  0.00  0.00     0.689 C 
HETATM   14  N   UNK N   1       1.146   2.412   0.410  0.00  0.00    -0.233 N 
HETATM   15  N   UNK N   1       2.725   1.064  -0.651  0.00  0.00    -0.233 N 
HETATM   16  H   UNK N   1       0.833   3.282   0.748  0.00  0.00     0.174 HD
HETATM   17  H   UNK N   1       0.511   1.660   0.410  0.00  0.00     0.174 HD
HETATM   18  H   UNK N   1       2.091   0.455  -1.094  0.00  0.00     0.174 HD
ATOM     19  HN  UNK N   1       3.704   0.781  -0.651  1.00  0.00     0.174 HD
HETATM   20  H   UNK N   1       3.258   3.968   0.628  0.00  0.00     0.213 HD
ENDBRANCH  11  12
ENDBRANCH   1  11
TORSDOF 7
