MODEL 1
REMARK VINA RESULT:      -7.1      0.000      0.000
REMARK  2 active torsions:
REMARK  status: ('A' for Active; 'I' for Inactive)
REMARK    1  A    between atoms: C_3  and  C_2 
REMARK    2  A    between atoms: C_11  and  O_12 
ROOT
HETATM    1  C   UNK N   1      31.129  22.823  -4.137  0.00  0.00    -0.011 C 
HETATM    2  C   UNK N   1      30.561  23.906  -3.200  0.00  0.00     0.013 C 
HETATM    3  C   UNK N   1      29.049  23.824  -3.045  0.00  0.00     0.006 C 
HETATM    4  C   UNK N   1      28.418  23.954  -4.423  0.00  0.00    -0.002 C 
HETATM    5  C   UNK N   1      28.803  22.704  -5.243  0.00  0.00    -0.005 C 
HETATM    6  C   UNK N   1      30.331  22.677  -5.441  0.00  0.00     0.001 C 
HETATM    7  C   UNK N   1      30.747  21.297  -5.968  0.00  0.00     0.008 C 
HETATM    8  C   UNK N   1      31.255  20.502  -4.762  0.00  0.00     0.033 C 
HETATM    9  C   UNK N   1      31.034  21.410  -3.567  0.00  0.00     0.127 C 
HETATM   10  C   UNK N   1      28.122  22.701  -6.628  0.00  0.00     0.010 C 
HETATM   11  C   UNK N   1      26.606  22.879  -6.540  0.00  0.00     0.035 C 
HETATM   12  C   UNK N   1      26.345  24.102  -5.731  0.00  0.00    -0.072 C 
HETATM   13  C   UNK N   1      25.750  25.167  -6.290  0.00  0.00     0.053 C 
HETATM   14  C   UNK N   1      25.667  26.439  -5.552  0.00  0.00     0.149 C 
HETATM   15  O   UNK N   1      24.956  27.344  -5.957  0.00  0.00    -0.293 OA
HETATM   16  C   UNK N   1      26.520  26.632  -4.339  0.00  0.00     0.084 C 
HETATM   17  C   UNK N   1      26.471  25.357  -3.508  0.00  0.00     0.017 C 
HETATM   18  C   UNK N   1      26.900  24.118  -4.323  0.00  0.00     0.019 C 
ENDROOT
BRANCH   1  19
HETATM   19  C   UNK N   1      32.571  23.214  -4.529  0.00  0.00     0.008 C 
HETATM   20  C   UNK N   1      32.680  24.555  -5.245  0.00  0.00     0.006 C 
ENDBRANCH   1  19
BRANCH   9  21
HETATM   21  O   UNK N   1      31.958  21.160  -2.550  0.00  0.00    -0.395 OA
HETATM   22  H   UNK N   1      31.698  20.985  -1.631  0.00  0.00     0.210 HD
ENDBRANCH   9  21
TORSDOF 2
ENDMDL
MODEL 2
REMARK VINA RESULT:      -6.9     11.731     13.496
REMARK  2 active torsions:
REMARK  status: ('A' for Active; 'I' for Inactive)
REMARK    1  A    between atoms: C_3  and  C_2 
REMARK    2  A    between atoms: C_11  and  O_12 
ROOT
HETATM    1  C   UNK N   1      32.382  16.822   7.935  0.00  0.00    -0.011 C 
HETATM    2  C   UNK N   1      31.775  18.115   8.512  0.00  0.00     0.013 C 
HETATM    3  C   UNK N   1      30.259  18.059   8.632  0.00  0.00     0.006 C 
HETATM    4  C   UNK N   1      29.679  17.790   7.251  0.00  0.00    -0.002 C 
HETATM    5  C   UNK N   1      30.098  16.365   6.828  0.00  0.00    -0.005 C 
HETATM    6  C   UNK N   1      31.632  16.305   6.698  0.00  0.00     0.001 C 
HETATM    7  C   UNK N   1      32.072  14.839   6.593  0.00  0.00     0.008 C 
HETATM    8  C   UNK N   1      32.539  14.420   7.990  0.00  0.00     0.033 C 
HETATM    9  C   UNK N   1      32.271  15.623   8.875  0.00  0.00     0.127 C 
HETATM   10  C   UNK N   1      29.468  15.966   5.477  0.00  0.00     0.010 C 
HETATM   11  C   UNK N   1      27.949  16.140   5.460  0.00  0.00     0.035 C 
HETATM   12  C   UNK N   1      27.654  17.537   5.885  0.00  0.00    -0.072 C 
HETATM   13  C   UNK N   1      27.076  18.395   5.029  0.00  0.00     0.053 C 
HETATM   14  C   UNK N   1      26.962  19.821   5.378  0.00  0.00     0.149 C 
HETATM   15  O   UNK N   1      26.263  20.567   4.712  0.00  0.00    -0.293 OA
HETATM   16  C   UNK N   1      27.769  20.357   6.517  0.00  0.00     0.084 C 
HETATM   17  C   UNK N   1      27.694  19.366   7.670  0.00  0.00     0.017 C 
HETATM   18  C   UNK N   1      28.157  17.954   7.250  0.00  0.00     0.019 C 
ENDROOT
BRANCH   1  19
HETATM   19  C   UNK N   1      33.835  17.107   7.499  0.00  0.00     0.008 C 
HETATM   20  C   UNK N   1      34.440  18.356   8.127  0.00  0.00     0.006 C 
ENDBRANCH   1  19
BRANCH   9  21
HETATM   21  O   UNK N   1      33.158  15.680   9.952  0.00  0.00    -0.395 OA
HETATM   22  H   UNK N   1      33.328  16.493  10.454  0.00  0.00     0.210 HD
ENDBRANCH   9  21
TORSDOF 2
ENDMDL
MODEL 3
REMARK VINA RESULT:      -6.9     16.436     18.256
REMARK  2 active torsions:
REMARK  status: ('A' for Active; 'I' for Inactive)
REMARK    1  A    between atoms: C_3  and  C_2 
REMARK    2  A    between atoms: C_11  and  O_12 
ROOT
HETATM    1  C   UNK N   1      21.735  15.865   6.224  0.00  0.00    -0.011 C 
HETATM    2  C   UNK N   1      23.019  15.016   6.149  0.00  0.00     0.013 C 
HETATM    3  C   UNK N   1      22.840  13.616   6.720  0.00  0.00     0.006 C 
HETATM    4  C   UNK N   1      22.392  13.743   8.167  0.00  0.00    -0.002 C 
HETATM    5  C   UNK N   1      20.977  14.360   8.176  0.00  0.00    -0.005 C 
HETATM    6  C   UNK N   1      21.040  15.784   7.591  0.00  0.00     0.001 C 
HETATM    7  C   UNK N   1      19.615  16.275   7.303  0.00  0.00     0.008 C 
HETATM    8  C   UNK N   1      19.373  16.065   5.806  0.00  0.00     0.033 C 
HETATM    9  C   UNK N   1      20.626  15.378   5.294  0.00  0.00     0.127 C 
HETATM   10  C   UNK N   1      20.397  14.433   9.604  0.00  0.00     0.010 C 
HETATM   11  C   UNK N   1      20.434  13.085  10.326  0.00  0.00     0.035 C 
HETATM   12  C   UNK N   1      21.833  12.579  10.257  0.00  0.00    -0.072 C 
HETATM   13  C   UNK N   1      22.551  12.427  11.380  0.00  0.00     0.053 C 
HETATM   14  C   UNK N   1      23.989  12.116  11.301  0.00  0.00     0.149 C 
HETATM   15  O   UNK N   1      24.603  11.773  12.298  0.00  0.00    -0.293 OA
HETATM   16  C   UNK N   1      24.699  12.292   9.997  0.00  0.00     0.084 C 
HETATM   17  C   UNK N   1      23.818  11.733   8.889  0.00  0.00     0.017 C 
HETATM   18  C   UNK N   1      22.420  12.386   8.875  0.00  0.00     0.019 C 
ENDROOT
BRANCH   1  19
HETATM   19  C   UNK N   1      22.106  17.345   5.990  0.00  0.00     0.008 C 
HETATM   20  C   UNK N   1      23.386  17.548   5.189  0.00  0.00     0.006 C 
ENDBRANCH   1  19
BRANCH   9  21
HETATM   21  O   UNK N   1      20.863  15.671   3.949  0.00  0.00    -0.395 OA
HETATM   22  H   UNK N   1      21.398  15.103   3.371  0.00  0.00     0.210 HD
ENDBRANCH   9  21
TORSDOF 2
ENDMDL
MODEL 4
REMARK VINA RESULT:      -6.9     25.854     28.588
REMARK  2 active torsions:
REMARK  status: ('A' for Active; 'I' for Inactive)
REMARK    1  A    between atoms: C_3  and  C_2 
REMARK    2  A    between atoms: C_11  and  O_12 
ROOT
HETATM    1  C   UNK N   1      33.267   8.130  20.802  0.00  0.00    -0.011 C 
HETATM    2  C   UNK N   1      33.449   7.639  19.354  0.00  0.00     0.013 C 
HETATM    3  C   UNK N   1      34.653   8.262  18.661  0.00  0.00     0.006 C 
HETATM    4  C   UNK N   1      34.484   9.774  18.674  0.00  0.00    -0.002 C 
HETATM    5  C   UNK N   1      34.576  10.251  20.140  0.00  0.00    -0.005 C 
HETATM    6  C   UNK N   1      33.405   9.653  20.943  0.00  0.00     0.001 C 
HETATM    7  C   UNK N   1      33.665   9.857  22.441  0.00  0.00     0.008 C 
HETATM    8  C   UNK N   1      34.226   8.536  22.974  0.00  0.00     0.033 C 
HETATM    9  C   UNK N   1      34.357   7.642  21.754  0.00  0.00     0.127 C 
HETATM   10  C   UNK N   1      34.516  11.790  20.242  0.00  0.00     0.010 C 
HETATM   11  C   UNK N   1      35.551  12.481  19.352  0.00  0.00     0.035 C 
HETATM   12  C   UNK N   1      35.379  11.950  17.972  0.00  0.00    -0.072 C 
HETATM   13  C   UNK N   1      34.989  12.765  16.979  0.00  0.00     0.053 C 
HETATM   14  C   UNK N   1      34.632  12.209  15.663  0.00  0.00     0.149 C 
HETATM   15  O   UNK N   1      34.478  12.943  14.701  0.00  0.00    -0.293 OA
HETATM   16  C   UNK N   1      34.393  10.738  15.537  0.00  0.00     0.084 C 
HETATM   17  C   UNK N   1      35.476  10.005  16.317  0.00  0.00     0.017 C 
HETATM   18  C   UNK N   1      35.533  10.455  17.792  0.00  0.00     0.019 C 
ENDROOT
BRANCH   1  19
HETATM   19  C   UNK N   1      31.847   7.757  21.278  0.00  0.00     0.008 C 
HETATM   20  C   UNK N   1      30.755   8.022  20.249  0.00  0.00     0.006 C 
ENDBRANCH   1  19
BRANCH   9  21
HETATM   21  O   UNK N   1      34.236   6.291  22.088  0.00  0.00    -0.395 OA
HETATM   22  H   UNK N   1      34.007   5.605  21.441  0.00  0.00     0.210 HD
ENDBRANCH   9  21
TORSDOF 2
ENDMDL
MODEL 5
REMARK VINA RESULT:      -6.8     24.250     26.900
REMARK  2 active torsions:
REMARK  status: ('A' for Active; 'I' for Inactive)
REMARK    1  A    between atoms: C_3  and  C_2 
REMARK    2  A    between atoms: C_11  and  O_12 
ROOT
HETATM    1  C   UNK N   1      35.721   9.929  19.696  0.00  0.00    -0.011 C 
HETATM    2  C   UNK N   1      35.658  11.341  20.307  0.00  0.00     0.013 C 
HETATM    3  C   UNK N   1      34.969  12.351  19.401  0.00  0.00     0.006 C 
HETATM    4  C   UNK N   1      35.717  12.396  18.077  0.00  0.00    -0.002 C 
HETATM    5  C   UNK N   1      35.526  11.035  17.375  0.00  0.00    -0.005 C 
HETATM    6  C   UNK N   1      36.174   9.927  18.229  0.00  0.00     0.001 C 
HETATM    7  C   UNK N   1      35.718   8.558  17.709  0.00  0.00     0.008 C 
HETATM    8  C   UNK N   1      34.583   8.096  18.628  0.00  0.00     0.033 C 
HETATM    9  C   UNK N   1      34.359   9.248  19.590  0.00  0.00     0.127 C 
HETATM   10  C   UNK N   1      36.170  11.023  15.973  0.00  0.00     0.010 C 
HETATM   11  C   UNK N   1      35.699  12.185  15.097  0.00  0.00     0.035 C 
HETATM   12  C   UNK N   1      35.922  13.442  15.864  0.00  0.00    -0.072 C 
HETATM   13  C   UNK N   1      36.797  14.358  15.419  0.00  0.00     0.053 C 
HETATM   14  C   UNK N   1      37.163  15.504  16.269  0.00  0.00     0.149 C 
HETATM   15  O   UNK N   1      37.787  16.444  15.805  0.00  0.00    -0.293 OA
HETATM   16  C   UNK N   1      36.818  15.469  17.724  0.00  0.00     0.084 C 
HETATM   17  C   UNK N   1      35.400  14.936  17.871  0.00  0.00     0.017 C 
HETATM   18  C   UNK N   1      35.228  13.555  17.204  0.00  0.00     0.019 C 
ENDROOT
BRANCH   1  19
HETATM   19  C   UNK N   1      36.748   9.091  20.489  0.00  0.00     0.008 C 
HETATM   20  C   UNK N   1      37.825   9.918  21.181  0.00  0.00     0.006 C 
ENDBRANCH   1  19
BRANCH   9  21
HETATM   21  O   UNK N   1      33.864   8.805  20.819  0.00  0.00    -0.395 OA
HETATM   22  H   UNK N   1      33.793   7.866  21.053  0.00  0.00     0.210 HD
ENDBRANCH   9  21
TORSDOF 2
ENDMDL
MODEL 6
REMARK VINA RESULT:      -6.6      1.773      6.423
REMARK  2 active torsions:
REMARK  status: ('A' for Active; 'I' for Inactive)
REMARK    1  A    between atoms: C_3  and  C_2 
REMARK    2  A    between atoms: C_11  and  O_12 
ROOT
HETATM    1  C   UNK N   1      26.600  26.804  -4.751  0.00  0.00    -0.011 C 
HETATM    2  C   UNK N   1      26.400  25.367  -4.233  0.00  0.00     0.013 C 
HETATM    3  C   UNK N   1      27.533  24.896  -3.332  0.00  0.00     0.006 C 
HETATM    4  C   UNK N   1      28.834  24.984  -4.115  0.00  0.00    -0.002 C 
HETATM    5  C   UNK N   1      29.130  26.476  -4.381  0.00  0.00    -0.005 C 
HETATM    6  C   UNK N   1      28.020  27.063  -5.274  0.00  0.00     0.001 C 
HETATM    7  C   UNK N   1      28.132  28.593  -5.279  0.00  0.00     0.008 C 
HETATM    8  C   UNK N   1      27.096  29.112  -4.278  0.00  0.00     0.033 C 
HETATM    9  C   UNK N   1      26.482  27.867  -3.662  0.00  0.00     0.127 C 
HETATM   10  C   UNK N   1      30.490  26.669  -5.085  0.00  0.00     0.010 C 
HETATM   11  C   UNK N   1      31.640  25.985  -4.344  0.00  0.00     0.035 C 
HETATM   12  C   UNK N   1      31.254  24.562  -4.136  0.00  0.00    -0.072 C 
HETATM   13  C   UNK N   1      31.954  23.579  -4.724  0.00  0.00     0.053 C 
HETATM   14  C   UNK N   1      31.461  22.192  -4.680  0.00  0.00     0.149 C 
HETATM   15  O   UNK N   1      32.180  21.268  -5.024  0.00  0.00    -0.293 OA
HETATM   16  C   UNK N   1      30.045  21.937  -4.272  0.00  0.00     0.084 C 
HETATM   17  C   UNK N   1      29.724  22.814  -3.069  0.00  0.00     0.017 C 
HETATM   18  C   UNK N   1      29.981  24.308  -3.357  0.00  0.00     0.019 C 
ENDROOT
BRANCH   1  19
HETATM   19  C   UNK N   1      25.631  27.045  -5.930  0.00  0.00     0.008 C 
HETATM   20  C   UNK N   1      25.922  26.194  -7.159  0.00  0.00     0.006 C 
ENDBRANCH   1  19
BRANCH   9  21
HETATM   21  O   UNK N   1      25.169  28.091  -3.246  0.00  0.00    -0.395 OA
HETATM   22  H   UNK N   1      24.579  28.731  -3.676  0.00  0.00     0.210 HD
ENDBRANCH   9  21
TORSDOF 2
ENDMDL
MODEL 7
REMARK VINA RESULT:      -6.6      3.185      5.122
REMARK  2 active torsions:
REMARK  status: ('A' for Active; 'I' for Inactive)
REMARK    1  A    between atoms: C_3  and  C_2 
REMARK    2  A    between atoms: C_11  and  O_12 
ROOT
HETATM    1  C   UNK N   1      26.377  22.432  -8.386  0.00  0.00    -0.011 C 
HETATM    2  C   UNK N   1      25.444  23.646  -8.559  0.00  0.00     0.013 C 
HETATM    3  C   UNK N   1      26.118  24.966  -8.215  0.00  0.00     0.006 C 
HETATM    4  C   UNK N   1      26.606  24.895  -6.776  0.00  0.00    -0.002 C 
HETATM    5  C   UNK N   1      27.735  23.843  -6.708  0.00  0.00    -0.005 C 
HETATM    6  C   UNK N   1      27.160  22.458  -7.065  0.00  0.00     0.001 C 
HETATM    7  C   UNK N   1      28.317  21.480  -7.309  0.00  0.00     0.008 C 
HETATM    8  C   UNK N   1      28.502  21.389  -8.827  0.00  0.00     0.033 C 
HETATM    9  C   UNK N   1      27.511  22.382  -9.406  0.00  0.00     0.127 C 
HETATM   10  C   UNK N   1      28.363  23.774  -5.301  0.00  0.00     0.010 C 
HETATM   11  C   UNK N   1      28.828  25.140  -4.794  0.00  0.00     0.035 C 
HETATM   12  C   UNK N   1      27.674  26.074  -4.905  0.00  0.00    -0.072 C 
HETATM   13  C   UNK N   1      27.132  26.612  -3.801  0.00  0.00     0.053 C 
HETATM   14  C   UNK N   1      25.877  27.378  -3.892  0.00  0.00     0.149 C 
HETATM   15  O   UNK N   1      25.487  28.041  -2.945  0.00  0.00    -0.293 OA
HETATM   16  C   UNK N   1      25.053  27.276  -5.135  0.00  0.00     0.084 C 
HETATM   17  C   UNK N   1      25.983  27.347  -6.338  0.00  0.00     0.017 C 
HETATM   18  C   UNK N   1      27.082  26.265  -6.285  0.00  0.00     0.019 C 
ENDROOT
BRANCH   1  19
HETATM   19  C   UNK N   1      25.521  21.146  -8.380  0.00  0.00     0.008 C 
HETATM   20  C   UNK N   1      24.572  21.035  -7.194  0.00  0.00     0.006 C 
ENDBRANCH   1  19
BRANCH   9  21
HETATM   21  O   UNK N   1      27.091  22.007 -10.684  0.00  0.00    -0.395 OA
HETATM   22  H   UNK N   1      27.417  21.212 -11.135  0.00  0.00     0.210 HD
ENDBRANCH   9  21
TORSDOF 2
ENDMDL
MODEL 8
REMARK VINA RESULT:      -6.6      2.598      6.046
REMARK  2 active torsions:
REMARK  status: ('A' for Active; 'I' for Inactive)
REMARK    1  A    between atoms: C_3  and  C_2 
REMARK    2  A    between atoms: C_11  and  O_12 
ROOT
HETATM    1  C   UNK N   1      27.341  28.561  -4.784  0.00  0.00    -0.011 C 
HETATM    2  C   UNK N   1      26.288  27.813  -5.624  0.00  0.00     0.013 C 
HETATM    3  C   UNK N   1      26.050  26.388  -5.146  0.00  0.00     0.006 C 
HETATM    4  C   UNK N   1      27.373  25.638  -5.194  0.00  0.00    -0.002 C 
HETATM    5  C   UNK N   1      28.312  26.260  -4.138  0.00  0.00    -0.005 C 
HETATM    6  C   UNK N   1      28.602  27.726  -4.517  0.00  0.00     0.001 C 
HETATM    7  C   UNK N   1      29.261  28.433  -3.326  0.00  0.00     0.008 C 
HETATM    8  C   UNK N   1      28.155  29.219  -2.616  0.00  0.00     0.033 C 
HETATM    9  C   UNK N   1      26.880  28.871  -3.362  0.00  0.00     0.127 C 
HETATM   10  C   UNK N   1      29.648  25.496  -4.045  0.00  0.00     0.010 C 
HETATM   11  C   UNK N   1      29.455  23.995  -3.820  0.00  0.00     0.035 C 
HETATM   12  C   UNK N   1      28.538  23.499  -4.883  0.00  0.00    -0.072 C 
HETATM   13  C   UNK N   1      28.974  22.612  -5.791  0.00  0.00     0.053 C 
HETATM   14  C   UNK N   1      28.134  22.269  -6.951  0.00  0.00     0.149 C 
HETATM   15  O   UNK N   1      28.421  21.323  -7.665  0.00  0.00    -0.293 OA
HETATM   16  C   UNK N   1      26.962  23.138  -7.282  0.00  0.00     0.084 C 
HETATM   17  C   UNK N   1      26.234  23.478  -5.989  0.00  0.00     0.017 C 
HETATM   18  C   UNK N   1      27.168  24.140  -4.954  0.00  0.00     0.019 C 
ENDROOT
BRANCH   1  19
HETATM   19  C   UNK N   1      27.787  29.821  -5.556  0.00  0.00     0.008 C 
HETATM   20  C   UNK N   1      28.574  29.528  -6.827  0.00  0.00     0.006 C 
ENDBRANCH   1  19
BRANCH   9  21
HETATM   21  O   UNK N   1      25.944  29.904  -3.296  0.00  0.00    -0.395 OA
HETATM   22  H   UNK N   1      25.907  30.538  -2.561  0.00  0.00     0.210 HD
ENDBRANCH   9  21
TORSDOF 2
ENDMDL
MODEL 9
REMARK VINA RESULT:      -6.6     11.254     14.435
REMARK  2 active torsions:
REMARK  status: ('A' for Active; 'I' for Inactive)
REMARK    1  A    between atoms: C_3  and  C_2 
REMARK    2  A    between atoms: C_11  and  O_12 
ROOT
HETATM    1  C   UNK N   1      28.198  17.345   6.243  0.00  0.00    -0.011 C 
HETATM    2  C   UNK N   1      28.708  17.194   7.688  0.00  0.00     0.013 C 
HETATM    3  C   UNK N   1      30.080  17.815   7.903  0.00  0.00     0.006 C 
HETATM    4  C   UNK N   1      31.059  17.159   6.941  0.00  0.00    -0.002 C 
HETATM    5  C   UNK N   1      30.659  17.562   5.505  0.00  0.00    -0.005 C 
HETATM    6  C   UNK N   1      29.260  16.997   5.190  0.00  0.00     0.001 C 
HETATM    7  C   UNK N   1      28.730  17.651   3.908  0.00  0.00     0.008 C 
HETATM    8  C   UNK N   1      27.778  18.768   4.347  0.00  0.00     0.033 C 
HETATM    9  C   UNK N   1      27.859  18.784   5.862  0.00  0.00     0.127 C 
HETATM   10  C   UNK N   1      31.661  17.022   4.463  0.00  0.00     0.010 C 
HETATM   11  C   UNK N   1      33.107  17.407   4.780  0.00  0.00     0.035 C 
HETATM   12  C   UNK N   1      33.387  16.980   6.179  0.00  0.00    -0.072 C 
HETATM   13  C   UNK N   1      34.306  16.033   6.424  0.00  0.00     0.053 C 
HETATM   14  C   UNK N   1      34.446  15.473   7.779  0.00  0.00     0.149 C 
HETATM   15  O   UNK N   1      35.403  14.772   8.063  0.00  0.00    -0.293 OA
HETATM   16  C   UNK N   1      33.364  15.719   8.782  0.00  0.00     0.084 C 
HETATM   17  C   UNK N   1      32.942  17.178   8.687  0.00  0.00     0.017 C 
HETATM   18  C   UNK N   1      32.501  17.563   7.259  0.00  0.00     0.019 C 
ENDROOT
BRANCH   1  19
HETATM   19  C   UNK N   1      27.014  16.376   6.031  0.00  0.00     0.008 C 
HETATM   20  C   UNK N   1      27.430  14.951   5.687  0.00  0.00     0.006 C 
ENDBRANCH   1  19
BRANCH   9  21
HETATM   21  O   UNK N   1      26.673  19.245   6.437  0.00  0.00    -0.395 OA
HETATM   22  H   UNK N   1      26.410  20.179   6.431  0.00  0.00     0.210 HD
ENDBRANCH   9  21
TORSDOF 2
ENDMDL
