REMARK  18 active torsions:
REMARK  status: ('A' for Active; 'I' for Inactive)
REMARK    1  A    between atoms: C_1  and  O_25 
REMARK    2  A    between atoms: C_2  and  O_26 
REMARK    3  A    between atoms: C_3  and  O_27 
REMARK    4  A    between atoms: C_4  and  O_28 
REMARK    5  A    between atoms: C_5  and  O_29 
REMARK    6  A    between atoms: C_6  and  O_30 
REMARK    7  A    between atoms: S_31  and  O_7 
REMARK    8  A    between atoms: S_32  and  O_10 
REMARK    9  A    between atoms: S_33  and  O_13 
REMARK   10  A    between atoms: S_34  and  O_16 
REMARK   11  A    between atoms: S_35  and  O_19 
REMARK   12  A    between atoms: S_36  and  O_22 
REMARK   13  A    between atoms: S_31  and  O_25 
REMARK   14  A    between atoms: S_32  and  O_26 
REMARK   15  A    between atoms: S_33  and  O_27 
REMARK   16  A    between atoms: S_34  and  O_28 
REMARK   17  A    between atoms: S_35  and  O_29 
REMARK   18  A    between atoms: S_36  and  O_30 
ROOT
HETATM    1  C   UNK N   1       1.836   1.457   0.000  0.00  0.00     0.210 C 
HETATM    2  C   UNK N   1       0.304   1.681  -0.076  0.00  0.00     0.210 C 
HETATM    3  C   UNK N   1       2.251   0.063  -0.530  0.00  0.00     0.210 C 
HETATM    4  C   UNK N   1      -0.470   0.520   0.596  0.00  0.00     0.210 C 
HETATM    5  C   UNK N   1       1.477  -1.082   0.194  0.00  0.00     0.210 C 
HETATM    6  C   UNK N   1      -0.057  -0.884   0.041  0.00  0.00     0.210 C 
ENDROOT
BRANCH   1   7
HETATM    7  O   UNK N   1       2.491   2.443  -0.772  0.00  0.00    -0.253 OA
BRANCH   7   8
HETATM    8  S   UNK N   1       3.196   3.662   0.236  0.00  0.00     0.240 S 
HETATM    9  O   UNK N   1       2.112   4.348   1.082  0.00  0.00    -0.579 OA
HETATM   10  O   UNK N   1       4.167   3.030   1.244  0.00  0.00    -0.579 OA
BRANCH   8  11
HETATM   11  O   UNK N   1       4.044   4.868  -0.643  0.00  0.00    -0.274 OA
HETATM   12  H   UNK N   1       4.874   4.794  -1.140  0.00  0.00     0.234 HD
ENDBRANCH   8  11
ENDBRANCH   7   8
ENDBRANCH   1   7
BRANCH   2  13
HETATM   13  O   UNK N   1      -0.085   1.826  -1.427  0.00  0.00    -0.253 OA
BRANCH  13  14
HETATM   14  S   UNK N   1      -0.852   3.369  -1.659  0.00  0.00     0.240 S 
HETATM   15  O   UNK N   1      -1.589   3.348  -3.005  0.00  0.00    -0.579 OA
HETATM   16  O   UNK N   1      -1.981   3.566  -0.633  0.00  0.00    -0.579 OA
BRANCH  14  17
HETATM   17  O   UNK N   1       0.192   4.731  -1.634  0.00  0.00    -0.274 OA
HETATM   18  H   UNK N   1       1.154   4.605  -1.621  0.00  0.00     0.234 HD
ENDBRANCH  14  17
ENDBRANCH  13  14
ENDBRANCH   2  13
BRANCH   3  19
HETATM   19  O   UNK N   1       3.670  -0.067  -0.541  0.00  0.00    -0.253 OA
BRANCH  19  20
HETATM   20  S   UNK N   1       4.376  -0.576   0.965  0.00  0.00     0.240 S 
HETATM   21  O   UNK N   1       3.799   0.177   2.172  0.00  0.00    -0.579 OA
HETATM   22  O   UNK N   1       5.844  -0.123   0.947  0.00  0.00    -0.579 OA
BRANCH  20  23
HETATM   23  O   UNK N   1       4.376  -2.266   1.265  0.00  0.00    -0.274 OA
HETATM   24  H   UNK N   1       3.549  -2.743   1.434  0.00  0.00     0.234 HD
ENDBRANCH  20  23
ENDBRANCH  19  20
ENDBRANCH   3  19
BRANCH   4  25
HETATM   25  O   UNK N   1      -1.867   0.789   0.664  0.00  0.00    -0.253 OA
BRANCH  25  26
HETATM   26  S   UNK N   1      -2.841   0.266  -0.684  0.00  0.00     0.240 S 
HETATM   27  O   UNK N   1      -2.091   0.263  -2.024  0.00  0.00    -0.579 OA
HETATM   28  O   UNK N   1      -3.297  -1.184  -0.472  0.00  0.00    -0.579 OA
BRANCH  26  29
HETATM   29  O   UNK N   1      -4.252   1.223  -0.886  0.00  0.00    -0.274 OA
HETATM   30  H   UNK N   1      -4.182   2.184  -1.001  0.00  0.00     0.234 HD
ENDBRANCH  26  29
ENDBRANCH  25  26
ENDBRANCH   4  25
BRANCH   5  31
HETATM   31  O   UNK N   1       1.884  -2.404  -0.130  0.00  0.00    -0.253 OA
BRANCH  31  32
HETATM   32  S   UNK N   1       2.023  -2.730  -1.827  0.00  0.00     0.240 S 
HETATM   33  O   UNK N   1       2.291  -4.237  -1.957  0.00  0.00    -0.579 OA
HETATM   34  O   UNK N   1       3.303  -2.109  -2.407  0.00  0.00    -0.579 OA
BRANCH  32  35
HETATM   35  O   UNK N   1       0.671  -2.380  -2.824  0.00  0.00    -0.274 OA
HETATM   36  H   UNK N   1       0.460  -1.620  -3.388  0.00  0.00     0.234 HD
ENDBRANCH  32  35
ENDBRANCH  31  32
ENDBRANCH   5  31
BRANCH   6  37
HETATM   37  O   UNK N   1      -0.803  -1.951   0.594  0.00  0.00    -0.253 OA
BRANCH  37  38
HETATM   38  S   UNK N   1      -0.584  -2.086   2.304  0.00  0.00     0.240 S 
HETATM   39  O   UNK N   1      -1.903  -2.223   3.079  0.00  0.00    -0.579 OA
HETATM   40  O   UNK N   1       0.345  -3.232   2.730  0.00  0.00    -0.579 OA
BRANCH  38  41
HETATM   41  O   UNK N   1      -1.307  -3.511   1.676  0.00  0.00    -0.274 OA
HETATM   42  H   UNK N   1      -2.209  -3.559   1.321  0.00  0.00     0.234 HD
ENDBRANCH  38  41
ENDBRANCH  37  38
ENDBRANCH   6  37
TORSDOF 18
