MODEL 1
REMARK VINA RESULT:      -5.9      0.000      0.000
REMARK  14 active torsions:
REMARK  status: ('A' for Active; 'I' for Inactive)
REMARK    1  A    between atoms: C_2  and  O_1 
REMARK    2  A    between atoms: C_2  and  C_3 
REMARK    3  A    between atoms: C_2  and  C_9 
REMARK    4  A    between atoms: C_3  and  O_4 
REMARK    5  A    between atoms: O_4  and  P_5 
REMARK    6  A    between atoms: P_5  and  O_6 
REMARK    7  A    between atoms: P_5  and  O_7 
REMARK    8  A    between atoms: C_9  and  O_10 
REMARK    9  A    between atoms: C_9  and  C_11 
REMARK   10  A    between atoms: C_11  and  O_12 
REMARK   11  A    between atoms: C_11  and  C_13 
REMARK   12  A    between atoms: C_13  and  O_14 
REMARK   13  A    between atoms: C_13  and  C_15 
REMARK   14  A    between atoms: C_15  and  O_16 
ROOT
HETATM    1  C   UNK N   1      35.218  14.816  11.869  0.00  0.00     0.180 C 
ENDROOT
BRANCH   1   2
HETATM    2  C   UNK N   1      35.925  15.265  10.578  0.00  0.00     0.173 C 
BRANCH   2   3
HETATM    3  O   UNK N   1      36.879  16.244  10.854  0.00  0.00    -0.391 OA
HETATM    4  H   UNK N   1      37.060  17.014  10.293  0.00  0.00     0.210 HD
ENDBRANCH   2   3
BRANCH   2   5
HETATM    5  C   UNK N   1      34.930  15.868   9.602  0.00  0.00     0.214 C 
BRANCH   5   6
HETATM    6  O   UNK N   1      35.110  17.250   9.520  0.00  0.00    -0.294 OA
BRANCH   6   7
HETATM    7  P   UNK N   1      33.947  17.786   8.344  0.00  0.00     0.390 P 
HETATM    8  O   UNK N   1      34.466  16.454   7.738  0.00  0.00    -0.632 OA
BRANCH   7   9
HETATM    9  O   UNK N   1      34.486  18.254   6.763  0.00  0.00    -0.307 OA
HETATM   10  H   UNK N   1      35.138  18.936   6.535  0.00  0.00     0.222 HD
ENDBRANCH   7   9
BRANCH   7  11
HETATM   11  O   UNK N   1      35.228  18.956   8.444  0.00  0.00    -0.307 OA
HETATM   12  H   UNK N   1      35.276  19.911   8.284  0.00  0.00     0.222 HD
ENDBRANCH   7  11
ENDBRANCH   6   7
ENDBRANCH   5   6
ENDBRANCH   2   5
ENDBRANCH   1   2
BRANCH   1  13
HETATM   13  O   UNK N   1      33.893  14.478  11.578  0.00  0.00    -0.390 OA
HETATM   14  H   UNK N   1      33.202  15.114  11.336  0.00  0.00     0.210 HD
ENDBRANCH   1  13
BRANCH   1  15
HETATM   15  C   UNK N   1      35.909  13.636  12.590  0.00  0.00     0.188 C 
BRANCH  15  16
HETATM   16  O   UNK N   1      37.293  13.723  12.420  0.00  0.00    -0.390 OA
HETATM   17  H   UNK N   1      37.701  14.121  11.635  0.00  0.00     0.210 HD
ENDBRANCH  15  16
BRANCH  15  18
HETATM   18  C   UNK N   1      35.587  13.656  14.097  0.00  0.00     0.246 C 
BRANCH  18  19
HETATM   19  O   UNK N   1      34.515  12.802  14.374  0.00  0.00    -0.382 OA
HETATM   20  H   UNK N   1      33.905  12.455  13.705  0.00  0.00     0.210 HD
ENDBRANCH  18  19
BRANCH  18  21
HETATM   21  C   UNK N   1      36.768  13.287  14.959  0.00  0.00     0.172 C 
HETATM   22  O   UNK N   1      37.026  12.112  15.173  0.00  0.00    -0.648 OA
BRANCH  21  23
HETATM   23  O   UNK N   1      37.574  14.242  15.461  0.00  0.00    -0.774 OA
HETATM   24  H   UNK N   1      38.376  14.571  15.104  0.00  0.00     0.167 HD
ENDBRANCH  21  23
ENDBRANCH  18  21
ENDBRANCH  15  18
ENDBRANCH   1  15
TORSDOF 14
ENDMDL
MODEL 2
REMARK VINA RESULT:      -5.5      2.424      6.508
REMARK  14 active torsions:
REMARK  status: ('A' for Active; 'I' for Inactive)
REMARK    1  A    between atoms: C_2  and  O_1 
REMARK    2  A    between atoms: C_2  and  C_3 
REMARK    3  A    between atoms: C_2  and  C_9 
REMARK    4  A    between atoms: C_3  and  O_4 
REMARK    5  A    between atoms: O_4  and  P_5 
REMARK    6  A    between atoms: P_5  and  O_6 
REMARK    7  A    between atoms: P_5  and  O_7 
REMARK    8  A    between atoms: C_9  and  O_10 
REMARK    9  A    between atoms: C_9  and  C_11 
REMARK   10  A    between atoms: C_11  and  O_12 
REMARK   11  A    between atoms: C_11  and  C_13 
REMARK   12  A    between atoms: C_13  and  O_14 
REMARK   13  A    between atoms: C_13  and  C_15 
REMARK   14  A    between atoms: C_15  and  O_16 
ROOT
HETATM    1  C   UNK N   1      35.471  14.863   9.768  0.00  0.00     0.180 C 
ENDROOT
BRANCH   1   2
HETATM    2  C   UNK N   1      34.453  14.032  10.570  0.00  0.00     0.173 C 
BRANCH   2   3
HETATM    3  O   UNK N   1      33.569  14.865  11.255  0.00  0.00    -0.391 OA
HETATM    4  H   UNK N   1      33.196  15.688  10.901  0.00  0.00     0.210 HD
ENDBRANCH   2   3
BRANCH   2   5
HETATM    5  C   UNK N   1      35.157  13.173  11.606  0.00  0.00     0.214 C 
BRANCH   5   6
HETATM    6  O   UNK N   1      34.904  13.658  12.890  0.00  0.00    -0.294 OA
BRANCH   6   7
HETATM    7  P   UNK N   1      36.081  12.879  13.905  0.00  0.00     0.390 P 
HETATM    8  O   UNK N   1      35.098  13.504  14.930  0.00  0.00    -0.632 OA
BRANCH   7   9
HETATM    9  O   UNK N   1      37.116  13.846  14.907  0.00  0.00    -0.307 OA
HETATM   10  H   UNK N   1      38.070  13.746  15.047  0.00  0.00     0.222 HD
ENDBRANCH   7   9
BRANCH   7  11
HETATM   11  O   UNK N   1      36.868  14.119  12.975  0.00  0.00    -0.307 OA
HETATM   12  H   UNK N   1      37.669  14.649  13.109  0.00  0.00     0.222 HD
ENDBRANCH   7  11
ENDBRANCH   6   7
ENDBRANCH   5   6
ENDBRANCH   2   5
ENDBRANCH   1   2
BRANCH   1  13
HETATM   13  O   UNK N   1      36.406  14.006   9.179  0.00  0.00    -0.390 OA
HETATM   14  H   UNK N   1      36.386  13.722   8.252  0.00  0.00     0.210 HD
ENDBRANCH   1  13
BRANCH   1  15
HETATM   15  C   UNK N   1      34.836  15.764   8.685  0.00  0.00     0.188 C 
BRANCH  15  16
HETATM   16  O   UNK N   1      33.628  15.209   8.256  0.00  0.00    -0.390 OA
HETATM   17  H   UNK N   1      32.865  15.094   8.845  0.00  0.00     0.210 HD
ENDBRANCH  15  16
BRANCH  15  18
HETATM   18  C   UNK N   1      34.570  17.176   9.241  0.00  0.00     0.246 C 
BRANCH  18  19
HETATM   19  O   UNK N   1      35.376  17.417  10.358  0.00  0.00    -0.382 OA
HETATM   20  H   UNK N   1      36.089  18.073  10.386  0.00  0.00     0.210 HD
ENDBRANCH  18  19
BRANCH  18  21
HETATM   21  C   UNK N   1      34.782  18.265   8.218  0.00  0.00     0.172 C 
HETATM   22  O   UNK N   1      34.389  18.111   7.071  0.00  0.00    -0.648 OA
BRANCH  21  23
HETATM   23  O   UNK N   1      35.362  19.429   8.568  0.00  0.00    -0.774 OA
HETATM   24  H   UNK N   1      34.949  20.247   8.763  0.00  0.00     0.167 HD
ENDBRANCH  21  23
ENDBRANCH  18  21
ENDBRANCH  15  18
ENDBRANCH   1  15
TORSDOF 14
ENDMDL
MODEL 3
REMARK VINA RESULT:      -5.5      2.379      6.896
REMARK  14 active torsions:
REMARK  status: ('A' for Active; 'I' for Inactive)
REMARK    1  A    between atoms: C_2  and  O_1 
REMARK    2  A    between atoms: C_2  and  C_3 
REMARK    3  A    between atoms: C_2  and  C_9 
REMARK    4  A    between atoms: C_3  and  O_4 
REMARK    5  A    between atoms: O_4  and  P_5 
REMARK    6  A    between atoms: P_5  and  O_6 
REMARK    7  A    between atoms: P_5  and  O_7 
REMARK    8  A    between atoms: C_9  and  O_10 
REMARK    9  A    between atoms: C_9  and  C_11 
REMARK   10  A    between atoms: C_11  and  O_12 
REMARK   11  A    between atoms: C_11  and  C_13 
REMARK   12  A    between atoms: C_13  and  O_14 
REMARK   13  A    between atoms: C_13  and  C_15 
REMARK   14  A    between atoms: C_15  and  O_16 
ROOT
HETATM    1  C   UNK N   1      35.006  16.216  10.209  0.00  0.00     0.180 C 
ENDROOT
BRANCH   1   2
HETATM    2  C   UNK N   1      34.272  14.882  10.434  0.00  0.00     0.173 C 
BRANCH   2   3
HETATM    3  O   UNK N   1      33.086  15.086  11.139  0.00  0.00    -0.391 OA
HETATM    4  H   UNK N   1      32.199  14.892  10.798  0.00  0.00     0.210 HD
ENDBRANCH   2   3
BRANCH   2   5
HETATM    5  C   UNK N   1      35.126  13.930  11.255  0.00  0.00     0.214 C 
BRANCH   5   6
HETATM    6  O   UNK N   1      34.928  14.157  12.619  0.00  0.00    -0.294 OA
BRANCH   6   7
HETATM    7  P   UNK N   1      36.009  13.055  13.418  0.00  0.00     0.390 P 
HETATM    8  O   UNK N   1      34.976  13.393  14.526  0.00  0.00    -0.632 OA
BRANCH   7   9
HETATM    9  O   UNK N   1      37.000  13.627  14.723  0.00  0.00    -0.307 OA
HETATM   10  H   UNK N   1      37.303  14.534  14.884  0.00  0.00     0.222 HD
ENDBRANCH   7   9
BRANCH   7  11
HETATM   11  O   UNK N   1      36.895  14.475  12.951  0.00  0.00    -0.307 OA
HETATM   12  H   UNK N   1      36.633  15.367  12.675  0.00  0.00     0.222 HD
ENDBRANCH   7  11
ENDBRANCH   6   7
ENDBRANCH   5   6
ENDBRANCH   2   5
ENDBRANCH   1   2
BRANCH   1  13
HETATM   13  O   UNK N   1      36.277  16.148  10.788  0.00  0.00    -0.390 OA
HETATM   14  H   UNK N   1      37.056  16.627  10.465  0.00  0.00     0.210 HD
ENDBRANCH   1  13
BRANCH   1  15
HETATM   15  C   UNK N   1      35.132  16.623   8.724  0.00  0.00     0.188 C 
BRANCH  15  16
HETATM   16  O   UNK N   1      34.664  15.590   7.908  0.00  0.00    -0.390 OA
HETATM   17  H   UNK N   1      34.973  14.674   7.991  0.00  0.00     0.210 HD
ENDBRANCH  15  16
BRANCH  15  18
HETATM   18  C   UNK N   1      34.314  17.897   8.439  0.00  0.00     0.246 C 
BRANCH  18  19
HETATM   19  O   UNK N   1      35.150  19.018   8.431  0.00  0.00    -0.382 OA
HETATM   20  H   UNK N   1      35.085  19.744   7.791  0.00  0.00     0.210 HD
ENDBRANCH  18  19
BRANCH  18  21
HETATM   21  C   UNK N   1      33.544  17.828   7.143  0.00  0.00     0.172 C 
HETATM   22  O   UNK N   1      34.118  18.008   6.080  0.00  0.00    -0.648 OA
BRANCH  21  23
HETATM   23  O   UNK N   1      32.232  17.523   7.143  0.00  0.00    -0.774 OA
HETATM   24  H   UNK N   1      31.806  16.791   6.742  0.00  0.00     0.167 HD
ENDBRANCH  21  23
ENDBRANCH  18  21
ENDBRANCH  15  18
ENDBRANCH   1  15
TORSDOF 14
ENDMDL
MODEL 4
REMARK VINA RESULT:      -5.4      2.273      6.564
REMARK  14 active torsions:
REMARK  status: ('A' for Active; 'I' for Inactive)
REMARK    1  A    between atoms: C_2  and  O_1 
REMARK    2  A    between atoms: C_2  and  C_3 
REMARK    3  A    between atoms: C_2  and  C_9 
REMARK    4  A    between atoms: C_3  and  O_4 
REMARK    5  A    between atoms: O_4  and  P_5 
REMARK    6  A    between atoms: P_5  and  O_6 
REMARK    7  A    between atoms: P_5  and  O_7 
REMARK    8  A    between atoms: C_9  and  O_10 
REMARK    9  A    between atoms: C_9  and  C_11 
REMARK   10  A    between atoms: C_11  and  O_12 
REMARK   11  A    between atoms: C_11  and  C_13 
REMARK   12  A    between atoms: C_13  and  O_14 
REMARK   13  A    between atoms: C_13  and  C_15 
REMARK   14  A    between atoms: C_15  and  O_16 
ROOT
HETATM    1  C   UNK N   1      34.540  15.701  10.350  0.00  0.00     0.180 C 
ENDROOT
BRANCH   1   2
HETATM    2  C   UNK N   1      35.647  16.018  11.371  0.00  0.00     0.173 C 
BRANCH   2   3
HETATM    3  O   UNK N   1      36.898  16.024  10.754  0.00  0.00    -0.391 OA
HETATM    4  H   UNK N   1      37.279  16.781  10.282  0.00  0.00     0.210 HD
ENDBRANCH   2   3
BRANCH   2   5
HETATM    5  C   UNK N   1      35.689  14.964  12.464  0.00  0.00     0.214 C 
BRANCH   5   6
HETATM    6  O   UNK N   1      35.528  13.690  11.914  0.00  0.00    -0.294 OA
BRANCH   6   7
HETATM    7  P   UNK N   1      36.087  12.596  13.144  0.00  0.00     0.390 P 
HETATM    8  O   UNK N   1      35.229  13.612  13.946  0.00  0.00    -0.632 OA
BRANCH   7   9
HETATM    9  O   UNK N   1      37.184  13.169  14.359  0.00  0.00    -0.307 OA
HETATM   10  H   UNK N   1      37.632  12.651  15.047  0.00  0.00     0.222 HD
ENDBRANCH   7   9
BRANCH   7  11
HETATM   11  O   UNK N   1      37.458  13.384  12.424  0.00  0.00    -0.307 OA
HETATM   12  H   UNK N   1      37.833  13.392  11.529  0.00  0.00     0.222 HD
ENDBRANCH   7  11
ENDBRANCH   6   7
ENDBRANCH   5   6
ENDBRANCH   2   5
ENDBRANCH   1   2
BRANCH   1  13
HETATM   13  O   UNK N   1      33.438  15.156  11.016  0.00  0.00    -0.390 OA
HETATM   14  H   UNK N   1      32.754  14.611  10.597  0.00  0.00     0.210 HD
ENDBRANCH   1  13
BRANCH   1  15
HETATM   15  C   UNK N   1      34.089  16.917   9.510  0.00  0.00     0.188 C 
BRANCH  15  16
HETATM   16  O   UNK N   1      35.182  17.749   9.258  0.00  0.00    -0.390 OA
HETATM   17  H   UNK N   1      35.132  18.716   9.324  0.00  0.00     0.210 HD
ENDBRANCH  15  16
BRANCH  15  18
HETATM   18  C   UNK N   1      33.489  16.457   8.167  0.00  0.00     0.246 C 
BRANCH  18  19
HETATM   19  O   UNK N   1      32.194  16.961   8.017  0.00  0.00    -0.382 OA
HETATM   20  H   UNK N   1      31.749  17.079   7.164  0.00  0.00     0.210 HD
ENDBRANCH  18  19
BRANCH  18  21
HETATM   21  C   UNK N   1      34.329  16.852   6.977  0.00  0.00     0.172 C 
HETATM   22  O   UNK N   1      34.219  17.969   6.495  0.00  0.00    -0.648 OA
BRANCH  21  23
HETATM   23  O   UNK N   1      35.237  15.998   6.468  0.00  0.00    -0.774 OA
HETATM   24  H   UNK N   1      35.155  15.444   5.717  0.00  0.00     0.167 HD
ENDBRANCH  21  23
ENDBRANCH  18  21
ENDBRANCH  15  18
ENDBRANCH   1  15
TORSDOF 14
ENDMDL
MODEL 5
REMARK VINA RESULT:      -5.3     16.021     18.311
REMARK  14 active torsions:
REMARK  status: ('A' for Active; 'I' for Inactive)
REMARK    1  A    between atoms: C_2  and  O_1 
REMARK    2  A    between atoms: C_2  and  C_3 
REMARK    3  A    between atoms: C_2  and  C_9 
REMARK    4  A    between atoms: C_3  and  O_4 
REMARK    5  A    between atoms: O_4  and  P_5 
REMARK    6  A    between atoms: P_5  and  O_6 
REMARK    7  A    between atoms: P_5  and  O_7 
REMARK    8  A    between atoms: C_9  and  O_10 
REMARK    9  A    between atoms: C_9  and  C_11 
REMARK   10  A    between atoms: C_11  and  O_12 
REMARK   11  A    between atoms: C_11  and  C_13 
REMARK   12  A    between atoms: C_13  and  O_14 
REMARK   13  A    between atoms: C_13  and  C_15 
REMARK   14  A    between atoms: C_15  and  O_16 
ROOT
HETATM    1  C   UNK N   1      20.754  18.445   3.883  0.00  0.00     0.180 C 
ENDROOT
BRANCH   1   2
HETATM    2  C   UNK N   1      20.332  16.973   4.041  0.00  0.00     0.173 C 
BRANCH   2   3
HETATM    3  O   UNK N   1      18.943  16.853   4.011  0.00  0.00    -0.391 OA
HETATM    4  H   UNK N   1      18.428  16.575   3.236  0.00  0.00     0.210 HD
ENDBRANCH   2   3
BRANCH   2   5
HETATM    5  C   UNK N   1      20.803  16.419   5.374  0.00  0.00     0.214 C 
BRANCH   5   6
HETATM    6  O   UNK N   1      20.501  17.312   6.404  0.00  0.00    -0.294 OA
BRANCH   6   7
HETATM    7  P   UNK N   1      20.278  16.316   7.811  0.00  0.00     0.390 P 
HETATM    8  O   UNK N   1      18.988  16.051   6.991  0.00  0.00    -0.632 OA
BRANCH   7   9
HETATM    9  O   UNK N   1      19.011  16.697   8.933  0.00  0.00    -0.307 OA
HETATM   10  H   UNK N   1      18.055  16.586   8.810  0.00  0.00     0.222 HD
ENDBRANCH   7   9
BRANCH   7  11
HETATM   11  O   UNK N   1      20.361  17.981   8.305  0.00  0.00    -0.307 OA
HETATM   12  H   UNK N   1      20.149  18.446   9.129  0.00  0.00     0.222 HD
ENDBRANCH   7  11
ENDBRANCH   6   7
ENDBRANCH   5   6
ENDBRANCH   2   5
ENDBRANCH   1   2
BRANCH   1  13
HETATM   13  O   UNK N   1      22.026  18.624   4.435  0.00  0.00    -0.390 OA
HETATM   14  H   UNK N   1      22.341  19.447   4.840  0.00  0.00     0.210 HD
ENDBRANCH   1  13
BRANCH   1  15
HETATM   15  C   UNK N   1      20.745  18.951   2.424  0.00  0.00     0.188 C 
BRANCH  15  16
HETATM   16  O   UNK N   1      19.574  18.534   1.785  0.00  0.00    -0.390 OA
HETATM   17  H   UNK N   1      19.552  18.263   0.854  0.00  0.00     0.210 HD
ENDBRANCH  15  16
BRANCH  15  18
HETATM   18  C   UNK N   1      20.817  20.490   2.382  0.00  0.00     0.246 C 
BRANCH  18  19
HETATM   19  O   UNK N   1      21.981  20.937   3.016  0.00  0.00    -0.382 OA
HETATM   20  H   UNK N   1      22.050  21.119   3.966  0.00  0.00     0.210 HD
ENDBRANCH  18  19
BRANCH  18  21
HETATM   21  C   UNK N   1      20.755  21.048   0.981  0.00  0.00     0.172 C 
HETATM   22  O   UNK N   1      20.946  20.316   0.022  0.00  0.00    -0.648 OA
BRANCH  21  23
HETATM   23  O   UNK N   1      20.444  22.342   0.774  0.00  0.00    -0.774 OA
HETATM   24  H   UNK N   1      20.195  22.757  -0.028  0.00  0.00     0.167 HD
ENDBRANCH  21  23
ENDBRANCH  18  21
ENDBRANCH  15  18
ENDBRANCH   1  15
TORSDOF 14
ENDMDL
MODEL 6
REMARK VINA RESULT:      -5.2      1.350      2.101
REMARK  14 active torsions:
REMARK  status: ('A' for Active; 'I' for Inactive)
REMARK    1  A    between atoms: C_2  and  O_1 
REMARK    2  A    between atoms: C_2  and  C_3 
REMARK    3  A    between atoms: C_2  and  C_9 
REMARK    4  A    between atoms: C_3  and  O_4 
REMARK    5  A    between atoms: O_4  and  P_5 
REMARK    6  A    between atoms: P_5  and  O_6 
REMARK    7  A    between atoms: P_5  and  O_7 
REMARK    8  A    between atoms: C_9  and  O_10 
REMARK    9  A    between atoms: C_9  and  C_11 
REMARK   10  A    between atoms: C_11  and  O_12 
REMARK   11  A    between atoms: C_11  and  C_13 
REMARK   12  A    between atoms: C_13  and  O_14 
REMARK   13  A    between atoms: C_13  and  C_15 
REMARK   14  A    between atoms: C_15  and  O_16 
ROOT
HETATM    1  C   UNK N   1      35.486  14.661  11.965  0.00  0.00     0.180 C 
ENDROOT
BRANCH   1   2
HETATM    2  C   UNK N   1      35.997  15.227  10.628  0.00  0.00     0.173 C 
BRANCH   2   3
HETATM    3  O   UNK N   1      37.014  16.156  10.844  0.00  0.00    -0.391 OA
HETATM    4  H   UNK N   1      37.823  15.984  11.351  0.00  0.00     0.210 HD
ENDBRANCH   2   3
BRANCH   2   5
HETATM    5  C   UNK N   1      34.882  15.943   9.886  0.00  0.00     0.214 C 
BRANCH   5   6
HETATM    6  O   UNK N   1      34.266  15.074   8.982  0.00  0.00    -0.294 OA
BRANCH   6   7
HETATM    7  P   UNK N   1      33.007  16.016   8.241  0.00  0.00     0.390 P 
HETATM    8  O   UNK N   1      34.210  16.997   8.260  0.00  0.00    -0.632 OA
BRANCH   7   9
HETATM    9  O   UNK N   1      32.376  17.401   9.074  0.00  0.00    -0.307 OA
HETATM   10  H   UNK N   1      32.735  17.834   9.864  0.00  0.00     0.222 HD
ENDBRANCH   7   9
BRANCH   7  11
HETATM   11  O   UNK N   1      32.525  15.604   9.859  0.00  0.00    -0.307 OA
HETATM   12  H   UNK N   1      31.959  16.033  10.519  0.00  0.00     0.222 HD
ENDBRANCH   7  11
ENDBRANCH   6   7
ENDBRANCH   5   6
ENDBRANCH   2   5
ENDBRANCH   1   2
BRANCH   1  13
HETATM   13  O   UNK N   1      34.157  14.254  11.817  0.00  0.00    -0.390 OA
HETATM   14  H   UNK N   1      33.450  14.434  12.458  0.00  0.00     0.210 HD
ENDBRANCH   1  13
BRANCH   1  15
HETATM   15  C   UNK N   1      36.329  13.491  12.519  0.00  0.00     0.188 C 
BRANCH  15  16
HETATM   16  O   UNK N   1      37.552  13.429  11.846  0.00  0.00    -0.390 OA
HETATM   17  H   UNK N   1      37.703  13.862  10.991  0.00  0.00     0.210 HD
ENDBRANCH  15  16
BRANCH  15  18
HETATM   18  C   UNK N   1      36.595  13.679  14.026  0.00  0.00     0.246 C 
BRANCH  18  19
HETATM   19  O   UNK N   1      36.889  15.017  14.302  0.00  0.00    -0.382 OA
HETATM   20  H   UNK N   1      37.749  15.334  14.616  0.00  0.00     0.210 HD
ENDBRANCH  18  19
BRANCH  18  21
HETATM   21  C   UNK N   1      35.446  13.221  14.890  0.00  0.00     0.172 C 
HETATM   22  O   UNK N   1      35.463  13.434  16.093  0.00  0.00    -0.648 OA
BRANCH  21  23
HETATM   23  O   UNK N   1      34.375  12.617  14.341  0.00  0.00    -0.774 OA
HETATM   24  H   UNK N   1      34.332  11.778  13.925  0.00  0.00     0.167 HD
ENDBRANCH  21  23
ENDBRANCH  18  21
ENDBRANCH  15  18
ENDBRANCH   1  15
TORSDOF 14
ENDMDL
MODEL 7
REMARK VINA RESULT:      -5.2     15.543     16.524
REMARK  14 active torsions:
REMARK  status: ('A' for Active; 'I' for Inactive)
REMARK    1  A    between atoms: C_2  and  O_1 
REMARK    2  A    between atoms: C_2  and  C_3 
REMARK    3  A    between atoms: C_2  and  C_9 
REMARK    4  A    between atoms: C_3  and  O_4 
REMARK    5  A    between atoms: O_4  and  P_5 
REMARK    6  A    between atoms: P_5  and  O_6 
REMARK    7  A    between atoms: P_5  and  O_7 
REMARK    8  A    between atoms: C_9  and  O_10 
REMARK    9  A    between atoms: C_9  and  C_11 
REMARK   10  A    between atoms: C_11  and  O_12 
REMARK   11  A    between atoms: C_11  and  C_13 
REMARK   12  A    between atoms: C_13  and  O_14 
REMARK   13  A    between atoms: C_13  and  C_15 
REMARK   14  A    between atoms: C_15  and  O_16 
ROOT
HETATM    1  C   UNK N   1      20.916  17.213   6.570  0.00  0.00     0.180 C 
ENDROOT
BRANCH   1   2
HETATM    2  C   UNK N   1      21.189  17.300   5.058  0.00  0.00     0.173 C 
BRANCH   2   3
HETATM    3  O   UNK N   1      22.041  16.273   4.651  0.00  0.00    -0.391 OA
HETATM    4  H   UNK N   1      22.981  16.210   4.881  0.00  0.00     0.210 HD
ENDBRANCH   2   3
BRANCH   2   5
HETATM    5  C   UNK N   1      21.869  18.613   4.709  0.00  0.00     0.214 C 
BRANCH   5   6
HETATM    6  O   UNK N   1      20.919  19.623   4.549  0.00  0.00    -0.294 OA
BRANCH   6   7
HETATM    7  P   UNK N   1      21.067  20.121   2.890  0.00  0.00     0.390 P 
HETATM    8  O   UNK N   1      22.537  20.131   3.389  0.00  0.00    -0.632 OA
BRANCH   7   9
HETATM    9  O   UNK N   1      21.597  21.733   2.527  0.00  0.00    -0.307 OA
HETATM   10  H   UNK N   1      22.043  22.045   1.724  0.00  0.00     0.222 HD
ENDBRANCH   7   9
BRANCH   7  11
HETATM   11  O   UNK N   1      20.119  21.297   3.749  0.00  0.00    -0.307 OA
HETATM   12  H   UNK N   1      20.206  21.723   4.616  0.00  0.00     0.222 HD
ENDBRANCH   7  11
ENDBRANCH   6   7
ENDBRANCH   5   6
ENDBRANCH   2   5
ENDBRANCH   1   2
BRANCH   1  13
HETATM   13  O   UNK N   1      20.816  18.504   7.097  0.00  0.00    -0.390 OA
HETATM   14  H   UNK N   1      21.531  18.968   7.561  0.00  0.00     0.210 HD
ENDBRANCH   1  13
BRANCH   1  15
HETATM   15  C   UNK N   1      19.654  16.402   6.937  0.00  0.00     0.188 C 
BRANCH  15  16
HETATM   16  O   UNK N   1      19.722  15.132   6.360  0.00  0.00    -0.390 OA
HETATM   17  H   UNK N   1      20.504  14.562   6.439  0.00  0.00     0.210 HD
ENDBRANCH  15  16
BRANCH  15  18
HETATM   18  C   UNK N   1      19.530  16.252   8.466  0.00  0.00     0.246 C 
BRANCH  18  19
HETATM   19  O   UNK N   1      20.732  16.609   9.086  0.00  0.00    -0.382 OA
HETATM   20  H   UNK N   1      21.533  16.063   9.080  0.00  0.00     0.210 HD
ENDBRANCH  18  19
BRANCH  18  21
HETATM   21  C   UNK N   1      18.397  17.059   9.051  0.00  0.00     0.172 C 
HETATM   22  O   UNK N   1      17.303  16.544   9.221  0.00  0.00    -0.648 OA
BRANCH  21  23
HETATM   23  O   UNK N   1      18.593  18.336   9.432  0.00  0.00    -0.774 OA
HETATM   24  H   UNK N   1      18.589  19.108   8.900  0.00  0.00     0.167 HD
ENDBRANCH  21  23
ENDBRANCH  18  21
ENDBRANCH  15  18
ENDBRANCH   1  15
TORSDOF 14
ENDMDL
MODEL 8
REMARK VINA RESULT:      -4.9      2.704      7.014
REMARK  14 active torsions:
REMARK  status: ('A' for Active; 'I' for Inactive)
REMARK    1  A    between atoms: C_2  and  O_1 
REMARK    2  A    between atoms: C_2  and  C_3 
REMARK    3  A    between atoms: C_2  and  C_9 
REMARK    4  A    between atoms: C_3  and  O_4 
REMARK    5  A    between atoms: O_4  and  P_5 
REMARK    6  A    between atoms: P_5  and  O_6 
REMARK    7  A    between atoms: P_5  and  O_7 
REMARK    8  A    between atoms: C_9  and  O_10 
REMARK    9  A    between atoms: C_9  and  C_11 
REMARK   10  A    between atoms: C_11  and  O_12 
REMARK   11  A    between atoms: C_11  and  C_13 
REMARK   12  A    between atoms: C_13  and  O_14 
REMARK   13  A    between atoms: C_13  and  C_15 
REMARK   14  A    between atoms: C_15  and  O_16 
ROOT
HETATM    1  C   UNK N   1      33.900  17.110   9.397  0.00  0.00     0.180 C 
ENDROOT
BRANCH   1   2
HETATM    2  C   UNK N   1      33.694  15.587   9.321  0.00  0.00     0.173 C 
BRANCH   2   3
HETATM    3  O   UNK N   1      32.515  15.217   9.968  0.00  0.00    -0.391 OA
HETATM    4  H   UNK N   1      31.755  14.796   9.535  0.00  0.00     0.210 HD
ENDBRANCH   2   3
BRANCH   2   5
HETATM    5  C   UNK N   1      34.834  14.855  10.010  0.00  0.00     0.214 C 
BRANCH   5   6
HETATM    6  O   UNK N   1      34.661  14.886  11.396  0.00  0.00    -0.294 OA
BRANCH   6   7
HETATM    7  P   UNK N   1      35.979  13.949  12.033  0.00  0.00     0.390 P 
HETATM    8  O   UNK N   1      34.906  13.843  13.149  0.00  0.00    -0.632 OA
BRANCH   7   9
HETATM    9  O   UNK N   1      36.819  14.509  13.444  0.00  0.00    -0.307 OA
HETATM   10  H   UNK N   1      36.468  14.612  14.343  0.00  0.00     0.222 HD
ENDBRANCH   7   9
BRANCH   7  11
HETATM   11  O   UNK N   1      36.500  15.596  11.836  0.00  0.00    -0.307 OA
HETATM   12  H   UNK N   1      36.840  16.105  11.084  0.00  0.00     0.222 HD
ENDBRANCH   7  11
ENDBRANCH   6   7
ENDBRANCH   5   6
ENDBRANCH   2   5
ENDBRANCH   1   2
BRANCH   1  13
HETATM   13  O   UNK N   1      35.220  17.381   9.770  0.00  0.00    -0.390 OA
HETATM   14  H   UNK N   1      35.517  17.527  10.682  0.00  0.00     0.210 HD
ENDBRANCH   1  13
BRANCH   1  15
HETATM   15  C   UNK N   1      33.567  17.858   8.087  0.00  0.00     0.188 C 
BRANCH  15  16
HETATM   16  O   UNK N   1      34.720  18.463   7.581  0.00  0.00    -0.390 OA
HETATM   17  H   UNK N   1      35.179  19.185   8.040  0.00  0.00     0.210 HD
ENDBRANCH  15  16
BRANCH  15  18
HETATM   18  C   UNK N   1      33.008  16.883   7.032  0.00  0.00     0.246 C 
BRANCH  18  19
HETATM   19  O   UNK N   1      31.655  17.145   6.799  0.00  0.00    -0.382 OA
HETATM   20  H   UNK N   1      31.207  17.968   7.047  0.00  0.00     0.210 HD
ENDBRANCH  18  19
BRANCH  18  21
HETATM   21  C   UNK N   1      33.766  16.924   5.728  0.00  0.00     0.172 C 
HETATM   22  O   UNK N   1      34.729  16.193   5.557  0.00  0.00    -0.648 OA
BRANCH  21  23
HETATM   23  O   UNK N   1      33.362  17.730   4.728  0.00  0.00    -0.774 OA
HETATM   24  H   UNK N   1      33.647  18.601   4.533  0.00  0.00     0.167 HD
ENDBRANCH  21  23
ENDBRANCH  18  21
ENDBRANCH  15  18
ENDBRANCH   1  15
TORSDOF 14
ENDMDL
MODEL 9
REMARK VINA RESULT:      -4.9     14.940     17.750
REMARK  14 active torsions:
REMARK  status: ('A' for Active; 'I' for Inactive)
REMARK    1  A    between atoms: C_2  and  O_1 
REMARK    2  A    between atoms: C_2  and  C_3 
REMARK    3  A    between atoms: C_2  and  C_9 
REMARK    4  A    between atoms: C_3  and  O_4 
REMARK    5  A    between atoms: O_4  and  P_5 
REMARK    6  A    between atoms: P_5  and  O_6 
REMARK    7  A    between atoms: P_5  and  O_7 
REMARK    8  A    between atoms: C_9  and  O_10 
REMARK    9  A    between atoms: C_9  and  C_11 
REMARK   10  A    between atoms: C_11  and  O_12 
REMARK   11  A    between atoms: C_11  and  C_13 
REMARK   12  A    between atoms: C_13  and  O_14 
REMARK   13  A    between atoms: C_13  and  C_15 
REMARK   14  A    between atoms: C_15  and  O_16 
ROOT
HETATM    1  C   UNK N   1      21.428  18.035   4.078  0.00  0.00     0.180 C 
ENDROOT
BRANCH   1   2
HETATM    2  C   UNK N   1      22.143  18.067   5.440  0.00  0.00     0.173 C 
BRANCH   2   3
HETATM    3  O   UNK N   1      23.036  17.002   5.552  0.00  0.00    -0.391 OA
HETATM    4  H   UNK N   1      23.089  16.256   4.933  0.00  0.00     0.210 HD
ENDBRANCH   2   3
BRANCH   2   5
HETATM    5  C   UNK N   1      21.142  17.935   6.576  0.00  0.00     0.214 C 
BRANCH   5   6
HETATM    6  O   UNK N   1      21.018  16.598   6.960  0.00  0.00    -0.294 OA
BRANCH   6   7
HETATM    7  P   UNK N   1      19.572  16.539   7.923  0.00  0.00     0.390 P 
HETATM    8  O   UNK N   1      20.685  16.766   8.981  0.00  0.00    -0.632 OA
BRANCH   7   9
HETATM    9  O   UNK N   1      19.339  15.225   9.031  0.00  0.00    -0.307 OA
HETATM   10  H   UNK N   1      18.815  15.222   9.847  0.00  0.00     0.222 HD
ENDBRANCH   7   9
BRANCH   7  11
HETATM   11  O   UNK N   1      19.784  15.008   7.127  0.00  0.00    -0.307 OA
HETATM   12  H   UNK N   1      19.199  14.252   6.965  0.00  0.00     0.222 HD
ENDBRANCH   7  11
ENDBRANCH   6   7
ENDBRANCH   5   6
ENDBRANCH   2   5
ENDBRANCH   1   2
BRANCH   1  13
HETATM   13  O   UNK N   1      20.180  17.422   4.223  0.00  0.00    -0.390 OA
HETATM   14  H   UNK N   1      19.329  17.853   4.046  0.00  0.00     0.210 HD
ENDBRANCH   1  13
BRANCH   1  15
HETATM   15  C   UNK N   1      21.251  19.425   3.426  0.00  0.00     0.188 C 
BRANCH  15  16
HETATM   16  O   UNK N   1      22.488  20.068   3.339  0.00  0.00    -0.390 OA
HETATM   17  H   UNK N   1      22.789  20.717   3.995  0.00  0.00     0.210 HD
ENDBRANCH  15  16
BRANCH  15  18
HETATM   18  C   UNK N   1      20.655  19.290   2.011  0.00  0.00     0.246 C 
BRANCH  18  19
HETATM   19  O   UNK N   1      19.324  18.869   2.085  0.00  0.00    -0.382 OA
HETATM   20  H   UNK N   1      18.746  18.748   1.316  0.00  0.00     0.210 HD
ENDBRANCH  18  19
BRANCH  18  21
HETATM   21  C   UNK N   1      20.742  20.564   1.209  0.00  0.00     0.172 C 
HETATM   22  O   UNK N   1      20.965  21.626   1.769  0.00  0.00    -0.648 OA
BRANCH  21  23
HETATM   23  O   UNK N   1      20.620  20.537  -0.132  0.00  0.00    -0.774 OA
HETATM   24  H   UNK N   1      19.946  20.915  -0.662  0.00  0.00     0.167 HD
ENDBRANCH  21  23
ENDBRANCH  18  21
ENDBRANCH  15  18
ENDBRANCH   1  15
TORSDOF 14
ENDMDL
