REMARK  7 active torsions:
REMARK  status: ('A' for Active; 'I' for Inactive)
REMARK    1  A    between atoms: C_3  and  O_4 
REMARK    2  A    between atoms: C_5  and  C_6 
REMARK    3  A    between atoms: C_8  and  C_9 
REMARK    4  A    between atoms: C_9  and  O_10 
REMARK    5  A    between atoms: O_10  and  P_11 
REMARK    6  A    between atoms: P_11  and  O_12 
REMARK    7  A    between atoms: P_11  and  O_13 
ROOT
HETATM    1  C   UNK N   1       3.803   1.868  -0.798  0.00  0.00     0.071 C 
HETATM    2  C   UNK N   1       2.496   1.229  -0.438  0.00  0.00     0.041 A 
HETATM    3  C   UNK N   1       2.436  -0.161  -0.257  0.00  0.00     0.101 A 
HETATM    4  C   UNK N   1       1.221  -0.770   0.091  0.00  0.00     0.046 A 
HETATM    5  C   UNK N   1       0.076   0.040   0.268  0.00  0.00    -0.002 A 
HETATM    6  C   UNK N   1       0.182   1.419   0.068  0.00  0.00     0.100 A 
HETATM    7  N   UNK N   1       1.365   1.988  -0.284  0.00  0.00    -0.362 N 
HETATM    8  C   UNK N   1       1.404   3.431  -0.474  0.00  0.00     0.155 C 
ENDROOT
BRANCH   5   9
HETATM    9  C   UNK N   1      -1.222  -0.524   0.753  0.00  0.00     0.221 C 
BRANCH   9  10
HETATM   10  O   UNK N   1      -2.217  -0.508  -0.228  0.00  0.00    -0.292 OA
BRANCH  10  11
HETATM   11  P   UNK N   1      -3.565  -1.286   0.555  0.00  0.00     0.391 P 
HETATM   12  O   UNK N   1      -3.090  -2.409  -0.408  0.00  0.00    -0.632 OA
BRANCH  11  13
HETATM   13  O   UNK N   1      -5.022  -1.690  -0.295  0.00  0.00    -0.307 OA
HETATM   14  H   UNK N   1      -5.625  -1.097  -0.770  0.00  0.00     0.222 HD
ENDBRANCH  11  13
BRANCH  11  15
HETATM   15  O   UNK N   1      -4.125   0.060  -0.386  0.00  0.00    -0.307 OA
HETATM   16  H   UNK N   1      -3.630   0.707  -0.913  0.00  0.00     0.222 HD
ENDBRANCH  11  15
ENDBRANCH  10  11
ENDBRANCH   9  10
ENDBRANCH   5   9
BRANCH   4  17
HETATM   17  C   UNK N   1       1.197  -2.245   0.262  0.00  0.00     0.273 C 
HETATM   18  O   UNK N   1       0.163  -2.864   0.457  0.00  0.00    -0.301 OA
ENDBRANCH   4  17
BRANCH   3  19
HETATM   19  O   UNK N   1       3.548  -0.908  -0.411  0.00  0.00    -0.358 OA
HETATM   20  H   UNK N   1       3.484  -1.837  -0.519  0.00  0.00     0.217 HD
ENDBRANCH   3  19
TORSDOF 7
