REMARK  21 active torsions:
REMARK  status: ('A' for Active; 'I' for Inactive)
REMARK    1  A    between atoms: C_8  and  C_5 
REMARK    2  A    between atoms: C_15  and  C_5 
REMARK    3  A    between atoms: C_18  and  C_8 
REMARK    4  A    between atoms: C_14  and  C_13 
REMARK    5  A    between atoms: C_21  and  C_13 
REMARK    6  A    between atoms: C_22  and  C_14 
REMARK    7  A    between atoms: N_28  and  C_15 
REMARK    8  A    between atoms: C_19  and  C_16 
REMARK    9  A    between atoms: N_29  and  C_16 
REMARK   10  A    between atoms: C_23  and  C_17 
REMARK   11  A    between atoms: N_29  and  C_17 
REMARK   12  A    between atoms: O_39  and  C_20 
REMARK   13  A    between atoms: C_24  and  C_21 
REMARK   14  A    between atoms: C_21  and  N_26 
REMARK   15  A    between atoms: O_31  and  C_22 
REMARK   16  A    between atoms: O_33  and  C_23 
REMARK       I    between atoms: N_28  and  C_24 
REMARK   17  A    between atoms: N_29  and  C_25 
REMARK   18  A    between atoms: C_25  and  O_35 
REMARK   19  A    between atoms: P_40  and  O_36 
REMARK   20  A    between atoms: P_40  and  O_37 
REMARK   21  A    between atoms: P_40  and  O_39 
ROOT
HETATM    1  C   UNK N   1       1.140   9.824   0.097  0.00  0.00     0.216 C 
HETATM    2  N   UNK N   1      -0.102   9.458  -0.026  0.00  0.00    -0.343 N 
ATOM      3  HN  UNK N   1      -0.683   9.899  -0.738  1.00  0.00     0.164 HD
ENDROOT
BRANCH   1   4
HETATM    4  N   UNK N   1       1.679  10.853  -0.727  0.00  0.00    -0.334 N 
BRANCH   4   5
HETATM    5  C   UNK N   1       3.104  11.126  -0.623  0.00  0.00     0.165 C 
BRANCH   5   6
HETATM    6  C   UNK N   1       3.339  12.486  -0.062  0.00  0.00    -0.040 A 
HETATM    7  C   UNK N   1       4.282  13.339  -0.647  0.00  0.00     0.011 A 
HETATM    8  C   UNK N   1       4.394  14.662  -0.198  0.00  0.00     0.038 A 
HETATM    9  C   UNK N   1       3.549  15.122   0.827  0.00  0.00     0.081 A 
HETATM   10  C   UNK N   1       2.652  14.248   1.436  0.00  0.00     0.038 A 
HETATM   11  C   UNK N   1       2.555  12.934   1.004  0.00  0.00     0.011 A 
BRANCH   9  12
HETATM   12  O   UNK N   1       3.483  16.428   1.137  0.00  0.00    -0.255 OA
BRANCH  12  13
HETATM   13  P   UNK N   1       2.258  17.357   0.358  0.00  0.00     0.396 P 
HETATM   14  O   UNK N   1       1.066  16.499  -0.161  0.00  0.00    -0.631 OA
BRANCH  13  15
HETATM   15  O   UNK N   1       1.808  18.952   0.886  0.00  0.00    -0.307 OA
HETATM   16  H   UNK N   1       2.453  19.614   1.181  0.00  0.00     0.222 HD
ENDBRANCH  13  15
BRANCH  13  17
HETATM   17  O   UNK N   1       3.049  17.703  -1.113  0.00  0.00    -0.307 OA
HETATM   18  H   UNK N   1       3.445  17.412  -1.950  0.00  0.00     0.222 HD
ENDBRANCH  13  17
ENDBRANCH  12  13
ENDBRANCH   9  12
ENDBRANCH   5   6
ENDBRANCH   4   5
BRANCH   4  19
HETATM   19  C   UNK N   1       0.848  11.635  -1.623  0.00  0.00     0.236 C 
BRANCH  19  20
HETATM   20  C   UNK N   1      -0.095  12.538  -0.868  0.00  0.00     0.158 C 
HETATM   21  O   UNK N   1      -0.958  12.070  -0.143  0.00  0.00    -0.649 OA
BRANCH  20  22
HETATM   22  O   UNK N   1       0.001  13.872  -1.007  0.00  0.00    -0.775 OA
HETATM   23  H   UNK N   1       0.839  14.279  -1.103  0.00  0.00     0.167 HD
ENDBRANCH  20  22
ENDBRANCH  19  20
ENDBRANCH   4  19
ENDBRANCH   1   4
BRANCH   1  24
HETATM   24  O   UNK N   1       1.934   9.239   1.017  0.00  0.00    -0.333 OA
HETATM   25  H   UNK N   1       1.857   8.558   1.657  0.00  0.00     0.220 HD
ENDBRANCH   1  24
BRANCH   2  26
HETATM   26  C   UNK N   1      -0.683   8.433   0.829  0.00  0.00     0.177 C 
BRANCH  26  27
HETATM   27  C   UNK N   1       0.132   7.128   0.761  0.00  0.00     0.045 C 
BRANCH  27  28
HETATM   28  C   UNK N   1       0.557   6.726  -0.646  0.00  0.00     0.112 C 
BRANCH  28  29
HETATM   29  C   UNK N   1       1.555   5.622  -0.544  0.00  0.00     0.139 C 
HETATM   30  O   UNK N   1       2.711   5.812  -0.885  0.00  0.00    -0.650 OA
BRANCH  29  31
HETATM   31  O   UNK N   1       1.187   4.421  -0.059  0.00  0.00    -0.776 OA
HETATM   32  H   UNK N   1       0.335   4.226   0.278  0.00  0.00     0.167 HD
ENDBRANCH  29  31
ENDBRANCH  28  29
ENDBRANCH  27  28
ENDBRANCH  26  27
BRANCH  26  33
HETATM   33  C   UNK N   1      -2.214   8.362   0.683  0.00  0.00     0.242 C 
HETATM   34  N   UNK N   1      -2.924   7.202   0.469  0.00  0.00    -0.355 N 
HETATM   35  C   UNK N   1      -2.281   5.935   0.257  0.00  0.00     0.152 C 
HETATM   36  O   UNK N   1      -2.831   9.403   0.864  0.00  0.00    -0.271 OA
BRANCH  34  37
HETATM   37  C   UNK N   1      -4.359   7.185   0.701  0.00  0.00     0.125 C 
BRANCH  37  38
HETATM   38  C   UNK N   1      -5.204   7.365  -0.553  0.00  0.00     0.020 C 
BRANCH  38  39
HETATM   39  C   UNK N   1      -5.239   6.155  -1.493  0.00  0.00     0.006 C 
BRANCH  39  40
HETATM   40  C   UNK N   1      -5.653   4.804  -0.890  0.00  0.00    -0.014 C 
HETATM   41  C   UNK N   1      -4.521   4.134  -0.120  0.00  0.00     0.004 C 
HETATM   42  C   UNK N   1      -4.853   2.699   0.301  0.00  0.00     0.000 C 
HETATM   43  C   UNK N   1      -6.337   2.355   0.162  0.00  0.00     0.000 C 
HETATM   44  C   UNK N   1      -7.212   3.504   0.669  0.00  0.00     0.000 C 
HETATM   45  C   UNK N   1      -6.949   4.831  -0.070  0.00  0.00     0.004 C 
ENDBRANCH  39  40
ENDBRANCH  38  39
ENDBRANCH  37  38
ENDBRANCH  34  37
ENDBRANCH  26  33
ENDBRANCH   2  26
TORSDOF 21
