MODEL 1
REMARK VINA RESULT:      -7.1      0.000      0.000
REMARK  2 active torsions:
REMARK  status: ('A' for Active; 'I' for Inactive)
REMARK    1  A    between atoms: C_5  and  O_22 
REMARK    2  A    between atoms: C_18  and  O_20 
ROOT
HETATM    1  C   UNK N   1      34.121  13.056  15.951  0.00  0.00     0.016 C 
HETATM    2  C   UNK N   1      35.291  12.479  16.740  0.00  0.00    -0.036 C 
HETATM    3  C   UNK N   1      35.662  13.472  17.866  0.00  0.00     0.012 C 
HETATM    4  C   UNK N   1      35.117  13.058  19.235  0.00  0.00     0.032 C 
HETATM    5  C   UNK N   1      35.669  11.683  19.646  0.00  0.00     0.118 C 
HETATM    6  C   UNK N   1      35.752  10.685  18.479  0.00  0.00     0.037 C 
HETATM    7  C   UNK N   1      34.838  11.121  17.335  0.00  0.00    -0.004 C 
HETATM    8  C   UNK N   1      34.680  10.038  16.269  0.00  0.00     0.006 C 
HETATM    9  C   UNK N   1      35.994   9.815  15.531  0.00  0.00     0.006 C 
HETATM   10  C   UNK N   1      36.486  11.096  14.858  0.00  0.00    -0.005 C 
HETATM   11  C   UNK N   1      36.554  12.285  15.851  0.00  0.00    -0.002 C 
HETATM   12  C   UNK N   1      37.042  13.582  15.153  0.00  0.00     0.007 C 
HETATM   13  C   UNK N   1      36.310  13.881  13.826  0.00  0.00     0.013 C 
HETATM   14  C   UNK N   1      36.360  12.656  12.906  0.00  0.00    -0.009 C 
HETATM   15  C   UNK N   1      35.696  11.486  13.609  0.00  0.00     0.001 C 
HETATM   16  C   UNK N   1      35.532  10.435  12.517  0.00  0.00     0.009 C 
HETATM   17  C   UNK N   1      35.417  11.249  11.215  0.00  0.00     0.038 C 
HETATM   18  C   UNK N   1      35.513  12.720  11.631  0.00  0.00     0.062 C 
HETATM   19  C   UNK N   1      36.111  13.584  10.530  0.00  0.00     0.046 C 
HETATM   20  C   UNK N   1      37.831  12.339  12.560  0.00  0.00     0.018 C 
ENDROOT
BRANCH  18  21
HETATM   21  O   UNK N   1      34.224  13.186  11.918  0.00  0.00    -0.389 OA
HETATM   22  H   UNK N   1      33.442  13.759  11.894  0.00  0.00     0.210 HD
ENDBRANCH  18  21
BRANCH   5  23
HETATM   23  O   UNK N   1      34.869  11.151  20.657  0.00  0.00    -0.396 OA
HETATM   24  H   UNK N   1      34.246  11.657  21.202  0.00  0.00     0.210 HD
ENDBRANCH   5  23
TORSDOF 2
ENDMDL
MODEL 2
REMARK VINA RESULT:      -6.9      5.003     10.018
REMARK  2 active torsions:
REMARK  status: ('A' for Active; 'I' for Inactive)
REMARK    1  A    between atoms: C_5  and  O_22 
REMARK    2  A    between atoms: C_18  and  O_20 
ROOT
HETATM    1  C   UNK N   1      31.921  15.108   8.245  0.00  0.00     0.016 C 
HETATM    2  C   UNK N   1      32.690  15.587   7.019  0.00  0.00    -0.036 C 
HETATM    3  C   UNK N   1      32.210  14.780   5.790  0.00  0.00     0.012 C 
HETATM    4  C   UNK N   1      31.220  15.552   4.915  0.00  0.00     0.032 C 
HETATM    5  C   UNK N   1      31.859  16.845   4.383  0.00  0.00     0.118 C 
HETATM    6  C   UNK N   1      32.741  17.561   5.419  0.00  0.00     0.037 C 
HETATM    7  C   UNK N   1      32.391  17.097   6.832  0.00  0.00    -0.004 C 
HETATM    8  C   UNK N   1      33.047  17.962   7.908  0.00  0.00     0.006 C 
HETATM    9  C   UNK N   1      34.559  17.775   7.901  0.00  0.00     0.006 C 
HETATM   10  C   UNK N   1      34.947  16.316   8.140  0.00  0.00    -0.005 C 
HETATM   11  C   UNK N   1      34.221  15.353   7.164  0.00  0.00    -0.002 C 
HETATM   12  C   UNK N   1      34.614  13.875   7.426  0.00  0.00     0.007 C 
HETATM   13  C   UNK N   1      34.540  13.473   8.916  0.00  0.00     0.013 C 
HETATM   14  C   UNK N   1      35.340  14.461   9.772  0.00  0.00    -0.009 C 
HETATM   15  C   UNK N   1      34.763  15.853   9.585  0.00  0.00     0.001 C 
HETATM   16  C   UNK N   1      35.418  16.681  10.684  0.00  0.00     0.009 C 
HETATM   17  C   UNK N   1      35.714  15.667  11.804  0.00  0.00     0.038 C 
HETATM   18  C   UNK N   1      35.207  14.316  11.291  0.00  0.00     0.062 C 
HETATM   19  C   UNK N   1      35.997  13.155  11.877  0.00  0.00     0.046 C 
HETATM   20  C   UNK N   1      36.826  14.410   9.354  0.00  0.00     0.018 C 
ENDROOT
BRANCH  18  21
HETATM   21  O   UNK N   1      33.863  14.177  11.658  0.00  0.00    -0.389 OA
HETATM   22  H   UNK N   1      32.992  13.764  11.766  0.00  0.00     0.210 HD
ENDBRANCH  18  21
BRANCH   5  23
HETATM   23  O   UNK N   1      30.853  17.710   3.952  0.00  0.00    -0.396 OA
HETATM   24  H   UNK N   1      30.057  17.444   3.464  0.00  0.00     0.210 HD
ENDBRANCH   5  23
TORSDOF 2
ENDMDL
MODEL 3
REMARK VINA RESULT:      -6.9     23.902     26.286
REMARK  2 active torsions:
REMARK  status: ('A' for Active; 'I' for Inactive)
REMARK    1  A    between atoms: C_5  and  O_22 
REMARK    2  A    between atoms: C_18  and  O_20 
ROOT
HETATM    1  C   UNK N   1      27.871  23.938  -3.984  0.00  0.00     0.016 C 
HETATM    2  C   UNK N   1      28.449  23.800  -5.388  0.00  0.00    -0.036 C 
HETATM    3  C   UNK N   1      29.908  23.298  -5.273  0.00  0.00     0.012 C 
HETATM    4  C   UNK N   1      30.050  21.800  -5.552  0.00  0.00     0.032 C 
HETATM    5  C   UNK N   1      29.569  21.465  -6.974  0.00  0.00     0.118 C 
HETATM    6  C   UNK N   1      28.311  22.244  -7.392  0.00  0.00     0.037 C 
HETATM    7  C   UNK N   1      27.579  22.777  -6.162  0.00  0.00    -0.004 C 
HETATM    8  C   UNK N   1      26.193  23.326  -6.501  0.00  0.00     0.006 C 
HETATM    9  C   UNK N   1      26.306  24.586  -7.349  0.00  0.00     0.006 C 
HETATM   10  C   UNK N   1      27.103  25.677  -6.633  0.00  0.00    -0.005 C 
HETATM   11  C   UNK N   1      28.481  25.162  -6.141  0.00  0.00    -0.002 C 
HETATM   12  C   UNK N   1      29.274  26.274  -5.405  0.00  0.00     0.007 C 
HETATM   13  C   UNK N   1      28.440  27.025  -4.343  0.00  0.00     0.013 C 
HETATM   14  C   UNK N   1      27.133  27.536  -4.960  0.00  0.00    -0.009 C 
HETATM   15  C   UNK N   1      26.345  26.352  -5.491  0.00  0.00     0.001 C 
HETATM   16  C   UNK N   1      24.966  26.926  -5.796  0.00  0.00     0.009 C 
HETATM   17  C   UNK N   1      24.812  28.100  -4.813  0.00  0.00     0.038 C 
HETATM   18  C   UNK N   1      26.105  28.132  -3.992  0.00  0.00     0.062 C 
HETATM   19  C   UNK N   1      26.441  29.538  -3.516  0.00  0.00     0.046 C 
HETATM   20  C   UNK N   1      27.460  28.542  -6.085  0.00  0.00     0.018 C 
ENDROOT
BRANCH  18  21
HETATM   21  O   UNK N   1      25.942  27.305  -2.874  0.00  0.00    -0.389 OA
HETATM   22  H   UNK N   1      25.755  27.047  -1.958  0.00  0.00     0.210 HD
ENDBRANCH  18  21
BRANCH   5  23
HETATM   23  O   UNK N   1      29.320  20.096  -7.062  0.00  0.00    -0.396 OA
HETATM   24  H   UNK N   1      29.971  19.396  -6.893  0.00  0.00     0.210 HD
ENDBRANCH   5  23
TORSDOF 2
ENDMDL
MODEL 4
REMARK VINA RESULT:      -6.6      8.133     11.961
REMARK  2 active torsions:
REMARK  status: ('A' for Active; 'I' for Inactive)
REMARK    1  A    between atoms: C_5  and  O_22 
REMARK    2  A    between atoms: C_18  and  O_20 
ROOT
HETATM    1  C   UNK N   1      29.103  15.692   5.775  0.00  0.00     0.016 C 
HETATM    2  C   UNK N   1      29.241  17.205   5.895  0.00  0.00    -0.036 C 
HETATM    3  C   UNK N   1      28.804  17.847   4.557  0.00  0.00     0.012 C 
HETATM    4  C   UNK N   1      27.386  18.422   4.602  0.00  0.00     0.032 C 
HETATM    5  C   UNK N   1      27.277  19.511   5.682  0.00  0.00     0.118 C 
HETATM    6  C   UNK N   1      28.048  19.176   6.969  0.00  0.00     0.037 C 
HETATM    7  C   UNK N   1      28.322  17.675   7.052  0.00  0.00    -0.004 C 
HETATM    8  C   UNK N   1      28.847  17.253   8.424  0.00  0.00     0.006 C 
HETATM    9  C   UNK N   1      30.239  17.823   8.665  0.00  0.00     0.006 C 
HETATM   10  C   UNK N   1      31.230  17.359   7.598  0.00  0.00    -0.005 C 
HETATM   11  C   UNK N   1      30.711  17.637   6.163  0.00  0.00    -0.002 C 
HETATM   12  C   UNK N   1      31.720  17.150   5.089  0.00  0.00     0.007 C 
HETATM   13  C   UNK N   1      32.232  15.712   5.332  0.00  0.00     0.013 C 
HETATM   14  C   UNK N   1      32.772  15.576   6.760  0.00  0.00    -0.009 C 
HETATM   15  C   UNK N   1      31.658  15.898   7.740  0.00  0.00     0.001 C 
HETATM   16  C   UNK N   1      32.202  15.446   9.089  0.00  0.00     0.009 C 
HETATM   17  C   UNK N   1      33.179  14.307   8.747  0.00  0.00     0.038 C 
HETATM   18  C   UNK N   1      33.137  14.162   7.223  0.00  0.00     0.062 C 
HETATM   19  C   UNK N   1      34.455  13.645   6.665  0.00  0.00     0.046 C 
HETATM   20  C   UNK N   1      33.973  16.530   6.944  0.00  0.00     0.018 C 
ENDROOT
BRANCH  18  21
HETATM   21  O   UNK N   1      32.121  13.256   6.891  0.00  0.00    -0.389 OA
HETATM   22  H   UNK N   1      31.403  12.848   6.384  0.00  0.00     0.210 HD
ENDBRANCH  18  21
BRANCH   5  23
HETATM   23  O   UNK N   1      25.932  19.721   5.987  0.00  0.00    -0.396 OA
HETATM   24  H   UNK N   1      25.183  19.296   5.538  0.00  0.00     0.210 HD
ENDBRANCH   5  23
TORSDOF 2
ENDMDL
MODEL 5
REMARK VINA RESULT:      -6.6     21.412     24.858
REMARK  2 active torsions:
REMARK  status: ('A' for Active; 'I' for Inactive)
REMARK    1  A    between atoms: C_5  and  O_22 
REMARK    2  A    between atoms: C_18  and  O_20 
ROOT
HETATM    1  C   UNK N   1      28.782  22.990  -5.765  0.00  0.00     0.016 C 
HETATM    2  C   UNK N   1      29.553  23.173  -4.464  0.00  0.00    -0.036 C 
HETATM    3  C   UNK N   1      29.460  21.863  -3.646  0.00  0.00     0.012 C 
HETATM    4  C   UNK N   1      30.721  21.001  -3.749  0.00  0.00     0.032 C 
HETATM    5  C   UNK N   1      31.947  21.770  -3.230  0.00  0.00     0.118 C 
HETATM    6  C   UNK N   1      31.954  23.253  -3.634  0.00  0.00     0.037 C 
HETATM    7  C   UNK N   1      31.028  23.488  -4.826  0.00  0.00    -0.004 C 
HETATM    8  C   UNK N   1      31.198  24.880  -5.431  0.00  0.00     0.006 C 
HETATM    9  C   UNK N   1      30.712  25.951  -4.463  0.00  0.00     0.006 C 
HETATM   10  C   UNK N   1      29.241  25.752  -4.096  0.00  0.00    -0.005 C 
HETATM   11  C   UNK N   1      28.957  24.314  -3.589  0.00  0.00    -0.002 C 
HETATM   12  C   UNK N   1      27.459  24.122  -3.232  0.00  0.00     0.007 C 
HETATM   13  C   UNK N   1      26.495  24.630  -4.328  0.00  0.00     0.013 C 
HETATM   14  C   UNK N   1      26.836  26.076  -4.704  0.00  0.00    -0.009 C 
HETATM   15  C   UNK N   1      28.266  26.129  -5.211  0.00  0.00     0.001 C 
HETATM   16  C   UNK N   1      28.395  27.517  -5.827  0.00  0.00     0.009 C 
HETATM   17  C   UNK N   1      26.967  27.869  -6.284  0.00  0.00     0.038 C 
HETATM   18  C   UNK N   1      26.100  26.663  -5.913  0.00  0.00     0.062 C 
HETATM   19  C   UNK N   1      24.660  27.066  -5.629  0.00  0.00     0.046 C 
HETATM   20  C   UNK N   1      26.647  26.982  -3.467  0.00  0.00     0.018 C 
ENDROOT
BRANCH  18  21
HETATM   21  O   UNK N   1      26.112  25.760  -6.983  0.00  0.00    -0.389 OA
HETATM   22  H   UNK N   1      26.294  24.947  -7.480  0.00  0.00     0.210 HD
ENDBRANCH  18  21
BRANCH   5  23
HETATM   23  O   UNK N   1      33.107  21.154  -3.701  0.00  0.00    -0.396 OA
HETATM   24  H   UNK N   1      33.451  20.300  -3.394  0.00  0.00     0.210 HD
ENDBRANCH   5  23
TORSDOF 2
ENDMDL
MODEL 6
REMARK VINA RESULT:      -6.5      1.705      3.283
REMARK  2 active torsions:
REMARK  status: ('A' for Active; 'I' for Inactive)
REMARK    1  A    between atoms: C_5  and  O_22 
REMARK    2  A    between atoms: C_18  and  O_20 
ROOT
HETATM    1  C   UNK N   1      37.016  10.574  15.363  0.00  0.00     0.016 C 
HETATM    2  C   UNK N   1      35.793  11.393  15.757  0.00  0.00    -0.036 C 
HETATM    3  C   UNK N   1      35.079  10.680  16.930  0.00  0.00     0.012 C 
HETATM    4  C   UNK N   1      35.385  11.313  18.290  0.00  0.00     0.032 C 
HETATM    5  C   UNK N   1      34.937  12.784  18.317  0.00  0.00     0.118 C 
HETATM    6  C   UNK N   1      35.217  13.532  17.003  0.00  0.00     0.037 C 
HETATM    7  C   UNK N   1      36.282  12.799  16.188  0.00  0.00    -0.004 C 
HETATM    8  C   UNK N   1      36.786  13.631  15.009  0.00  0.00     0.006 C 
HETATM    9  C   UNK N   1      35.688  13.811  13.969  0.00  0.00     0.006 C 
HETATM   10  C   UNK N   1      35.185  12.467  13.442  0.00  0.00    -0.005 C 
HETATM   11  C   UNK N   1      34.770  11.511  14.590  0.00  0.00    -0.002 C 
HETATM   12  C   UNK N   1      34.274  10.146  14.042  0.00  0.00     0.007 C 
HETATM   13  C   UNK N   1      35.216   9.527  12.985  0.00  0.00     0.013 C 
HETATM   14  C   UNK N   1      35.507  10.544  11.875  0.00  0.00    -0.009 C 
HETATM   15  C   UNK N   1      36.157  11.770  12.489  0.00  0.00     0.001 C 
HETATM   16  C   UNK N   1      36.668  12.563  11.292  0.00  0.00     0.009 C 
HETATM   17  C   UNK N   1      36.941  11.499  10.214  0.00  0.00     0.038 C 
HETATM   18  C   UNK N   1      36.579  10.154  10.852  0.00  0.00     0.062 C 
HETATM   19  C   UNK N   1      36.113   9.141   9.817  0.00  0.00     0.046 C 
HETATM   20  C   UNK N   1      34.187  10.907  11.159  0.00  0.00     0.018 C 
ENDROOT
BRANCH  18  21
HETATM   21  O   UNK N   1      37.715   9.648  11.497  0.00  0.00    -0.389 OA
HETATM   22  H   UNK N   1      38.257   9.069  12.054  0.00  0.00     0.210 HD
ENDBRANCH  18  21
BRANCH   5  23
HETATM   23  O   UNK N   1      35.576  13.438  19.370  0.00  0.00    -0.396 OA
HETATM   24  H   UNK N   1      35.304  13.400  20.301  0.00  0.00     0.210 HD
ENDBRANCH   5  23
TORSDOF 2
ENDMDL
MODEL 7
REMARK VINA RESULT:      -6.5     20.712     23.372
REMARK  2 active torsions:
REMARK  status: ('A' for Active; 'I' for Inactive)
REMARK    1  A    between atoms: C_5  and  O_22 
REMARK    2  A    between atoms: C_18  and  O_20 
ROOT
HETATM    1  C   UNK N   1      30.347  23.256  -2.542  0.00  0.00     0.016 C 
HETATM    2  C   UNK N   1      29.777  23.772  -3.857  0.00  0.00    -0.036 C 
HETATM    3  C   UNK N   1      28.238  23.612  -3.824  0.00  0.00     0.012 C 
HETATM    4  C   UNK N   1      27.506  24.918  -3.511  0.00  0.00     0.032 C 
HETATM    5  C   UNK N   1      27.824  25.987  -4.569  0.00  0.00     0.118 C 
HETATM    6  C   UNK N   1      29.294  25.979  -5.021  0.00  0.00     0.037 C 
HETATM    7  C   UNK N   1      30.167  25.267  -3.990  0.00  0.00    -0.004 C 
HETATM    8  C   UNK N   1      31.659  25.461  -4.256  0.00  0.00     0.006 C 
HETATM    9  C   UNK N   1      32.074  24.750  -5.538  0.00  0.00     0.006 C 
HETATM   10  C   UNK N   1      31.779  23.251  -5.471  0.00  0.00    -0.005 C 
HETATM   11  C   UNK N   1      30.306  22.966  -5.078  0.00  0.00    -0.002 C 
HETATM   12  C   UNK N   1      30.023  21.442  -5.001  0.00  0.00     0.007 C 
HETATM   13  C   UNK N   1      31.079  20.660  -4.187  0.00  0.00     0.013 C 
HETATM   14  C   UNK N   1      32.486  20.978  -4.704  0.00  0.00    -0.009 C 
HETATM   15  C   UNK N   1      32.734  22.469  -4.569  0.00  0.00     0.001 C 
HETATM   16  C   UNK N   1      34.230  22.625  -4.817  0.00  0.00     0.009 C 
HETATM   17  C   UNK N   1      34.836  21.283  -4.366  0.00  0.00     0.038 C 
HETATM   18  C   UNK N   1      33.658  20.435  -3.879  0.00  0.00     0.062 C 
HETATM   19  C   UNK N   1      33.914  18.946  -4.067  0.00  0.00     0.046 C 
HETATM   20  C   UNK N   1      32.605  20.520  -6.174  0.00  0.00     0.018 C 
ENDROOT
BRANCH  18  21
HETATM   21  O   UNK N   1      33.461  20.689  -2.515  0.00  0.00    -0.389 OA
HETATM   22  H   UNK N   1      33.585  20.626  -1.556  0.00  0.00     0.210 HD
ENDBRANCH  18  21
BRANCH   5  23
HETATM   23  O   UNK N   1      27.499  27.245  -4.063  0.00  0.00    -0.396 OA
HETATM   24  H   UNK N   1      26.882  27.412  -3.333  0.00  0.00     0.210 HD
ENDBRANCH   5  23
TORSDOF 2
ENDMDL
MODEL 8
REMARK VINA RESULT:      -6.5     22.370     24.959
REMARK  2 active torsions:
REMARK  status: ('A' for Active; 'I' for Inactive)
REMARK    1  A    between atoms: C_5  and  O_22 
REMARK    2  A    between atoms: C_18  and  O_20 
ROOT
HETATM    1  C   UNK N   1      30.793  25.694  -3.339  0.00  0.00     0.016 C 
HETATM    2  C   UNK N   1      30.419  24.520  -4.236  0.00  0.00    -0.036 C 
HETATM    3  C   UNK N   1      31.670  24.096  -5.042  0.00  0.00     0.012 C 
HETATM    4  C   UNK N   1      32.361  22.857  -4.468  0.00  0.00     0.032 C 
HETATM    5  C   UNK N   1      31.402  21.655  -4.460  0.00  0.00     0.118 C 
HETATM    6  C   UNK N   1      29.962  22.026  -4.067  0.00  0.00     0.037 C 
HETATM    7  C   UNK N   1      29.937  23.361  -3.325  0.00  0.00    -0.004 C 
HETATM    8  C   UNK N   1      28.579  23.646  -2.684  0.00  0.00     0.006 C 
HETATM    9  C   UNK N   1      27.518  23.879  -3.752  0.00  0.00     0.006 C 
HETATM   10  C   UNK N   1      27.885  25.050  -4.664  0.00  0.00    -0.005 C 
HETATM   11  C   UNK N   1      29.309  24.900  -5.259  0.00  0.00    -0.002 C 
HETATM   12  C   UNK N   1      29.674  26.100  -6.172  0.00  0.00     0.007 C 
HETATM   13  C   UNK N   1      29.376  27.474  -5.531  0.00  0.00     0.013 C 
HETATM   14  C   UNK N   1      27.927  27.524  -5.035  0.00  0.00    -0.009 C 
HETATM   15  C   UNK N   1      27.720  26.423  -4.011  0.00  0.00     0.001 C 
HETATM   16  C   UNK N   1      26.373  26.748  -3.376  0.00  0.00     0.009 C 
HETATM   17  C   UNK N   1      26.247  28.277  -3.505  0.00  0.00     0.038 C 
HETATM   18  C   UNK N   1      27.529  28.745  -4.199  0.00  0.00     0.062 C 
HETATM   19  C   UNK N   1      27.303  30.010  -5.016  0.00  0.00     0.046 C 
HETATM   20  C   UNK N   1      26.971  27.359  -6.236  0.00  0.00     0.018 C 
ENDROOT
BRANCH  18  21
HETATM   21  O   UNK N   1      28.495  29.009  -3.220  0.00  0.00    -0.389 OA
HETATM   22  H   UNK N   1      28.897  29.392  -2.425  0.00  0.00     0.210 HD
ENDBRANCH  18  21
BRANCH   5  23
HETATM   23  O   UNK N   1      31.889  20.686  -3.584  0.00  0.00    -0.396 OA
HETATM   24  H   UNK N   1      31.760  19.729  -3.678  0.00  0.00     0.210 HD
ENDBRANCH   5  23
TORSDOF 2
ENDMDL
MODEL 9
REMARK VINA RESULT:      -6.5      6.208      9.127
REMARK  2 active torsions:
REMARK  status: ('A' for Active; 'I' for Inactive)
REMARK    1  A    between atoms: C_5  and  O_22 
REMARK    2  A    between atoms: C_18  and  O_20 
ROOT
HETATM    1  C   UNK N   1      32.908  15.356   9.284  0.00  0.00     0.016 C 
HETATM    2  C   UNK N   1      34.384  15.573   8.976  0.00  0.00    -0.036 C 
HETATM    3  C   UNK N   1      34.995  16.455  10.091  0.00  0.00     0.012 C 
HETATM    4  C   UNK N   1      35.789  15.652  11.123  0.00  0.00     0.032 C 
HETATM    5  C   UNK N   1      36.953  14.904  10.451  0.00  0.00     0.118 C 
HETATM    6  C   UNK N   1      36.587  14.310   9.081  0.00  0.00     0.037 C 
HETATM    7  C   UNK N   1      35.071  14.184   8.940  0.00  0.00    -0.004 C 
HETATM    8  C   UNK N   1      34.666  13.362   7.718  0.00  0.00     0.006 C 
HETATM    9  C   UNK N   1      35.023  14.098   6.433  0.00  0.00     0.006 C 
HETATM   10  C   UNK N   1      34.337  15.462   6.355  0.00  0.00    -0.005 C 
HETATM   11  C   UNK N   1      34.595  16.315   7.624  0.00  0.00    -0.002 C 
HETATM   12  C   UNK N   1      33.883  17.691   7.539  0.00  0.00     0.007 C 
HETATM   13  C   UNK N   1      32.402  17.592   7.109  0.00  0.00     0.013 C 
HETATM   14  C   UNK N   1      32.280  16.779   5.816  0.00  0.00    -0.009 C 
HETATM   15  C   UNK N   1      32.840  15.388   6.055  0.00  0.00     0.001 C 
HETATM   16  C   UNK N   1      32.400  14.591   4.833  0.00  0.00     0.009 C 
HETATM   17  C   UNK N   1      31.099  15.276   4.375  0.00  0.00     0.038 C 
HETATM   18  C   UNK N   1      30.860  16.422   5.362  0.00  0.00     0.062 C 
HETATM   19  C   UNK N   1      30.105  17.576   4.718  0.00  0.00     0.046 C 
HETATM   20  C   UNK N   1      33.041  17.502   4.684  0.00  0.00     0.018 C 
ENDROOT
BRANCH  18  21
HETATM   21  O   UNK N   1      30.106  15.934   6.436  0.00  0.00    -0.389 OA
HETATM   22  H   UNK N   1      29.877  15.699   7.349  0.00  0.00     0.210 HD
ENDBRANCH  18  21
BRANCH   5  23
HETATM   23  O   UNK N   1      37.393  13.887  11.297  0.00  0.00    -0.396 OA
HETATM   24  H   UNK N   1      37.970  14.009  12.068  0.00  0.00     0.210 HD
ENDBRANCH   5  23
TORSDOF 2
ENDMDL
