MODEL 1
REMARK VINA RESULT:      -8.8      0.000      0.000
REMARK  21 active torsions:
REMARK  status: ('A' for Active; 'I' for Inactive)
REMARK    1  A    between atoms: C_7  and  C_1 
REMARK    2  A    between atoms: O_47  and  C_1 
REMARK    3  A    between atoms: C_8  and  C_2 
REMARK    4  A    between atoms: O_48  and  C_2 
REMARK    5  A    between atoms: C_11  and  O_37 
REMARK    6  A    between atoms: C_12  and  O_38 
REMARK    7  A    between atoms: C_13  and  O_39 
REMARK    8  A    between atoms: C_14  and  O_40 
REMARK    9  A    between atoms: N_21  and  C_15 
REMARK   10  A    between atoms: N_22  and  C_16 
REMARK   11  A    between atoms: C_19  and  N_35 
REMARK   12  A    between atoms: C_20  and  N_36 
REMARK   13  A    between atoms: P_53  and  O_41 
REMARK   14  A    between atoms: P_54  and  O_43 
REMARK   15  A    between atoms: P_55  and  O_45 
REMARK   16  A    between atoms: P_53  and  O_47 
REMARK   17  A    between atoms: P_54  and  O_48 
REMARK   18  A    between atoms: P_53  and  O_51 
REMARK   19  A    between atoms: P_55  and  O_51 
REMARK   20  A    between atoms: P_54  and  O_52 
REMARK   21  A    between atoms: P_55  and  O_52 
ROOT
HETATM    1  O   UNK N   1      34.784  14.872   9.774  0.00  0.00    -0.631 OA
HETATM    2  P   UNK N   1      35.238  15.870  10.859  0.00  0.00     0.410 P 
ENDROOT
BRANCH   2   3
HETATM    3  O   UNK N   1      36.947  16.047  11.082  0.00  0.00    -0.307 OA
HETATM    4  H   UNK N   1      37.592  15.544  10.560  0.00  0.00     0.222 HD
ENDBRANCH   2   3
BRANCH   2   5
HETATM    5  O   UNK N   1      35.803  16.889   9.501  0.00  0.00    -0.195 OA
BRANCH   5   6
HETATM    6  P   UNK N   1      34.565  17.562   8.417  0.00  0.00     0.401 P 
HETATM    7  O   UNK N   1      34.743  19.102   8.344  0.00  0.00    -0.631 OA
BRANCH   6   8
HETATM    8  O   UNK N   1      32.981  17.311   9.084  0.00  0.00    -0.307 OA
HETATM    9  H   UNK N   1      32.864  16.731   9.852  0.00  0.00     0.222 HD
ENDBRANCH   6   8
BRANCH   6  10
HETATM   10  O   UNK N   1      34.663  16.948   6.779  0.00  0.00    -0.294 OA
BRANCH  10  11
HETATM   11  C   UNK N   1      33.455  17.268   6.141  0.00  0.00     0.215 C 
BRANCH  11  12
HETATM   12  C   UNK N   1      32.782  16.026   5.529  0.00  0.00     0.180 C 
HETATM   13  C   UNK N   1      32.661  16.036   4.000  0.00  0.00     0.182 C 
HETATM   14  C   UNK N   1      31.366  16.753   3.820  0.00  0.00     0.198 C 
HETATM   15  C   UNK N   1      30.581  16.224   5.030  0.00  0.00     0.262 C 
HETATM   16  O   UNK N   1      31.493  15.905   6.059  0.00  0.00    -0.353 OA
BRANCH  13  17
HETATM   17  O   UNK N   1      32.522  14.718   3.549  0.00  0.00    -0.390 OA
HETATM   18  H   UNK N   1      31.902  14.125   3.097  0.00  0.00     0.210 HD
ENDBRANCH  13  17
BRANCH  14  19
HETATM   19  O   UNK N   1      31.593  18.128   3.939  0.00  0.00    -0.388 OA
HETATM   20  H   UNK N   1      31.723  19.026   3.595  0.00  0.00     0.210 HD
ENDBRANCH  14  19
BRANCH  15  21
HETATM   21  N   UNK N   1      29.647  17.229   5.524  0.00  0.00    -0.297 N 
HETATM   22  C   UNK N   1      28.814  17.987   4.762  0.00  0.00     0.188 A 
HETATM   23  N   UNK N   1      28.043  18.801   5.529  0.00  0.00    -0.346 N 
HETATM   24  C   UNK N   1      28.428  18.527   6.789  0.00  0.00     0.122 A 
ATOM     25  HN  UNK N   1      27.334  19.467   5.221  1.00  0.00     0.167 HD
HETATM   26  C   UNK N   1      27.986  19.059   7.982  0.00  0.00     0.131 A 
HETATM   27  C   UNK N   1      29.389  17.585   6.782  0.00  0.00     0.142 A 
HETATM   28  N   UNK N   1      28.558  18.603   9.136  0.00  0.00    -0.337 N 
HETATM   29  C   UNK N   1      29.540  17.640   9.107  0.00  0.00     0.183 A 
ATOM     30  HN  UNK N   1      28.251  18.981  10.033  1.00  0.00     0.168 HD
HETATM   31  N   UNK N   1      29.965  17.117   7.916  0.00  0.00    -0.336 N 
ATOM     32  HN  UNK N   1      30.690  16.400   7.883  1.00  0.00     0.168 HD
BRANCH  26  33
HETATM   33  N   UNK N   1      26.977  20.042   8.014  0.00  0.00    -0.383 N 
HETATM   34  H   UNK N   1      26.217  20.002   8.639  0.00  0.00     0.157 HD
HETATM   35  H   UNK N   1      27.034  20.800   7.386  0.00  0.00     0.157 HD
ENDBRANCH  26  33
ENDBRANCH  15  21
ENDBRANCH  11  12
ENDBRANCH  10  11
ENDBRANCH   6  10
ENDBRANCH   5   6
ENDBRANCH   2   5
BRANCH   2  36
HETATM   36  O   UNK N   1      36.025  14.354  11.075  0.00  0.00    -0.195 OA
BRANCH  36  37
HETATM   37  P   UNK N   1      36.080  14.043  12.790  0.00  0.00     0.401 P 
HETATM   38  O   UNK N   1      34.663  13.635  13.274  0.00  0.00    -0.631 OA
BRANCH  37  39
HETATM   39  O   UNK N   1      36.641  15.401  13.718  0.00  0.00    -0.307 OA
HETATM   40  H   UNK N   1      37.161  16.151  14.047  0.00  0.00     0.222 HD
ENDBRANCH  37  39
BRANCH  37  41
HETATM   41  O   UNK N   1      37.132  12.686  13.018  0.00  0.00    -0.294 OA
BRANCH  41  42
HETATM   42  C   UNK N   1      36.686  11.746  12.078  0.00  0.00     0.215 C 
BRANCH  42  43
HETATM   43  C   UNK N   1      36.049  10.552  12.781  0.00  0.00     0.180 C 
HETATM   44  C   UNK N   1      34.534  10.582  12.662  0.00  0.00     0.182 C 
HETATM   45  C   UNK N   1      34.069  10.035  13.997  0.00  0.00     0.198 C 
HETATM   46  C   UNK N   1      35.380   9.900  14.793  0.00  0.00     0.262 C 
HETATM   47  O   UNK N   1      36.363  10.650  14.132  0.00  0.00    -0.353 OA
BRANCH  44  48
HETATM   48  O   UNK N   1      34.071   9.828  11.579  0.00  0.00    -0.390 OA
HETATM   49  H   UNK N   1      33.355   9.180  11.662  0.00  0.00     0.210 HD
ENDBRANCH  44  48
BRANCH  45  50
HETATM   50  O   UNK N   1      33.191  10.955  14.581  0.00  0.00    -0.388 OA
HETATM   51  H   UNK N   1      33.021  11.899  14.726  0.00  0.00     0.210 HD
ENDBRANCH  45  50
BRANCH  46  52
HETATM   52  N   UNK N   1      35.308  10.363  16.177  0.00  0.00    -0.297 N 
HETATM   53  C   UNK N   1      35.139   9.559  17.262  0.00  0.00     0.188 A 
HETATM   54  N   UNK N   1      35.087  10.277  18.413  0.00  0.00    -0.346 N 
HETATM   55  C   UNK N   1      35.238  11.550  18.012  0.00  0.00     0.122 A 
ATOM     56  HN  UNK N   1      34.961   9.930  19.364  1.00  0.00     0.167 HD
HETATM   57  C   UNK N   1      35.284  12.708  18.761  0.00  0.00     0.131 A 
HETATM   58  C   UNK N   1      35.367  11.603  16.671  0.00  0.00     0.142 A 
HETATM   59  N   UNK N   1      35.477  13.889  18.101  0.00  0.00    -0.337 N 
HETATM   60  C   UNK N   1      35.614  13.920  16.731  0.00  0.00     0.183 A 
ATOM     61  HN  UNK N   1      35.521  14.759  18.630  1.00  0.00     0.168 HD
HETATM   62  N   UNK N   1      35.554  12.764  16.000  0.00  0.00    -0.336 N 
ATOM     63  HN  UNK N   1      35.646  12.776  14.985  1.00  0.00     0.168 HD
BRANCH  57  64
HETATM   64  N   UNK N   1      35.143  12.678  20.162  0.00  0.00    -0.383 N 
HETATM   65  H   UNK N   1      35.562  13.352  20.745  0.00  0.00     0.157 HD
HETATM   66  H   UNK N   1      34.607  11.960  20.573  0.00  0.00     0.157 HD
ENDBRANCH  57  64
ENDBRANCH  46  52
ENDBRANCH  42  43
ENDBRANCH  41  42
ENDBRANCH  37  41
ENDBRANCH  36  37
ENDBRANCH   2  36
TORSDOF 21
ENDMDL
MODEL 2
REMARK VINA RESULT:      -8.7      1.399      2.416
REMARK  21 active torsions:
REMARK  status: ('A' for Active; 'I' for Inactive)
REMARK    1  A    between atoms: C_7  and  C_1 
REMARK    2  A    between atoms: O_47  and  C_1 
REMARK    3  A    between atoms: C_8  and  C_2 
REMARK    4  A    between atoms: O_48  and  C_2 
REMARK    5  A    between atoms: C_11  and  O_37 
REMARK    6  A    between atoms: C_12  and  O_38 
REMARK    7  A    between atoms: C_13  and  O_39 
REMARK    8  A    between atoms: C_14  and  O_40 
REMARK    9  A    between atoms: N_21  and  C_15 
REMARK   10  A    between atoms: N_22  and  C_16 
REMARK   11  A    between atoms: C_19  and  N_35 
REMARK   12  A    between atoms: C_20  and  N_36 
REMARK   13  A    between atoms: P_53  and  O_41 
REMARK   14  A    between atoms: P_54  and  O_43 
REMARK   15  A    between atoms: P_55  and  O_45 
REMARK   16  A    between atoms: P_53  and  O_47 
REMARK   17  A    between atoms: P_54  and  O_48 
REMARK   18  A    between atoms: P_53  and  O_51 
REMARK   19  A    between atoms: P_55  and  O_51 
REMARK   20  A    between atoms: P_54  and  O_52 
REMARK   21  A    between atoms: P_55  and  O_52 
ROOT
HETATM    1  O   UNK N   1      32.885  15.805   8.999  0.00  0.00    -0.631 OA
HETATM    2  P   UNK N   1      34.022  15.359   9.942  0.00  0.00     0.410 P 
ENDROOT
BRANCH   2   3
HETATM    3  O   UNK N   1      35.606  15.255   9.251  0.00  0.00    -0.307 OA
HETATM    4  H   UNK N   1      36.340  14.809   9.702  0.00  0.00     0.222 HD
ENDBRANCH   2   3
BRANCH   2   5
HETATM    5  O   UNK N   1      34.610  17.045   9.818  0.00  0.00    -0.195 OA
BRANCH   5   6
HETATM    6  P   UNK N   1      34.276  17.915   8.304  0.00  0.00     0.401 P 
HETATM    7  O   UNK N   1      35.083  19.241   8.299  0.00  0.00    -0.631 OA
BRANCH   6   8
HETATM    8  O   UNK N   1      32.607  18.390   8.238  0.00  0.00    -0.307 OA
HETATM    9  H   UNK N   1      31.918  17.725   8.081  0.00  0.00     0.222 HD
ENDBRANCH   6   8
BRANCH   6  10
HETATM   10  O   UNK N   1      34.735  17.020   6.869  0.00  0.00    -0.294 OA
BRANCH  10  11
HETATM   11  C   UNK N   1      33.758  17.271   5.893  0.00  0.00     0.215 C 
BRANCH  11  12
HETATM   12  C   UNK N   1      33.105  15.972   5.387  0.00  0.00     0.180 C 
HETATM   13  C   UNK N   1      32.889  15.899   3.870  0.00  0.00     0.182 C 
HETATM   14  C   UNK N   1      31.554  16.551   3.738  0.00  0.00     0.198 C 
HETATM   15  C   UNK N   1      30.871  16.052   5.021  0.00  0.00     0.262 C 
HETATM   16  O   UNK N   1      31.858  15.825   6.003  0.00  0.00    -0.353 OA
BRANCH  13  17
HETATM   17  O   UNK N   1      32.781  14.555   3.493  0.00  0.00    -0.390 OA
HETATM   18  H   UNK N   1      32.603  13.671   3.850  0.00  0.00     0.210 HD
ENDBRANCH  13  17
BRANCH  14  19
HETATM   19  O   UNK N   1      31.727  17.939   3.776  0.00  0.00    -0.388 OA
HETATM   20  H   UNK N   1      31.980  18.798   3.405  0.00  0.00     0.210 HD
ENDBRANCH  14  19
BRANCH  15  21
HETATM   21  N   UNK N   1      29.925  17.041   5.525  0.00  0.00    -0.297 N 
HETATM   22  C   UNK N   1      29.131  17.845   4.767  0.00  0.00     0.188 A 
HETATM   23  N   UNK N   1      28.335  18.628   5.541  0.00  0.00    -0.346 N 
HETATM   24  C   UNK N   1      28.664  18.288   6.800  0.00  0.00     0.122 A 
ATOM     25  HN  UNK N   1      27.646  19.316   5.237  1.00  0.00     0.167 HD
HETATM   26  C   UNK N   1      28.176  18.766   7.999  0.00  0.00     0.131 A 
HETATM   27  C   UNK N   1      29.617  17.337   6.787  0.00  0.00     0.142 A 
HETATM   28  N   UNK N   1      28.694  18.246   9.152  0.00  0.00    -0.337 N 
HETATM   29  C   UNK N   1      29.669  17.276   9.116  0.00  0.00     0.183 A 
ATOM     30  HN  UNK N   1      28.353  18.583  10.052  1.00  0.00     0.168 HD
HETATM   31  N   UNK N   1      30.140  16.808   7.919  0.00  0.00    -0.336 N 
ATOM     32  HN  UNK N   1      30.859  16.086   7.881  1.00  0.00     0.168 HD
BRANCH  26  33
HETATM   33  N   UNK N   1      27.175  19.756   8.036  0.00  0.00    -0.383 N 
HETATM   34  H   UNK N   1      26.631  19.990   7.250  0.00  0.00     0.157 HD
HETATM   35  H   UNK N   1      27.013  20.234   8.883  0.00  0.00     0.157 HD
ENDBRANCH  26  33
ENDBRANCH  15  21
ENDBRANCH  11  12
ENDBRANCH  10  11
ENDBRANCH   6  10
ENDBRANCH   5   6
ENDBRANCH   2   5
BRANCH   2  36
HETATM   36  O   UNK N   1      34.040  14.420   8.499  0.00  0.00    -0.195 OA
BRANCH  36  37
HETATM   37  P   UNK N   1      34.227  12.752   8.974  0.00  0.00     0.401 P 
HETATM   38  O   UNK N   1      34.654  11.920   7.736  0.00  0.00    -0.631 OA
BRANCH  37  39
HETATM   39  O   UNK N   1      32.785  12.067   9.662  0.00  0.00    -0.307 OA
HETATM   40  H   UNK N   1      31.956  11.579   9.788  0.00  0.00     0.222 HD
ENDBRANCH  37  39
BRANCH  37  41
HETATM   41  O   UNK N   1      35.522  12.702  10.124  0.00  0.00    -0.294 OA
BRANCH  41  42
HETATM   42  C   UNK N   1      34.939  12.143  11.270  0.00  0.00     0.215 C 
BRANCH  42  43
HETATM   43  C   UNK N   1      35.005  13.126  12.434  0.00  0.00     0.180 C 
HETATM   44  C   UNK N   1      36.431  13.586  12.693  0.00  0.00     0.182 C 
HETATM   45  C   UNK N   1      36.486  13.715  14.201  0.00  0.00     0.198 C 
HETATM   46  C   UNK N   1      35.121  13.160  14.649  0.00  0.00     0.262 C 
HETATM   47  O   UNK N   1      34.571  12.453  13.571  0.00  0.00    -0.353 OA
BRANCH  44  48
HETATM   48  O   UNK N   1      36.729  14.783  12.037  0.00  0.00    -0.390 OA
HETATM   49  H   UNK N   1      37.636  15.048  11.820  0.00  0.00     0.210 HD
ENDBRANCH  44  48
BRANCH  45  50
HETATM   50  O   UNK N   1      37.551  12.945  14.682  0.00  0.00    -0.388 OA
HETATM   51  H   UNK N   1      37.791  12.216  15.276  0.00  0.00     0.210 HD
ENDBRANCH  45  50
BRANCH  46  52
HETATM   52  N   UNK N   1      35.172  12.264  15.803  0.00  0.00    -0.297 N 
HETATM   53  C   UNK N   1      35.182  10.905  15.737  0.00  0.00     0.188 A 
HETATM   54  N   UNK N   1      35.208  10.344  16.973  0.00  0.00    -0.346 N 
HETATM   55  C   UNK N   1      35.222  11.395  17.809  0.00  0.00     0.122 A 
ATOM     56  HN  UNK N   1      35.214   9.352  17.212  1.00  0.00     0.167 HD
HETATM   57  C   UNK N   1      35.267  11.422  19.187  0.00  0.00     0.131 A 
HETATM   58  C   UNK N   1      35.196  12.547  17.108  0.00  0.00     0.142 A 
HETATM   59  N   UNK N   1      35.301  12.641  19.803  0.00  0.00    -0.337 N 
HETATM   60  C   UNK N   1      35.281  13.805  19.068  0.00  0.00     0.183 A 
ATOM     61  HN  UNK N   1      35.340  12.689  20.820  1.00  0.00     0.168 HD
HETATM   62  N   UNK N   1      35.223  13.763  17.701  0.00  0.00    -0.336 N 
ATOM     63  HN  UNK N   1      35.200  14.620  17.148  1.00  0.00     0.168 HD
BRANCH  57  64
HETATM   64  N   UNK N   1      35.286  10.231  19.940  0.00  0.00    -0.383 N 
HETATM   65  H   UNK N   1      36.065   9.965  20.480  0.00  0.00     0.157 HD
HETATM   66  H   UNK N   1      34.494   9.645  19.927  0.00  0.00     0.157 HD
ENDBRANCH  57  64
ENDBRANCH  46  52
ENDBRANCH  42  43
ENDBRANCH  41  42
ENDBRANCH  37  41
ENDBRANCH  36  37
ENDBRANCH   2  36
TORSDOF 21
ENDMDL
MODEL 3
REMARK VINA RESULT:      -8.5      1.290     11.183
REMARK  21 active torsions:
REMARK  status: ('A' for Active; 'I' for Inactive)
REMARK    1  A    between atoms: C_7  and  C_1 
REMARK    2  A    between atoms: O_47  and  C_1 
REMARK    3  A    between atoms: C_8  and  C_2 
REMARK    4  A    between atoms: O_48  and  C_2 
REMARK    5  A    between atoms: C_11  and  O_37 
REMARK    6  A    between atoms: C_12  and  O_38 
REMARK    7  A    between atoms: C_13  and  O_39 
REMARK    8  A    between atoms: C_14  and  O_40 
REMARK    9  A    between atoms: N_21  and  C_15 
REMARK   10  A    between atoms: N_22  and  C_16 
REMARK   11  A    between atoms: C_19  and  N_35 
REMARK   12  A    between atoms: C_20  and  N_36 
REMARK   13  A    between atoms: P_53  and  O_41 
REMARK   14  A    between atoms: P_54  and  O_43 
REMARK   15  A    between atoms: P_55  and  O_45 
REMARK   16  A    between atoms: P_53  and  O_47 
REMARK   17  A    between atoms: P_54  and  O_48 
REMARK   18  A    between atoms: P_53  and  O_51 
REMARK   19  A    between atoms: P_55  and  O_51 
REMARK   20  A    between atoms: P_54  and  O_52 
REMARK   21  A    between atoms: P_55  and  O_52 
ROOT
HETATM    1  O   UNK N   1      34.442  16.917  10.040  0.00  0.00    -0.631 OA
HETATM    2  P   UNK N   1      33.855  15.564   9.589  0.00  0.00     0.410 P 
ENDROOT
BRANCH   2   3
HETATM    3  O   UNK N   1      34.977  14.259   9.394  0.00  0.00    -0.307 OA
HETATM    4  H   UNK N   1      34.860  13.571   8.721  0.00  0.00     0.222 HD
ENDBRANCH   2   3
BRANCH   2   5
HETATM    5  O   UNK N   1      34.231  14.996  11.243  0.00  0.00    -0.195 OA
BRANCH   5   6
HETATM    6  P   UNK N   1      35.947  14.825  11.676  0.00  0.00     0.401 P 
HETATM    7  O   UNK N   1      36.105  15.053  13.203  0.00  0.00    -0.631 OA
BRANCH   6   8
HETATM    8  O   UNK N   1      36.885  16.077  10.922  0.00  0.00    -0.307 OA
HETATM    9  H   UNK N   1      37.595  15.846  10.303  0.00  0.00     0.222 HD
ENDBRANCH   6   8
BRANCH   6  10
HETATM   10  O   UNK N   1      36.604  13.241  11.315  0.00  0.00    -0.294 OA
BRANCH  10  11
HETATM   11  C   UNK N   1      37.099  12.712  12.517  0.00  0.00     0.215 C 
BRANCH  11  12
HETATM   12  C   UNK N   1      36.685  11.242  12.711  0.00  0.00     0.180 C 
HETATM   13  C   UNK N   1      35.271  10.893  12.229  0.00  0.00     0.182 C 
HETATM   14  C   UNK N   1      34.466  11.218  13.443  0.00  0.00     0.198 C 
HETATM   15  C   UNK N   1      35.441  10.786  14.549  0.00  0.00     0.262 C 
HETATM   16  O   UNK N   1      36.762  10.928  14.072  0.00  0.00    -0.353 OA
BRANCH  13  17
HETATM   17  O   UNK N   1      35.202   9.516  11.989  0.00  0.00    -0.390 OA
HETATM   18  H   UNK N   1      35.627   8.676  12.220  0.00  0.00     0.210 HD
ENDBRANCH  13  17
BRANCH  14  19
HETATM   19  O   UNK N   1      34.252  12.600  13.483  0.00  0.00    -0.388 OA
HETATM   20  H   UNK N   1      34.516  13.528  13.388  0.00  0.00     0.210 HD
ENDBRANCH  14  19
BRANCH  15  21
HETATM   21  N   UNK N   1      35.279  11.616  15.737  0.00  0.00    -0.297 N 
HETATM   22  C   UNK N   1      34.787  12.883  15.764  0.00  0.00     0.188 A 
HETATM   23  N   UNK N   1      34.728  13.366  17.033  0.00  0.00    -0.346 N 
HETATM   24  C   UNK N   1      35.203  12.360  17.789  0.00  0.00     0.122 A 
ATOM     25  HN  UNK N   1      34.399  14.281  17.341  1.00  0.00     0.167 HD
HETATM   26  C   UNK N   1      35.376  12.290  19.156  0.00  0.00     0.131 A 
HETATM   27  C   UNK N   1      35.533  11.313  17.010  0.00  0.00     0.142 A 
HETATM   28  N   UNK N   1      35.891  11.136  19.676  0.00  0.00    -0.337 N 
HETATM   29  C   UNK N   1      36.222  10.078  18.862  0.00  0.00     0.183 A 
ATOM     30  HN  UNK N   1      36.031  11.058  20.684  1.00  0.00     0.168 HD
HETATM   31  N   UNK N   1      36.040  10.160  17.508  0.00  0.00    -0.336 N 
ATOM     32  HN  UNK N   1      36.279   9.380  16.895  1.00  0.00     0.168 HD
BRANCH  26  33
HETATM   33  N   UNK N   1      35.034  13.371  19.992  0.00  0.00    -0.383 N 
HETATM   34  H   UNK N   1      35.566  14.199  20.032  0.00  0.00     0.157 HD
HETATM   35  H   UNK N   1      34.231  13.297  20.557  0.00  0.00     0.157 HD
ENDBRANCH  26  33
ENDBRANCH  15  21
ENDBRANCH  11  12
ENDBRANCH  10  11
ENDBRANCH   6  10
ENDBRANCH   5   6
ENDBRANCH   2   5
BRANCH   2  36
HETATM   36  O   UNK N   1      35.190  15.999   8.593  0.00  0.00    -0.195 OA
BRANCH  36  37
HETATM   37  P   UNK N   1      34.596  16.110   6.957  0.00  0.00     0.401 P 
HETATM   38  O   UNK N   1      35.713  15.652   5.982  0.00  0.00    -0.631 OA
BRANCH  37  39
HETATM   39  O   UNK N   1      34.070  17.710   6.524  0.00  0.00    -0.307 OA
HETATM   40  H   UNK N   1      34.003  18.588   6.117  0.00  0.00     0.222 HD
ENDBRANCH  37  39
BRANCH  37  41
HETATM   41  O   UNK N   1      33.280  14.991   6.826  0.00  0.00    -0.294 OA
BRANCH  41  42
HETATM   42  C   UNK N   1      33.485  14.366   5.587  0.00  0.00     0.215 C 
BRANCH  42  43
HETATM   43  C   UNK N   1      32.353  14.708   4.625  0.00  0.00     0.180 C 
HETATM   44  C   UNK N   1      32.684  15.937   3.793  0.00  0.00     0.182 C 
HETATM   45  C   UNK N   1      31.346  16.634   3.654  0.00  0.00     0.198 C 
HETATM   46  C   UNK N   1      30.423  15.800   4.562  0.00  0.00     0.262 C 
HETATM   47  O   UNK N   1      31.234  15.014   5.392  0.00  0.00    -0.353 OA
BRANCH  44  48
HETATM   48  O   UNK N   1      33.251  15.605   2.559  0.00  0.00    -0.390 OA
HETATM   49  H   UNK N   1      32.722  15.498   1.753  0.00  0.00     0.210 HD
ENDBRANCH  44  48
BRANCH  45  50
HETATM   50  O   UNK N   1      31.474  17.953   4.104  0.00  0.00    -0.388 OA
HETATM   51  H   UNK N   1      31.293  18.881   3.885  0.00  0.00     0.210 HD
ENDBRANCH  45  50
BRANCH  46  52
HETATM   52  N   UNK N   1      29.526  16.582   5.410  0.00  0.00    -0.297 N 
HETATM   53  C   UNK N   1      28.222  16.852   5.130  0.00  0.00     0.188 A 
HETATM   54  N   UNK N   1      27.652  17.621   6.092  0.00  0.00    -0.346 N 
HETATM   55  C   UNK N   1      28.638  17.813   6.984  0.00  0.00     0.122 A 
ATOM     56  HN  UNK N   1      26.695  17.972   6.130  1.00  0.00     0.167 HD
HETATM   57  C   UNK N   1      28.621  18.506   8.177  0.00  0.00     0.131 A 
HETATM   58  C   UNK N   1      29.763  17.194   6.574  0.00  0.00     0.142 A 
HETATM   59  N   UNK N   1      29.767  18.526   8.921  0.00  0.00    -0.337 N 
HETATM   60  C   UNK N   1      30.903  17.881   8.488  0.00  0.00     0.183 A 
ATOM     61  HN  UNK N   1      29.781  19.026   9.809  1.00  0.00     0.168 HD
HETATM   62  N   UNK N   1      30.909  17.208   7.295  0.00  0.00    -0.336 N 
ATOM     63  HN  UNK N   1      31.747  16.734   6.961  1.00  0.00     0.168 HD
BRANCH  57  64
HETATM   64  N   UNK N   1      27.459  19.168   8.621  0.00  0.00    -0.383 N 
HETATM   65  H   UNK N   1      26.572  18.741   8.596  0.00  0.00     0.157 HD
HETATM   66  H   UNK N   1      27.536  20.087   8.967  0.00  0.00     0.157 HD
ENDBRANCH  57  64
ENDBRANCH  46  52
ENDBRANCH  42  43
ENDBRANCH  41  42
ENDBRANCH  37  41
ENDBRANCH  36  37
ENDBRANCH   2  36
TORSDOF 21
ENDMDL
MODEL 4
REMARK VINA RESULT:      -8.5      0.791      1.441
REMARK  21 active torsions:
REMARK  status: ('A' for Active; 'I' for Inactive)
REMARK    1  A    between atoms: C_7  and  C_1 
REMARK    2  A    between atoms: O_47  and  C_1 
REMARK    3  A    between atoms: C_8  and  C_2 
REMARK    4  A    between atoms: O_48  and  C_2 
REMARK    5  A    between atoms: C_11  and  O_37 
REMARK    6  A    between atoms: C_12  and  O_38 
REMARK    7  A    between atoms: C_13  and  O_39 
REMARK    8  A    between atoms: C_14  and  O_40 
REMARK    9  A    between atoms: N_21  and  C_15 
REMARK   10  A    between atoms: N_22  and  C_16 
REMARK   11  A    between atoms: C_19  and  N_35 
REMARK   12  A    between atoms: C_20  and  N_36 
REMARK   13  A    between atoms: P_53  and  O_41 
REMARK   14  A    between atoms: P_54  and  O_43 
REMARK   15  A    between atoms: P_55  and  O_45 
REMARK   16  A    between atoms: P_53  and  O_47 
REMARK   17  A    between atoms: P_54  and  O_48 
REMARK   18  A    between atoms: P_53  and  O_51 
REMARK   19  A    between atoms: P_55  and  O_51 
REMARK   20  A    between atoms: P_54  and  O_52 
REMARK   21  A    between atoms: P_55  and  O_52 
ROOT
HETATM    1  O   UNK N   1      34.572  14.711  10.069  0.00  0.00    -0.631 OA
HETATM    2  P   UNK N   1      35.301  15.780  10.911  0.00  0.00     0.410 P 
ENDROOT
BRANCH   2   3
HETATM    3  O   UNK N   1      37.030  15.786  10.824  0.00  0.00    -0.307 OA
HETATM    4  H   UNK N   1      37.575  16.365  11.381  0.00  0.00     0.222 HD
ENDBRANCH   2   3
BRANCH   2   5
HETATM    5  O   UNK N   1      35.707  16.548   9.346  0.00  0.00    -0.195 OA
BRANCH   5   6
HETATM    6  P   UNK N   1      34.356  16.959   8.265  0.00  0.00     0.401 P 
HETATM    7  O   UNK N   1      34.595  18.377   7.679  0.00  0.00    -0.631 OA
BRANCH   6   8
HETATM    8  O   UNK N   1      32.877  17.076   9.168  0.00  0.00    -0.307 OA
HETATM    9  H   UNK N   1      32.855  16.808  10.100  0.00  0.00     0.222 HD
ENDBRANCH   6   8
BRANCH   6  10
HETATM   10  O   UNK N   1      34.184  15.858   6.913  0.00  0.00    -0.294 OA
BRANCH  10  11
HETATM   11  C   UNK N   1      32.957  15.196   7.069  0.00  0.00     0.215 C 
BRANCH  11  12
HETATM   12  C   UNK N   1      32.313  14.853   5.713  0.00  0.00     0.180 C 
HETATM   13  C   UNK N   1      32.769  15.724   4.536  0.00  0.00     0.182 C 
HETATM   14  C   UNK N   1      31.812  16.864   4.635  0.00  0.00     0.198 C 
HETATM   15  C   UNK N   1      30.544  16.126   5.094  0.00  0.00     0.262 C 
HETATM   16  O   UNK N   1      30.925  14.982   5.828  0.00  0.00    -0.353 OA
BRANCH  13  17
HETATM   17  O   UNK N   1      32.534  15.030   3.343  0.00  0.00    -0.390 OA
HETATM   18  H   UNK N   1      32.164  15.140   2.453  0.00  0.00     0.210 HD
ENDBRANCH  13  17
BRANCH  14  19
HETATM   19  O   UNK N   1      32.261  17.743   5.626  0.00  0.00    -0.388 OA
HETATM   20  H   UNK N   1      32.630  17.964   6.495  0.00  0.00     0.210 HD
ENDBRANCH  14  19
BRANCH  15  21
HETATM   21  N   UNK N   1      29.727  16.981   5.947  0.00  0.00    -0.297 N 
HETATM   22  C   UNK N   1      29.660  16.924   7.304  0.00  0.00     0.188 A 
HETATM   23  N   UNK N   1      28.835  17.883   7.801  0.00  0.00    -0.346 N 
HETATM   24  C   UNK N   1      28.390  18.531   6.709  0.00  0.00     0.122 A 
ATOM     25  HN  UNK N   1      28.606  18.069   8.777  1.00  0.00     0.167 HD
HETATM   26  C   UNK N   1      27.520  19.597   6.610  0.00  0.00     0.131 A 
HETATM   27  C   UNK N   1      28.926  17.988   5.600  0.00  0.00     0.142 A 
HETATM   28  N   UNK N   1      27.226  20.067   5.361  0.00  0.00    -0.337 N 
HETATM   29  C   UNK N   1      27.784  19.497   4.240  0.00  0.00     0.183 A 
ATOM     30  HN  UNK N   1      26.584  20.853   5.258  1.00  0.00     0.168 HD
HETATM   31  N   UNK N   1      28.649  18.443   4.355  0.00  0.00    -0.336 N 
ATOM     32  HN  UNK N   1      29.071  18.014   3.531  1.00  0.00     0.168 HD
BRANCH  26  33
HETATM   33  N   UNK N   1      26.952  20.185   7.757  0.00  0.00    -0.383 N 
HETATM   34  H   UNK N   1      26.093  20.667   7.735  0.00  0.00     0.157 HD
HETATM   35  H   UNK N   1      27.431  20.110   8.614  0.00  0.00     0.157 HD
ENDBRANCH  26  33
ENDBRANCH  15  21
ENDBRANCH  11  12
ENDBRANCH  10  11
ENDBRANCH   6  10
ENDBRANCH   5   6
ENDBRANCH   2   5
BRANCH   2  36
HETATM   36  O   UNK N   1      35.971  14.223  11.211  0.00  0.00    -0.195 OA
BRANCH  36  37
HETATM   37  P   UNK N   1      36.101  14.045  12.941  0.00  0.00     0.401 P 
HETATM   38  O   UNK N   1      34.717  13.637  13.511  0.00  0.00    -0.631 OA
BRANCH  37  39
HETATM   39  O   UNK N   1      36.656  15.485  13.741  0.00  0.00    -0.307 OA
HETATM   40  H   UNK N   1      36.718  16.385  14.099  0.00  0.00     0.222 HD
ENDBRANCH  37  39
BRANCH  37  41
HETATM   41  O   UNK N   1      37.203  12.738  13.227  0.00  0.00    -0.294 OA
BRANCH  41  42
HETATM   42  C   UNK N   1      36.819  11.759  12.300  0.00  0.00     0.215 C 
BRANCH  42  43
HETATM   43  C   UNK N   1      36.170  10.577  13.012  0.00  0.00     0.180 C 
HETATM   44  C   UNK N   1      34.658  10.594  12.850  0.00  0.00     0.182 C 
HETATM   45  C   UNK N   1      34.159  10.075  14.183  0.00  0.00     0.198 C 
HETATM   46  C   UNK N   1      35.448   9.967  15.019  0.00  0.00     0.262 C 
HETATM   47  O   UNK N   1      36.444  10.708  14.369  0.00  0.00    -0.353 OA
BRANCH  44  48
HETATM   48  O   UNK N   1      34.232   9.812  11.772  0.00  0.00    -0.390 OA
HETATM   49  H   UNK N   1      34.766   9.090  11.407  0.00  0.00     0.210 HD
ENDBRANCH  44  48
BRANCH  45  50
HETATM   50  O   UNK N   1      33.259  11.001  14.721  0.00  0.00    -0.388 OA
HETATM   51  H   UNK N   1      33.181  11.791  15.279  0.00  0.00     0.210 HD
ENDBRANCH  45  50
BRANCH  46  52
HETATM   52  N   UNK N   1      35.334  10.462  16.390  0.00  0.00    -0.297 N 
HETATM   53  C   UNK N   1      35.106   9.685  17.484  0.00  0.00     0.188 A 
HETATM   54  N   UNK N   1      35.026  10.429  18.617  0.00  0.00    -0.346 N 
HETATM   55  C   UNK N   1      35.220  11.690  18.195  0.00  0.00     0.122 A 
ATOM     56  HN  UNK N   1      34.857  10.105  19.569  1.00  0.00     0.167 HD
HETATM   57  C   UNK N   1      35.263  12.862  18.920  0.00  0.00     0.131 A 
HETATM   58  C   UNK N   1      35.400  11.710  16.860  0.00  0.00     0.142 A 
HETATM   59  N   UNK N   1      35.506  14.024  18.244  0.00  0.00    -0.337 N 
HETATM   60  C   UNK N   1      35.695  14.023  16.881  0.00  0.00     0.183 A 
ATOM     61  HN  UNK N   1      35.548  14.905  18.756  1.00  0.00     0.168 HD
HETATM   62  N   UNK N   1      35.638  12.852  16.172  0.00  0.00    -0.336 N 
ATOM     63  HN  UNK N   1      35.768  12.841  15.161  1.00  0.00     0.168 HD
BRANCH  57  64
HETATM   64  N   UNK N   1      35.067  12.866  20.316  0.00  0.00    -0.383 N 
HETATM   65  H   UNK N   1      35.023  13.701  20.836  0.00  0.00     0.157 HD
HETATM   66  H   UNK N   1      34.972  12.006  20.787  0.00  0.00     0.157 HD
ENDBRANCH  57  64
ENDBRANCH  46  52
ENDBRANCH  42  43
ENDBRANCH  41  42
ENDBRANCH  37  41
ENDBRANCH  36  37
ENDBRANCH   2  36
TORSDOF 21
ENDMDL
MODEL 5
REMARK VINA RESULT:      -8.4      1.671      2.222
REMARK  21 active torsions:
REMARK  status: ('A' for Active; 'I' for Inactive)
REMARK    1  A    between atoms: C_7  and  C_1 
REMARK    2  A    between atoms: O_47  and  C_1 
REMARK    3  A    between atoms: C_8  and  C_2 
REMARK    4  A    between atoms: O_48  and  C_2 
REMARK    5  A    between atoms: C_11  and  O_37 
REMARK    6  A    between atoms: C_12  and  O_38 
REMARK    7  A    between atoms: C_13  and  O_39 
REMARK    8  A    between atoms: C_14  and  O_40 
REMARK    9  A    between atoms: N_21  and  C_15 
REMARK   10  A    between atoms: N_22  and  C_16 
REMARK   11  A    between atoms: C_19  and  N_35 
REMARK   12  A    between atoms: C_20  and  N_36 
REMARK   13  A    between atoms: P_53  and  O_41 
REMARK   14  A    between atoms: P_54  and  O_43 
REMARK   15  A    between atoms: P_55  and  O_45 
REMARK   16  A    between atoms: P_53  and  O_47 
REMARK   17  A    between atoms: P_54  and  O_48 
REMARK   18  A    between atoms: P_53  and  O_51 
REMARK   19  A    between atoms: P_55  and  O_51 
REMARK   20  A    between atoms: P_54  and  O_52 
REMARK   21  A    between atoms: P_55  and  O_52 
ROOT
HETATM    1  O   UNK N   1      33.181  13.857   9.116  0.00  0.00    -0.631 OA
HETATM    2  P   UNK N   1      33.712  15.274   8.815  0.00  0.00     0.410 P 
ENDROOT
BRANCH   2   3
HETATM    3  O   UNK N   1      35.345  15.386   8.249  0.00  0.00    -0.307 OA
HETATM    4  H   UNK N   1      35.886  16.180   8.381  0.00  0.00     0.222 HD
ENDBRANCH   2   3
BRANCH   2   5
HETATM    5  O   UNK N   1      33.664  14.787   7.094  0.00  0.00    -0.195 OA
BRANCH   5   6
HETATM    6  P   UNK N   1      34.446  15.867   5.919  0.00  0.00     0.401 P 
HETATM    7  O   UNK N   1      35.918  15.416   5.724  0.00  0.00    -0.631 OA
BRANCH   6   8
HETATM    8  O   UNK N   1      34.537  17.481   6.553  0.00  0.00    -0.307 OA
HETATM    9  H   UNK N   1      34.587  18.239   5.949  0.00  0.00     0.222 HD
ENDBRANCH   6   8
BRANCH   6  10
HETATM   10  O   UNK N   1      33.683  15.852   4.341  0.00  0.00    -0.294 OA
BRANCH  10  11
HETATM   11  C   UNK N   1      32.312  16.079   4.539  0.00  0.00     0.215 C 
BRANCH  11  12
HETATM   12  C   UNK N   1      31.478  14.809   4.294  0.00  0.00     0.180 C 
HETATM   13  C   UNK N   1      30.718  14.775   2.962  0.00  0.00     0.182 C 
HETATM   14  C   UNK N   1      29.450  15.464   3.338  0.00  0.00     0.198 C 
HETATM   15  C   UNK N   1      29.269  14.953   4.776  0.00  0.00     0.262 C 
HETATM   16  O   UNK N   1      30.541  14.680   5.324  0.00  0.00    -0.353 OA
BRANCH  13  17
HETATM   17  O   UNK N   1      30.437  13.443   2.636  0.00  0.00    -0.390 OA
HETATM   18  H   UNK N   1      30.853  12.571   2.552  0.00  0.00     0.210 HD
ENDBRANCH  13  17
BRANCH  14  19
HETATM   19  O   UNK N   1      29.668  16.846   3.326  0.00  0.00    -0.388 OA
HETATM   20  H   UNK N   1      30.035  17.669   2.968  0.00  0.00     0.210 HD
ENDBRANCH  14  19
BRANCH  15  21
HETATM   21  N   UNK N   1      28.607  15.955   5.603  0.00  0.00    -0.297 N 
HETATM   22  C   UNK N   1      27.295  16.308   5.533  0.00  0.00     0.188 A 
HETATM   23  N   UNK N   1      26.982  17.243   6.467  0.00  0.00    -0.346 N 
HETATM   24  C   UNK N   1      28.140  17.461   7.115  0.00  0.00     0.122 A 
ATOM     25  HN  UNK N   1      26.076  17.679   6.639  1.00  0.00     0.167 HD
HETATM   26  C   UNK N   1      28.418  18.316   8.162  0.00  0.00     0.131 A 
HETATM   27  C   UNK N   1      29.112  16.688   6.595  0.00  0.00     0.142 A 
HETATM   28  N   UNK N   1      29.699  18.349   8.636  0.00  0.00    -0.337 N 
HETATM   29  C   UNK N   1      30.678  17.551   8.090  0.00  0.00     0.183 A 
ATOM     30  HN  UNK N   1      29.933  18.973   9.408  1.00  0.00     0.168 HD
HETATM   31  N   UNK N   1      30.386  16.704   7.055  0.00  0.00    -0.336 N 
ATOM     32  HN  UNK N   1      31.103  16.106   6.645  1.00  0.00     0.168 HD
BRANCH  26  33
HETATM   33  N   UNK N   1      27.416  19.130   8.725  0.00  0.00    -0.383 N 
HETATM   34  H   UNK N   1      26.545  19.276   8.290  0.00  0.00     0.157 HD
HETATM   35  H   UNK N   1      27.594  19.571   9.588  0.00  0.00     0.157 HD
ENDBRANCH  26  33
ENDBRANCH  15  21
ENDBRANCH  11  12
ENDBRANCH  10  11
ENDBRANCH   6  10
ENDBRANCH   5   6
ENDBRANCH   2   5
BRANCH   2  36
HETATM   36  O   UNK N   1      34.812  14.428   9.834  0.00  0.00    -0.195 OA
BRANCH  36  37
HETATM   37  P   UNK N   1      35.518  15.600  10.915  0.00  0.00     0.401 P 
HETATM   38  O   UNK N   1      34.857  16.982  10.662  0.00  0.00    -0.631 OA
BRANCH  37  39
HETATM   39  O   UNK N   1      37.242  15.743  10.744  0.00  0.00    -0.307 OA
HETATM   40  H   UNK N   1      38.141  15.765  10.381  0.00  0.00     0.222 HD
ENDBRANCH  37  39
BRANCH  37  41
HETATM   41  O   UNK N   1      35.114  15.102  12.524  0.00  0.00    -0.294 OA
BRANCH  41  42
HETATM   42  C   UNK N   1      36.305  14.552  13.020  0.00  0.00     0.215 C 
BRANCH  42  43
HETATM   43  C   UNK N   1      36.198  13.033  13.098  0.00  0.00     0.180 C 
HETATM   44  C   UNK N   1      34.761  12.568  12.917  0.00  0.00     0.182 C 
HETATM   45  C   UNK N   1      34.660  11.381  13.853  0.00  0.00     0.198 C 
HETATM   46  C   UNK N   1      36.014  11.398  14.585  0.00  0.00     0.262 C 
HETATM   47  O   UNK N   1      36.601  12.653  14.373  0.00  0.00    -0.353 OA
BRANCH  44  48
HETATM   48  O   UNK N   1      34.474  12.236  11.590  0.00  0.00    -0.390 OA
HETATM   49  H   UNK N   1      33.638  11.824  11.324  0.00  0.00     0.210 HD
ENDBRANCH  44  48
BRANCH  45  50
HETATM   50  O   UNK N   1      33.586  11.585  14.727  0.00  0.00    -0.388 OA
HETATM   51  H   UNK N   1      32.749  11.213  15.047  0.00  0.00     0.210 HD
ENDBRANCH  45  50
BRANCH  46  52
HETATM   52  N   UNK N   1      35.936  11.171  16.027  0.00  0.00    -0.297 N 
HETATM   53  C   UNK N   1      36.135   9.973  16.641  0.00  0.00     0.188 A 
HETATM   54  N   UNK N   1      35.972  10.066  17.985  0.00  0.00    -0.346 N 
HETATM   55  C   UNK N   1      35.675  11.360  18.190  0.00  0.00     0.122 A 
ATOM     56  HN  UNK N   1      36.056   9.325  18.681  1.00  0.00     0.167 HD
HETATM   57  C   UNK N   1      35.426  12.029  19.370  0.00  0.00     0.131 A 
HETATM   58  C   UNK N   1      35.648  12.022  17.016  0.00  0.00     0.142 A 
HETATM   59  N   UNK N   1      35.172  13.370  19.304  0.00  0.00    -0.337 N 
HETATM   60  C   UNK N   1      35.157  14.029  18.095  0.00  0.00     0.183 A 
ATOM     61  HN  UNK N   1      34.990  13.890  20.162  1.00  0.00     0.168 HD
HETATM   62  N   UNK N   1      35.393  13.349  16.930  0.00  0.00    -0.336 N 
ATOM     63  HN  UNK N   1      35.377  13.825  16.029  1.00  0.00     0.168 HD
BRANCH  57  64
HETATM   64  N   UNK N   1      35.439  11.356  20.608  0.00  0.00    -0.383 N 
HETATM   65  H   UNK N   1      36.277  11.080  21.044  0.00  0.00     0.157 HD
HETATM   66  H   UNK N   1      34.582  11.155  21.052  0.00  0.00     0.157 HD
ENDBRANCH  57  64
ENDBRANCH  46  52
ENDBRANCH  42  43
ENDBRANCH  41  42
ENDBRANCH  37  41
ENDBRANCH  36  37
ENDBRANCH   2  36
TORSDOF 21
ENDMDL
MODEL 6
REMARK VINA RESULT:      -8.3      4.123      9.639
REMARK  21 active torsions:
REMARK  status: ('A' for Active; 'I' for Inactive)
REMARK    1  A    between atoms: C_7  and  C_1 
REMARK    2  A    between atoms: O_47  and  C_1 
REMARK    3  A    between atoms: C_8  and  C_2 
REMARK    4  A    between atoms: O_48  and  C_2 
REMARK    5  A    between atoms: C_11  and  O_37 
REMARK    6  A    between atoms: C_12  and  O_38 
REMARK    7  A    between atoms: C_13  and  O_39 
REMARK    8  A    between atoms: C_14  and  O_40 
REMARK    9  A    between atoms: N_21  and  C_15 
REMARK   10  A    between atoms: N_22  and  C_16 
REMARK   11  A    between atoms: C_19  and  N_35 
REMARK   12  A    between atoms: C_20  and  N_36 
REMARK   13  A    between atoms: P_53  and  O_41 
REMARK   14  A    between atoms: P_54  and  O_43 
REMARK   15  A    between atoms: P_55  and  O_45 
REMARK   16  A    between atoms: P_53  and  O_47 
REMARK   17  A    between atoms: P_54  and  O_48 
REMARK   18  A    between atoms: P_53  and  O_51 
REMARK   19  A    between atoms: P_55  and  O_51 
REMARK   20  A    between atoms: P_54  and  O_52 
REMARK   21  A    between atoms: P_55  and  O_52 
ROOT
HETATM    1  O   UNK N   1      36.373  15.983  10.454  0.00  0.00    -0.631 OA
HETATM    2  P   UNK N   1      34.860  16.259  10.574  0.00  0.00     0.410 P 
ENDROOT
BRANCH   2   3
HETATM    3  O   UNK N   1      33.833  15.447   9.441  0.00  0.00    -0.307 OA
HETATM    4  H   UNK N   1      32.866  15.458   9.518  0.00  0.00     0.222 HD
ENDBRANCH   2   3
BRANCH   2   5
HETATM    5  O   UNK N   1      34.730  14.572  11.157  0.00  0.00    -0.195 OA
BRANCH   5   6
HETATM    6  P   UNK N   1      35.807  14.084  12.486  0.00  0.00     0.401 P 
HETATM    7  O   UNK N   1      34.965  13.372  13.578  0.00  0.00    -0.631 OA
BRANCH   6   8
HETATM    8  O   UNK N   1      36.478  15.486  13.262  0.00  0.00    -0.307 OA
HETATM    9  H   UNK N   1      37.160  15.383  13.945  0.00  0.00     0.222 HD
ENDBRANCH   6   8
BRANCH   6  10
HETATM   10  O   UNK N   1      37.067  12.973  11.991  0.00  0.00    -0.294 OA
BRANCH  10  11
HETATM   11  C   UNK N   1      36.442  11.900  11.336  0.00  0.00     0.215 C 
BRANCH  11  12
HETATM   12  C   UNK N   1      37.355  11.268  10.269  0.00  0.00     0.180 C 
HETATM   13  C   UNK N   1      38.241  12.257   9.501  0.00  0.00     0.182 C 
HETATM   14  C   UNK N   1      37.326  12.662   8.394  0.00  0.00     0.198 C 
HETATM   15  C   UNK N   1      36.595  11.335   8.136  0.00  0.00     0.262 C 
HETATM   16  O   UNK N   1      36.559  10.595   9.337  0.00  0.00    -0.353 OA
BRANCH  13  17
HETATM   17  O   UNK N   1      39.332  11.564   8.964  0.00  0.00    -0.390 OA
HETATM   18  H   UNK N   1      39.653  10.668   8.777  0.00  0.00     0.210 HD
ENDBRANCH  13  17
BRANCH  14  19
HETATM   19  O   UNK N   1      36.440  13.631   8.876  0.00  0.00    -0.388 OA
HETATM   20  H   UNK N   1      35.964  14.111   9.571  0.00  0.00     0.210 HD
ENDBRANCH  14  19
BRANCH  15  21
HETATM   21  N   UNK N   1      35.228  11.574   7.690  0.00  0.00    -0.297 N 
HETATM   22  C   UNK N   1      34.122  11.593   8.481  0.00  0.00     0.188 A 
HETATM   23  N   UNK N   1      33.004  11.883   7.766  0.00  0.00    -0.346 N 
HETATM   24  C   UNK N   1      33.452  12.037   6.506  0.00  0.00     0.122 A 
ATOM     25  HN  UNK N   1      32.046  11.964   8.105  1.00  0.00     0.167 HD
HETATM   26  C   UNK N   1      32.755  12.338   5.354  0.00  0.00     0.131 A 
HETATM   27  C   UNK N   1      34.784  11.852   6.464  0.00  0.00     0.142 A 
HETATM   28  N   UNK N   1      33.462  12.433   4.187  0.00  0.00    -0.337 N 
HETATM   29  C   UNK N   1      34.823  12.238   4.166  0.00  0.00     0.183 A 
ATOM     30  HN  UNK N   1      32.972  12.652   3.320  1.00  0.00     0.168 HD
HETATM   31  N   UNK N   1      35.501  11.945   5.319  0.00  0.00    -0.336 N 
ATOM     32  HN  UNK N   1      36.511  11.802   5.315  1.00  0.00     0.168 HD
BRANCH  26  33
HETATM   33  N   UNK N   1      31.362  12.542   5.374  0.00  0.00    -0.383 N 
HETATM   34  H   UNK N   1      30.952  13.420   5.198  0.00  0.00     0.157 HD
HETATM   35  H   UNK N   1      30.774  11.777   5.573  0.00  0.00     0.157 HD
ENDBRANCH  26  33
ENDBRANCH  15  21
ENDBRANCH  11  12
ENDBRANCH  10  11
ENDBRANCH   6  10
ENDBRANCH   5   6
ENDBRANCH   2   5
BRANCH   2  36
HETATM   36  O   UNK N   1      35.381  16.483   8.948  0.00  0.00    -0.195 OA
BRANCH  36  37
HETATM   37  P   UNK N   1      34.478  17.826   8.299  0.00  0.00     0.401 P 
HETATM   38  O   UNK N   1      35.255  19.139   8.582  0.00  0.00    -0.631 OA
BRANCH  37  39
HETATM   39  O   UNK N   1      32.871  17.952   8.948  0.00  0.00    -0.307 OA
HETATM   40  H   UNK N   1      31.914  18.084   9.043  0.00  0.00     0.222 HD
ENDBRANCH  37  39
BRANCH  37  41
HETATM   41  O   UNK N   1      34.415  17.602   6.582  0.00  0.00    -0.294 OA
BRANCH  41  42
HETATM   42  C   UNK N   1      34.466  16.211   6.417  0.00  0.00     0.215 C 
BRANCH  42  43
HETATM   43  C   UNK N   1      33.240  15.721   5.653  0.00  0.00     0.180 C 
HETATM   44  C   UNK N   1      33.198  16.295   4.246  0.00  0.00     0.182 C 
HETATM   45  C   UNK N   1      31.718  16.518   4.006  0.00  0.00     0.198 C 
HETATM   46  C   UNK N   1      31.090  16.189   5.373  0.00  0.00     0.262 C 
HETATM   47  O   UNK N   1      32.117  16.187   6.327  0.00  0.00    -0.353 OA
BRANCH  44  48
HETATM   48  O   UNK N   1      33.774  15.437   3.305  0.00  0.00    -0.390 OA
HETATM   49  H   UNK N   1      34.232  14.620   3.555  0.00  0.00     0.210 HD
ENDBRANCH  44  48
BRANCH  45  50
HETATM   50  O   UNK N   1      31.515  17.854   3.641  0.00  0.00    -0.388 OA
HETATM   51  H   UNK N   1      30.859  18.491   3.319  0.00  0.00     0.210 HD
ENDBRANCH  45  50
BRANCH  46  52
HETATM   52  N   UNK N   1      30.059  17.126   5.816  0.00  0.00    -0.297 N 
HETATM   53  C   UNK N   1      29.268  17.864   4.992  0.00  0.00     0.188 A 
HETATM   54  N   UNK N   1      28.421  18.661   5.692  0.00  0.00    -0.346 N 
HETATM   55  C   UNK N   1      28.703  18.388   6.977  0.00  0.00     0.122 A 
ATOM     56  HN  UNK N   1      27.729  19.316   5.328  1.00  0.00     0.167 HD
HETATM   57  C   UNK N   1      28.136  18.894   8.128  0.00  0.00     0.131 A 
HETATM   58  C   UNK N   1      29.689  17.472   7.052  0.00  0.00     0.142 A 
HETATM   59  N   UNK N   1      28.593  18.424   9.327  0.00  0.00    -0.337 N 
HETATM   60  C   UNK N   1      29.595  17.482   9.381  0.00  0.00     0.183 A 
ATOM     61  HN  UNK N   1      28.187  18.777  10.193  1.00  0.00     0.168 HD
HETATM   62  N   UNK N   1      30.158  16.998   8.230  0.00  0.00    -0.336 N 
ATOM     63  HN  UNK N   1      30.906  16.306   8.260  1.00  0.00     0.168 HD
BRANCH  57  64
HETATM   64  N   UNK N   1      27.111  19.860   8.074  0.00  0.00    -0.383 N 
HETATM   65  H   UNK N   1      27.083  20.553   7.375  0.00  0.00     0.157 HD
HETATM   66  H   UNK N   1      26.401  19.842   8.756  0.00  0.00     0.157 HD
ENDBRANCH  57  64
ENDBRANCH  46  52
ENDBRANCH  42  43
ENDBRANCH  41  42
ENDBRANCH  37  41
ENDBRANCH  36  37
ENDBRANCH   2  36
TORSDOF 21
ENDMDL
MODEL 7
REMARK VINA RESULT:      -8.2      2.643     11.566
REMARK  21 active torsions:
REMARK  status: ('A' for Active; 'I' for Inactive)
REMARK    1  A    between atoms: C_7  and  C_1 
REMARK    2  A    between atoms: O_47  and  C_1 
REMARK    3  A    between atoms: C_8  and  C_2 
REMARK    4  A    between atoms: O_48  and  C_2 
REMARK    5  A    between atoms: C_11  and  O_37 
REMARK    6  A    between atoms: C_12  and  O_38 
REMARK    7  A    between atoms: C_13  and  O_39 
REMARK    8  A    between atoms: C_14  and  O_40 
REMARK    9  A    between atoms: N_21  and  C_15 
REMARK   10  A    between atoms: N_22  and  C_16 
REMARK   11  A    between atoms: C_19  and  N_35 
REMARK   12  A    between atoms: C_20  and  N_36 
REMARK   13  A    between atoms: P_53  and  O_41 
REMARK   14  A    between atoms: P_54  and  O_43 
REMARK   15  A    between atoms: P_55  and  O_45 
REMARK   16  A    between atoms: P_53  and  O_47 
REMARK   17  A    between atoms: P_54  and  O_48 
REMARK   18  A    between atoms: P_53  and  O_51 
REMARK   19  A    between atoms: P_55  and  O_51 
REMARK   20  A    between atoms: P_54  and  O_52 
REMARK   21  A    between atoms: P_55  and  O_52 
ROOT
HETATM    1  O   UNK N   1      36.400  14.258   7.631  0.00  0.00    -0.631 OA
HETATM    2  P   UNK N   1      36.490  13.910   9.131  0.00  0.00     0.410 P 
ENDROOT
BRANCH   2   3
HETATM    3  O   UNK N   1      35.010  13.464   9.913  0.00  0.00    -0.307 OA
HETATM    4  H   UNK N   1      34.168  13.904   9.717  0.00  0.00     0.222 HD
ENDBRANCH   2   3
BRANCH   2   5
HETATM    5  O   UNK N   1      36.163  12.224   8.627  0.00  0.00    -0.195 OA
BRANCH   5   6
HETATM    6  P   UNK N   1      35.831  11.039   9.910  0.00  0.00     0.401 P 
HETATM    7  O   UNK N   1      36.291   9.637   9.430  0.00  0.00    -0.631 OA
BRANCH   6   8
HETATM    8  O   UNK N   1      34.119  10.899  10.171  0.00  0.00    -0.307 OA
HETATM    9  H   UNK N   1      33.552  11.684  10.110  0.00  0.00     0.222 HD
ENDBRANCH   6   8
BRANCH   6  10
HETATM   10  O   UNK N   1      36.671  11.380  11.410  0.00  0.00    -0.294 OA
BRANCH  10  11
HETATM   11  C   UNK N   1      35.721  11.321  12.441  0.00  0.00     0.215 C 
BRANCH  11  12
HETATM   12  C   UNK N   1      35.404  12.716  13.009  0.00  0.00     0.180 C 
HETATM   13  C   UNK N   1      36.622  13.520  13.482  0.00  0.00     0.182 C 
HETATM   14  C   UNK N   1      36.752  13.042  14.889  0.00  0.00     0.198 C 
HETATM   15  C   UNK N   1      35.272  12.872  15.266  0.00  0.00     0.262 C 
HETATM   16  O   UNK N   1      34.538  12.573  14.098  0.00  0.00    -0.353 OA
BRANCH  13  17
HETATM   17  O   UNK N   1      36.291  14.880  13.489  0.00  0.00    -0.390 OA
HETATM   18  H   UNK N   1      36.378  15.692  12.967  0.00  0.00     0.210 HD
ENDBRANCH  13  17
BRANCH  14  19
HETATM   19  O   UNK N   1      37.408  11.806  14.885  0.00  0.00    -0.388 OA
HETATM   20  H   UNK N   1      38.004  11.135  14.518  0.00  0.00     0.210 HD
ENDBRANCH  14  19
BRANCH  15  21
HETATM   21  N   UNK N   1      35.101  11.783  16.220  0.00  0.00    -0.297 N 
HETATM   22  C   UNK N   1      34.902  10.474  15.910  0.00  0.00     0.188 A 
HETATM   23  N   UNK N   1      34.820   9.706  17.028  0.00  0.00    -0.346 N 
HETATM   24  C   UNK N   1      34.969  10.581  18.039  0.00  0.00     0.122 A 
ATOM     25  HN  UNK N   1      34.678   8.698  17.087  1.00  0.00     0.167 HD
HETATM   26  C   UNK N   1      34.968  10.363  19.401  0.00  0.00     0.131 A 
HETATM   27  C   UNK N   1      35.137  11.824  17.552  0.00  0.00     0.142 A 
HETATM   28  N   UNK N   1      35.136  11.444  20.221  0.00  0.00    -0.337 N 
HETATM   29  C   UNK N   1      35.305  12.706  19.702  0.00  0.00     0.183 A 
ATOM     30  HN  UNK N   1      35.138  11.311  21.233  1.00  0.00     0.168 HD
HETATM   31  N   UNK N   1      35.309  12.906  18.349  0.00  0.00    -0.336 N 
ATOM     32  HN  UNK N   1      35.437  13.838  17.953  1.00  0.00     0.168 HD
BRANCH  26  33
HETATM   33  N   UNK N   1      34.800   9.070  19.934  0.00  0.00    -0.383 N 
HETATM   34  H   UNK N   1      34.184   8.410  19.538  0.00  0.00     0.157 HD
HETATM   35  H   UNK N   1      35.317   8.815  20.732  0.00  0.00     0.157 HD
ENDBRANCH  26  33
ENDBRANCH  15  21
ENDBRANCH  11  12
ENDBRANCH  10  11
ENDBRANCH   6  10
ENDBRANCH   5   6
ENDBRANCH   2   5
BRANCH   2  36
HETATM   36  O   UNK N   1      35.239  15.061   8.859  0.00  0.00    -0.195 OA
BRANCH  36  37
HETATM   37  P   UNK N   1      35.136  16.056  10.287  0.00  0.00     0.401 P 
HETATM   38  O   UNK N   1      36.558  16.230  10.885  0.00  0.00    -0.631 OA
BRANCH  37  39
HETATM   39  O   UNK N   1      34.073  15.409  11.501  0.00  0.00    -0.307 OA
HETATM   40  H   UNK N   1      33.545  14.807  12.049  0.00  0.00     0.222 HD
ENDBRANCH  37  39
BRANCH  37  41
HETATM   41  O   UNK N   1      34.579  17.613   9.772  0.00  0.00    -0.294 OA
BRANCH  41  42
HETATM   42  C   UNK N   1      34.933  17.672   8.417  0.00  0.00     0.215 C 
BRANCH  42  43
HETATM   43  C   UNK N   1      33.722  18.037   7.565  0.00  0.00     0.180 C 
HETATM   44  C   UNK N   1      32.507  17.205   7.944  0.00  0.00     0.182 C 
HETATM   45  C   UNK N   1      31.814  16.977   6.616  0.00  0.00     0.198 C 
HETATM   46  C   UNK N   1      32.803  17.576   5.600  0.00  0.00     0.262 C 
HETATM   47  O   UNK N   1      34.037  17.736   6.245  0.00  0.00    -0.353 OA
BRANCH  44  48
HETATM   48  O   UNK N   1      31.690  17.854   8.875  0.00  0.00    -0.390 OA
HETATM   49  H   UNK N   1      30.797  18.166   8.659  0.00  0.00     0.210 HD
ENDBRANCH  44  48
BRANCH  45  50
HETATM   50  O   UNK N   1      31.636  15.602   6.429  0.00  0.00    -0.388 OA
HETATM   51  H   UNK N   1      30.974  14.901   6.317  0.00  0.00     0.210 HD
ENDBRANCH  45  50
BRANCH  46  52
HETATM   52  N   UNK N   1      33.017  16.767   4.401  0.00  0.00    -0.297 N 
HETATM   53  C   UNK N   1      32.446  17.001   3.189  0.00  0.00     0.188 A 
HETATM   54  N   UNK N   1      32.814  16.067   2.274  0.00  0.00    -0.346 N 
HETATM   55  C   UNK N   1      33.639  15.253   2.952  0.00  0.00     0.122 A 
ATOM     56  HN  UNK N   1      32.530  16.000   1.297  1.00  0.00     0.167 HD
HETATM   57  C   UNK N   1      34.328  14.139   2.517  0.00  0.00     0.131 A 
HETATM   58  C   UNK N   1      33.758  15.669   4.228  0.00  0.00     0.142 A 
HETATM   59  N   UNK N   1      35.133  13.495   3.413  0.00  0.00    -0.337 N 
HETATM   60  C   UNK N   1      35.247  13.941   4.711  0.00  0.00     0.183 A 
ATOM     61  HN  UNK N   1      35.658  12.672   3.117  1.00  0.00     0.168 HD
HETATM   62  N   UNK N   1      34.547  15.041   5.131  0.00  0.00    -0.336 N 
ATOM     63  HN  UNK N   1      34.618  15.375   6.092  1.00  0.00     0.168 HD
BRANCH  57  64
HETATM   64  N   UNK N   1      34.211  13.680   1.190  0.00  0.00    -0.383 N 
HETATM   65  H   UNK N   1      33.755  12.836   0.967  0.00  0.00     0.157 HD
HETATM   66  H   UNK N   1      34.597  14.220   0.462  0.00  0.00     0.157 HD
ENDBRANCH  57  64
ENDBRANCH  46  52
ENDBRANCH  42  43
ENDBRANCH  41  42
ENDBRANCH  37  41
ENDBRANCH  36  37
ENDBRANCH   2  36
TORSDOF 21
ENDMDL
MODEL 8
REMARK VINA RESULT:      -8.2      9.836     13.682
REMARK  21 active torsions:
REMARK  status: ('A' for Active; 'I' for Inactive)
REMARK    1  A    between atoms: C_7  and  C_1 
REMARK    2  A    between atoms: O_47  and  C_1 
REMARK    3  A    between atoms: C_8  and  C_2 
REMARK    4  A    between atoms: O_48  and  C_2 
REMARK    5  A    between atoms: C_11  and  O_37 
REMARK    6  A    between atoms: C_12  and  O_38 
REMARK    7  A    between atoms: C_13  and  O_39 
REMARK    8  A    between atoms: C_14  and  O_40 
REMARK    9  A    between atoms: N_21  and  C_15 
REMARK   10  A    between atoms: N_22  and  C_16 
REMARK   11  A    between atoms: C_19  and  N_35 
REMARK   12  A    between atoms: C_20  and  N_36 
REMARK   13  A    between atoms: P_53  and  O_41 
REMARK   14  A    between atoms: P_54  and  O_43 
REMARK   15  A    between atoms: P_55  and  O_45 
REMARK   16  A    between atoms: P_53  and  O_47 
REMARK   17  A    between atoms: P_54  and  O_48 
REMARK   18  A    between atoms: P_53  and  O_51 
REMARK   19  A    between atoms: P_55  and  O_51 
REMARK   20  A    between atoms: P_54  and  O_52 
REMARK   21  A    between atoms: P_55  and  O_52 
ROOT
HETATM    1  O   UNK N   1      21.425  16.505   2.771  0.00  0.00    -0.631 OA
HETATM    2  P   UNK N   1      20.476  17.195   3.773  0.00  0.00     0.410 P 
ENDROOT
BRANCH   2   3
HETATM    3  O   UNK N   1      19.029  17.885   3.118  0.00  0.00    -0.307 OA
HETATM    4  H   UNK N   1      18.627  18.689   3.483  0.00  0.00     0.222 HD
ENDBRANCH   2   3
BRANCH   2   5
HETATM    5  O   UNK N   1      19.372  15.818   3.476  0.00  0.00    -0.195 OA
BRANCH   5   6
HETATM    6  P   UNK N   1      19.570  14.378   4.499  0.00  0.00     0.401 P 
HETATM    7  O   UNK N   1      20.392  13.317   3.720  0.00  0.00    -0.631 OA
BRANCH   6   8
HETATM    8  O   UNK N   1      18.028  13.638   4.802  0.00  0.00    -0.307 OA
HETATM    9  H   UNK N   1      17.491  13.927   5.556  0.00  0.00     0.222 HD
ENDBRANCH   6   8
BRANCH   6  10
HETATM   10  O   UNK N   1      20.421  14.698   5.997  0.00  0.00    -0.294 OA
BRANCH  10  11
HETATM   11  C   UNK N   1      21.421  13.722   6.125  0.00  0.00     0.215 C 
BRANCH  11  12
HETATM   12  C   UNK N   1      22.827  14.307   5.894  0.00  0.00     0.180 C 
HETATM   13  C   UNK N   1      23.818  13.366   5.198  0.00  0.00     0.182 C 
HETATM   14  C   UNK N   1      24.381  12.628   6.366  0.00  0.00     0.198 C 
HETATM   15  C   UNK N   1      24.406  13.747   7.420  0.00  0.00     0.262 C 
HETATM   16  O   UNK N   1      23.374  14.665   7.131  0.00  0.00    -0.353 OA
BRANCH  13  17
HETATM   17  O   UNK N   1      24.831  14.132   4.609  0.00  0.00    -0.390 OA
HETATM   18  H   UNK N   1      25.449  14.140   3.863  0.00  0.00     0.210 HD
ENDBRANCH  13  17
BRANCH  14  19
HETATM   19  O   UNK N   1      23.484  11.619   6.735  0.00  0.00    -0.388 OA
HETATM   20  H   UNK N   1      22.936  10.836   6.574  0.00  0.00     0.210 HD
ENDBRANCH  14  19
BRANCH  15  21
HETATM   21  N   UNK N   1      24.193  13.206   8.757  0.00  0.00    -0.297 N 
HETATM   22  C   UNK N   1      25.166  12.825   9.628  0.00  0.00     0.188 A 
HETATM   23  N   UNK N   1      24.640  12.401  10.806  0.00  0.00    -0.346 N 
HETATM   24  C   UNK N   1      23.311  12.527  10.636  0.00  0.00     0.122 A 
ATOM     25  HN  UNK N   1      25.137  12.064  11.630  1.00  0.00     0.167 HD
HETATM   26  C   UNK N   1      22.279  12.240  11.506  0.00  0.00     0.131 A 
HETATM   27  C   UNK N   1      23.047  13.009   9.408  0.00  0.00     0.142 A 
HETATM   28  N   UNK N   1      21.001  12.457  11.074  0.00  0.00    -0.337 N 
HETATM   29  C   UNK N   1      20.753  12.950   9.814  0.00  0.00     0.183 A 
ATOM     30  HN  UNK N   1      20.219  12.252  11.697  1.00  0.00     0.168 HD
HETATM   31  N   UNK N   1      21.787  13.235   8.964  0.00  0.00    -0.336 N 
ATOM     32  HN  UNK N   1      21.615  13.604   8.029  1.00  0.00     0.168 HD
BRANCH  26  33
HETATM   33  N   UNK N   1      22.532  11.739  12.798  0.00  0.00    -0.383 N 
HETATM   34  H   UNK N   1      22.043  10.971  13.174  0.00  0.00     0.157 HD
HETATM   35  H   UNK N   1      23.224  12.174  13.348  0.00  0.00     0.157 HD
ENDBRANCH  26  33
ENDBRANCH  15  21
ENDBRANCH  11  12
ENDBRANCH  10  11
ENDBRANCH   6  10
ENDBRANCH   5   6
ENDBRANCH   2   5
BRANCH   2  36
HETATM   36  O   UNK N   1      20.798  18.236   2.440  0.00  0.00    -0.195 OA
BRANCH  36  37
HETATM   37  P   UNK N   1      21.485  19.702   3.088  0.00  0.00     0.401 P 
HETATM   38  O   UNK N   1      20.411  20.430   3.939  0.00  0.00    -0.631 OA
BRANCH  37  39
HETATM   39  O   UNK N   1      22.083  20.782   1.863  0.00  0.00    -0.307 OA
HETATM   40  H   UNK N   1      22.529  21.146   1.082  0.00  0.00     0.222 HD
ENDBRANCH  37  39
BRANCH  37  41
HETATM   41  O   UNK N   1      22.772  19.226   4.146  0.00  0.00    -0.294 OA
BRANCH  41  42
HETATM   42  C   UNK N   1      23.906  19.847   3.606  0.00  0.00     0.215 C 
BRANCH  42  43
HETATM   43  C   UNK N   1      25.091  18.887   3.611  0.00  0.00     0.180 C 
HETATM   44  C   UNK N   1      24.683  17.504   4.093  0.00  0.00     0.182 C 
HETATM   45  C   UNK N   1      25.894  17.037   4.875  0.00  0.00     0.198 C 
HETATM   46  C   UNK N   1      26.804  18.279   4.883  0.00  0.00     0.262 C 
HETATM   47  O   UNK N   1      26.025  19.384   4.513  0.00  0.00    -0.353 OA
BRANCH  44  48
HETATM   48  O   UNK N   1      24.359  16.648   3.037  0.00  0.00    -0.390 OA
HETATM   49  H   UNK N   1      24.353  16.938   2.112  0.00  0.00     0.210 HD
ENDBRANCH  44  48
BRANCH  45  50
HETATM   50  O   UNK N   1      25.488  16.675   6.164  0.00  0.00    -0.388 OA
HETATM   51  H   UNK N   1      24.794  16.229   6.675  0.00  0.00     0.210 HD
ENDBRANCH  45  50
BRANCH  46  52
HETATM   52  N   UNK N   1      27.430  18.574   6.170  0.00  0.00    -0.297 N 
HETATM   53  C   UNK N   1      27.021  19.542   7.034  0.00  0.00     0.188 A 
HETATM   54  N   UNK N   1      27.812  19.595   8.136  0.00  0.00    -0.346 N 
HETATM   55  C   UNK N   1      28.719  18.625   7.935  0.00  0.00     0.122 A 
ATOM     56  HN  UNK N   1      27.736  20.227   8.934  1.00  0.00     0.167 HD
HETATM   57  C   UNK N   1      29.760  18.214   8.742  0.00  0.00     0.131 A 
HETATM   58  C   UNK N   1      28.494  18.015   6.755  0.00  0.00     0.142 A 
HETATM   59  N   UNK N   1      30.530  17.171   8.311  0.00  0.00    -0.337 N 
HETATM   60  C   UNK N   1      30.278  16.556   7.105  0.00  0.00     0.183 A 
ATOM     61  HN  UNK N   1      31.302  16.843   8.890  1.00  0.00     0.168 HD
HETATM   62  N   UNK N   1      29.249  16.984   6.309  0.00  0.00    -0.336 N 
ATOM     63  HN  UNK N   1      29.058  16.541   5.410  1.00  0.00     0.168 HD
BRANCH  57  64
HETATM   64  N   UNK N   1      30.020  18.843   9.976  0.00  0.00    -0.383 N 
HETATM   65  H   UNK N   1      30.327  18.340  10.765  0.00  0.00     0.157 HD
HETATM   66  H   UNK N   1      29.892  19.817  10.053  0.00  0.00     0.157 HD
ENDBRANCH  57  64
ENDBRANCH  46  52
ENDBRANCH  42  43
ENDBRANCH  41  42
ENDBRANCH  37  41
ENDBRANCH  36  37
ENDBRANCH   2  36
TORSDOF 21
ENDMDL
MODEL 9
REMARK VINA RESULT:      -8.1      7.588     11.695
REMARK  21 active torsions:
REMARK  status: ('A' for Active; 'I' for Inactive)
REMARK    1  A    between atoms: C_7  and  C_1 
REMARK    2  A    between atoms: O_47  and  C_1 
REMARK    3  A    between atoms: C_8  and  C_2 
REMARK    4  A    between atoms: O_48  and  C_2 
REMARK    5  A    between atoms: C_11  and  O_37 
REMARK    6  A    between atoms: C_12  and  O_38 
REMARK    7  A    between atoms: C_13  and  O_39 
REMARK    8  A    between atoms: C_14  and  O_40 
REMARK    9  A    between atoms: N_21  and  C_15 
REMARK   10  A    between atoms: N_22  and  C_16 
REMARK   11  A    between atoms: C_19  and  N_35 
REMARK   12  A    between atoms: C_20  and  N_36 
REMARK   13  A    between atoms: P_53  and  O_41 
REMARK   14  A    between atoms: P_54  and  O_43 
REMARK   15  A    between atoms: P_55  and  O_45 
REMARK   16  A    between atoms: P_53  and  O_47 
REMARK   17  A    between atoms: P_54  and  O_48 
REMARK   18  A    between atoms: P_53  and  O_51 
REMARK   19  A    between atoms: P_55  and  O_51 
REMARK   20  A    between atoms: P_54  and  O_52 
REMARK   21  A    between atoms: P_55  and  O_52 
ROOT
HETATM    1  O   UNK N   1      24.984  20.242   4.689  0.00  0.00    -0.631 OA
HETATM    2  P   UNK N   1      25.166  19.307   3.476  0.00  0.00     0.410 P 
ENDROOT
BRANCH   2   3
HETATM    3  O   UNK N   1      24.518  17.708   3.628  0.00  0.00    -0.307 OA
HETATM    4  H   UNK N   1      24.287  17.167   2.856  0.00  0.00     0.222 HD
ENDBRANCH   2   3
BRANCH   2   5
HETATM    5  O   UNK N   1      23.399  19.475   3.246  0.00  0.00    -0.195 OA
BRANCH   5   6
HETATM    6  P   UNK N   1      22.343  18.581   4.363  0.00  0.00     0.401 P 
HETATM    7  O   UNK N   1      21.103  19.456   4.690  0.00  0.00    -0.631 OA
BRANCH   6   8
HETATM    8  O   UNK N   1      23.147  18.335   5.883  0.00  0.00    -0.307 OA
HETATM    9  H   UNK N   1      23.565  19.083   6.338  0.00  0.00     0.222 HD
ENDBRANCH   6   8
BRANCH   6  10
HETATM   10  O   UNK N   1      21.755  17.066   3.708  0.00  0.00    -0.294 OA
BRANCH  10  11
HETATM   11  C   UNK N   1      21.989  16.076   4.675  0.00  0.00     0.215 C 
BRANCH  11  12
HETATM   12  C   UNK N   1      20.695  15.341   5.068  0.00  0.00     0.180 C 
HETATM   13  C   UNK N   1      19.784  16.100   6.041  0.00  0.00     0.182 C 
HETATM   14  C   UNK N   1      20.352  15.678   7.354  0.00  0.00     0.198 C 
HETATM   15  C   UNK N   1      20.737  14.224   7.039  0.00  0.00     0.262 C 
HETATM   16  O   UNK N   1      21.033  14.121   5.663  0.00  0.00    -0.353 OA
BRANCH  13  17
HETATM   17  O   UNK N   1      18.482  15.601   5.924  0.00  0.00    -0.390 OA
HETATM   18  H   UNK N   1      17.634  15.555   6.392  0.00  0.00     0.210 HD
ENDBRANCH  13  17
BRANCH  14  19
HETATM   19  O   UNK N   1      21.491  16.447   7.618  0.00  0.00    -0.388 OA
HETATM   20  H   UNK N   1      22.443  16.631   7.605  0.00  0.00     0.210 HD
ENDBRANCH  14  19
BRANCH  15  21
HETATM   21  N   UNK N   1      21.912  13.821   7.803  0.00  0.00    -0.297 N 
HETATM   22  C   UNK N   1      23.206  13.956   7.408  0.00  0.00     0.188 A 
HETATM   23  N   UNK N   1      24.065  13.519   8.365  0.00  0.00    -0.346 N 
HETATM   24  C   UNK N   1      23.263  13.105   9.362  0.00  0.00     0.122 A 
ATOM     25  HN  UNK N   1      25.085  13.507   8.335  1.00  0.00     0.167 HD
HETATM   26  C   UNK N   1      23.589  12.561  10.588  0.00  0.00     0.131 A 
HETATM   27  C   UNK N   1      21.974  13.287   9.023  0.00  0.00     0.142 A 
HETATM   28  N   UNK N   1      22.565  12.216  11.425  0.00  0.00    -0.337 N 
HETATM   29  C   UNK N   1      21.253  12.409  11.058  0.00  0.00     0.183 A 
ATOM     30  HN  UNK N   1      22.777  11.809  12.337  1.00  0.00     0.168 HD
HETATM   31  N   UNK N   1      20.946  12.955   9.841  0.00  0.00    -0.336 N 
ATOM     32  HN  UNK N   1      19.978  13.106   9.559  1.00  0.00     0.168 HD
BRANCH  26  33
HETATM   33  N   UNK N   1      24.931  12.365  10.967  0.00  0.00    -0.383 N 
HETATM   34  H   UNK N   1      25.687  12.611  10.385  0.00  0.00     0.157 HD
HETATM   35  H   UNK N   1      25.121  11.968  11.848  0.00  0.00     0.157 HD
ENDBRANCH  26  33
ENDBRANCH  15  21
ENDBRANCH  11  12
ENDBRANCH  10  11
ENDBRANCH   6  10
ENDBRANCH   5   6
ENDBRANCH   2   5
BRANCH   2  36
HETATM   36  O   UNK N   1      25.692  18.526   4.917  0.00  0.00    -0.195 OA
BRANCH  36  37
HETATM   37  P   UNK N   1      27.422  18.729   5.009  0.00  0.00     0.401 P 
HETATM   38  O   UNK N   1      27.792  19.278   6.413  0.00  0.00    -0.631 OA
BRANCH  37  39
HETATM   39  O   UNK N   1      28.056  19.790   3.787  0.00  0.00    -0.307 OA
HETATM   40  H   UNK N   1      28.407  20.145   2.955  0.00  0.00     0.222 HD
ENDBRANCH  37  39
BRANCH  37  41
HETATM   41  O   UNK N   1      28.119  17.151   4.852  0.00  0.00    -0.294 OA
BRANCH  41  42
HETATM   42  C   UNK N   1      28.227  16.961   3.467  0.00  0.00     0.215 C 
BRANCH  42  43
HETATM   43  C   UNK N   1      29.598  16.396   3.113  0.00  0.00     0.180 C 
HETATM   44  C   UNK N   1      29.672  14.903   3.394  0.00  0.00     0.182 C 
HETATM   45  C   UNK N   1      31.095  14.711   3.879  0.00  0.00     0.198 C 
HETATM   46  C   UNK N   1      31.630  16.152   3.969  0.00  0.00     0.262 C 
HETATM   47  O   UNK N   1      30.530  17.021   3.933  0.00  0.00    -0.353 OA
BRANCH  44  48
HETATM   48  O   UNK N   1      29.379  14.135   2.263  0.00  0.00    -0.390 OA
HETATM   49  H   UNK N   1      28.659  14.357   1.653  0.00  0.00     0.210 HD
ENDBRANCH  44  48
BRANCH  45  50
HETATM   50  O   UNK N   1      31.066  14.081   5.128  0.00  0.00    -0.388 OA
HETATM   51  H   UNK N   1      31.548  13.962   5.962  0.00  0.00     0.210 HD
ENDBRANCH  45  50
BRANCH  46  52
HETATM   52  N   UNK N   1      32.402  16.446   5.175  0.00  0.00    -0.297 N 
HETATM   53  C   UNK N   1      33.760  16.414   5.260  0.00  0.00     0.188 A 
HETATM   54  N   UNK N   1      34.190  16.709   6.513  0.00  0.00    -0.346 N 
HETATM   55  C   UNK N   1      33.059  16.935   7.202  0.00  0.00     0.122 A 
ATOM     56  HN  UNK N   1      35.151  16.750   6.854  1.00  0.00     0.167 HD
HETATM   57  C   UNK N   1      32.892  17.294   8.524  0.00  0.00     0.131 A 
HETATM   58  C   UNK N   1      31.987  16.773   6.402  0.00  0.00     0.142 A 
HETATM   59  N   UNK N   1      31.618  17.492   8.977  0.00  0.00    -0.337 N 
HETATM   60  C   UNK N   1      30.537  17.329   8.141  0.00  0.00     0.183 A 
ATOM     61  HN  UNK N   1      31.466  17.763   9.948  1.00  0.00     0.168 HD
HETATM   62  N   UNK N   1      30.718  16.959   6.834  0.00  0.00    -0.336 N 
ATOM     63  HN  UNK N   1      29.923  16.828   6.209  1.00  0.00     0.168 HD
BRANCH  57  64
HETATM   64  N   UNK N   1      33.998  17.460   9.381  0.00  0.00    -0.383 N 
HETATM   65  H   UNK N   1      34.845  16.977   9.242  0.00  0.00     0.157 HD
HETATM   66  H   UNK N   1      33.922  18.077  10.145  0.00  0.00     0.157 HD
ENDBRANCH  57  64
ENDBRANCH  46  52
ENDBRANCH  42  43
ENDBRANCH  41  42
ENDBRANCH  37  41
ENDBRANCH  36  37
ENDBRANCH   2  36
TORSDOF 21
ENDMDL
