MODEL 1
REMARK VINA RESULT:      -5.6      0.000      0.000
REMARK  4 active torsions:
REMARK  status: ('A' for Active; 'I' for Inactive)
REMARK    1  A    between atoms: C_15  and  C_4 
REMARK    2  A    between atoms: C_16  and  C_14 
REMARK    3  A    between atoms: O_19  and  C_15 
REMARK    4  A    between atoms: C_16  and  O_19 
ROOT
HETATM    1  C   UNK N   1      24.795  26.973  -5.901  0.00  0.00     0.015 C 
HETATM    2  C   UNK N   1      26.689  29.868  -3.431  0.00  0.00     0.309 C 
HETATM    3  C   UNK N   1      27.797  27.079  -5.643  0.00  0.00     0.074 C 
HETATM    4  C   UNK N   1      27.869  28.292  -4.705  0.00  0.00     0.275 C 
HETATM    5  C   UNK N   1      25.735  27.751  -3.741  0.00  0.00     0.279 C 
HETATM    6  C   UNK N   1      25.573  26.534  -4.659  0.00  0.00     0.050 C 
HETATM    7  C   UNK N   1      26.982  25.946  -4.990  0.00  0.00     0.104 C 
HETATM    8  N   UNK N   1      26.529  28.794  -4.395  0.00  0.00     0.084 N 
ENDROOT
BRANCH   7   9
HETATM    9  C   UNK N   1      26.909  24.744  -5.949  0.00  0.00    -0.023 A 
HETATM   10  C   UNK N   1      27.883  24.572  -6.950  0.00  0.00     0.010 A 
HETATM   11  C   UNK N   1      27.815  23.500  -7.844  0.00  0.00     0.001 A 
HETATM   12  C   UNK N   1      26.763  22.589  -7.763  0.00  0.00     0.000 A 
HETATM   13  C   UNK N   1      25.777  22.750  -6.788  0.00  0.00     0.001 A 
HETATM   14  C   UNK N   1      25.849  23.819  -5.890  0.00  0.00     0.010 A 
ENDBRANCH   7   9
BRANCH   7  15
HETATM   15  O   UNK N   1      27.567  25.627  -3.760  0.00  0.00    -0.305 OA
BRANCH  15  16
HETATM   16  C   UNK N   1      27.747  24.409  -3.177  0.00  0.00     0.259 C 
HETATM   17  O   UNK N   1      26.845  23.862  -2.567  0.00  0.00    -0.265 OA
BRANCH  16  18
HETATM   18  C   UNK N   1      29.091  23.747  -3.212  0.00  0.00     0.106 C 
HETATM   19  C   UNK N   1      30.202  24.720  -3.567  0.00  0.00     0.015 C 
ENDBRANCH  16  18
ENDBRANCH  15  16
ENDBRANCH   7  15
TORSDOF 4
ENDMDL
MODEL 2
REMARK VINA RESULT:      -5.4     22.831     25.722
REMARK  4 active torsions:
REMARK  status: ('A' for Active; 'I' for Inactive)
REMARK    1  A    between atoms: C_15  and  C_4 
REMARK    2  A    between atoms: C_16  and  C_14 
REMARK    3  A    between atoms: O_19  and  C_15 
REMARK    4  A    between atoms: C_16  and  O_19 
ROOT
HETATM    1  C   UNK N   1      38.295  11.679  14.484  0.00  0.00     0.015 C 
HETATM    2  C   UNK N   1      37.380  13.252  10.643  0.00  0.00     0.309 C 
HETATM    3  C   UNK N   1      36.186  13.805  14.130  0.00  0.00     0.074 C 
HETATM    4  C   UNK N   1      36.340  13.982  12.613  0.00  0.00     0.275 C 
HETATM    5  C   UNK N   1      37.023  11.692  12.354  0.00  0.00     0.279 C 
HETATM    6  C   UNK N   1      36.918  11.437  13.862  0.00  0.00     0.050 C 
HETATM    7  C   UNK N   1      35.802  12.350  14.462  0.00  0.00     0.104 C 
HETATM    8  N   UNK N   1      37.374  13.089  12.085  0.00  0.00     0.084 N 
ENDROOT
BRANCH   7   9
HETATM    9  C   UNK N   1      35.664  12.188  15.987  0.00  0.00    -0.023 A 
HETATM   10  C   UNK N   1      35.889  10.938  16.593  0.00  0.00     0.010 A 
HETATM   11  C   UNK N   1      35.742  10.770  17.973  0.00  0.00     0.001 A 
HETATM   12  C   UNK N   1      35.350  11.845  18.769  0.00  0.00     0.000 A 
HETATM   13  C   UNK N   1      35.105  13.090  18.186  0.00  0.00     0.001 A 
HETATM   14  C   UNK N   1      35.259  13.258  16.807  0.00  0.00     0.010 A 
ENDBRANCH   7   9
BRANCH   7  15
HETATM   15  O   UNK N   1      34.628  12.030  13.772  0.00  0.00    -0.305 OA
BRANCH  15  16
HETATM   16  C   UNK N   1      33.862  10.905  13.841  0.00  0.00     0.259 C 
HETATM   17  O   UNK N   1      33.007  10.775  14.699  0.00  0.00    -0.265 OA
BRANCH  16  18
HETATM   18  C   UNK N   1      34.110   9.765  12.900  0.00  0.00     0.106 C 
HETATM   19  C   UNK N   1      33.668  10.084  11.481  0.00  0.00     0.015 C 
ENDBRANCH  16  18
ENDBRANCH  15  16
ENDBRANCH   7  15
TORSDOF 4
ENDMDL
MODEL 3
REMARK VINA RESULT:      -5.4     13.640     16.341
REMARK  4 active torsions:
REMARK  status: ('A' for Active; 'I' for Inactive)
REMARK    1  A    between atoms: C_15  and  C_4 
REMARK    2  A    between atoms: C_16  and  C_14 
REMARK    3  A    between atoms: O_19  and  C_15 
REMARK    4  A    between atoms: C_16  and  O_19 
ROOT
HETATM    1  C   UNK N   1      32.362  15.169   9.280  0.00  0.00     0.015 C 
HETATM    2  C   UNK N   1      35.612  14.890   6.557  0.00  0.00     0.309 C 
HETATM    3  C   UNK N   1      33.039  17.444   7.421  0.00  0.00     0.074 C 
HETATM    4  C   UNK N   1      34.262  16.796   6.759  0.00  0.00     0.275 C 
HETATM    5  C   UNK N   1      33.347  14.597   7.077  0.00  0.00     0.279 C 
HETATM    6  C   UNK N   1      32.103  15.160   7.773  0.00  0.00     0.050 C 
HETATM    7  C   UNK N   1      31.786  16.576   7.194  0.00  0.00     0.104 C 
HETATM    8  N   UNK N   1      34.508  15.461   7.307  0.00  0.00     0.084 N 
ENDROOT
BRANCH   7   9
HETATM    9  C   UNK N   1      30.571  17.234   7.875  0.00  0.00    -0.023 A 
HETATM   10  C   UNK N   1      30.755  18.256   8.824  0.00  0.00     0.010 A 
HETATM   11  C   UNK N   1      29.664  18.844   9.471  0.00  0.00     0.001 A 
HETATM   12  C   UNK N   1      28.370  18.408   9.190  0.00  0.00     0.000 A 
HETATM   13  C   UNK N   1      28.166  17.384   8.264  0.00  0.00     0.001 A 
HETATM   14  C   UNK N   1      29.257  16.801   7.614  0.00  0.00     0.010 A 
ENDBRANCH   7   9
BRANCH   7  15
HETATM   15  O   UNK N   1      31.609  16.401   5.817  0.00  0.00    -0.305 OA
BRANCH  15  16
HETATM   16  C   UNK N   1      31.414  17.335   4.844  0.00  0.00     0.259 C 
HETATM   17  O   UNK N   1      30.327  17.859   4.679  0.00  0.00    -0.265 OA
BRANCH  16  18
HETATM   18  C   UNK N   1      32.527  17.684   3.902  0.00  0.00     0.106 C 
HETATM   19  C   UNK N   1      32.983  16.489   3.082  0.00  0.00     0.015 C 
ENDBRANCH  16  18
ENDBRANCH  15  16
ENDBRANCH   7  15
TORSDOF 4
ENDMDL
MODEL 4
REMARK VINA RESULT:      -5.4      1.722      4.684
REMARK  4 active torsions:
REMARK  status: ('A' for Active; 'I' for Inactive)
REMARK    1  A    between atoms: C_15  and  C_4 
REMARK    2  A    between atoms: C_16  and  C_14 
REMARK    3  A    between atoms: O_19  and  C_15 
REMARK    4  A    between atoms: C_16  and  O_19 
ROOT
HETATM    1  C   UNK N   1      26.746  26.250  -7.563  0.00  0.00     0.015 C 
HETATM    2  C   UNK N   1      26.075  22.068  -7.917  0.00  0.00     0.309 C 
HETATM    3  C   UNK N   1      25.638  24.648  -5.262  0.00  0.00     0.074 C 
HETATM    4  C   UNK N   1      25.584  23.291  -5.978  0.00  0.00     0.275 C 
HETATM    5  C   UNK N   1      27.454  23.881  -7.367  0.00  0.00     0.279 C 
HETATM    6  C   UNK N   1      27.562  25.267  -6.722  0.00  0.00     0.050 C 
HETATM    7  C   UNK N   1      27.083  25.182  -5.237  0.00  0.00     0.104 C 
HETATM    8  N   UNK N   1      26.068  23.407  -7.355  0.00  0.00     0.084 N 
ENDROOT
BRANCH   7   9
HETATM    9  C   UNK N   1      27.117  26.548  -4.527  0.00  0.00    -0.023 A 
HETATM   10  C   UNK N   1      25.926  27.142  -4.070  0.00  0.00     0.010 A 
HETATM   11  C   UNK N   1      25.937  28.393  -3.448  0.00  0.00     0.001 A 
HETATM   12  C   UNK N   1      27.140  29.081  -3.286  0.00  0.00     0.000 A 
HETATM   13  C   UNK N   1      28.331  28.517  -3.747  0.00  0.00     0.001 A 
HETATM   14  C   UNK N   1      28.319  27.263  -4.364  0.00  0.00     0.010 A 
ENDBRANCH   7   9
BRANCH   7  15
HETATM   15  O   UNK N   1      27.900  24.228  -4.621  0.00  0.00    -0.305 OA
BRANCH  15  16
HETATM   16  C   UNK N   1      28.007  23.902  -3.302  0.00  0.00     0.259 C 
HETATM   17  O   UNK N   1      27.039  23.937  -2.562  0.00  0.00    -0.265 OA
BRANCH  16  18
HETATM   18  C   UNK N   1      29.344  23.563  -2.715  0.00  0.00     0.106 C 
HETATM   19  C   UNK N   1      30.464  24.393  -3.317  0.00  0.00     0.015 C 
ENDBRANCH  16  18
ENDBRANCH  15  16
ENDBRANCH   7  15
TORSDOF 4
ENDMDL
MODEL 5
REMARK VINA RESULT:      -5.3     13.141     15.180
REMARK  4 active torsions:
REMARK  status: ('A' for Active; 'I' for Inactive)
REMARK    1  A    between atoms: C_15  and  C_4 
REMARK    2  A    between atoms: C_16  and  C_14 
REMARK    3  A    between atoms: O_19  and  C_15 
REMARK    4  A    between atoms: C_16  and  O_19 
ROOT
HETATM    1  C   UNK N   1      31.542  16.806   3.518  0.00  0.00     0.015 C 
HETATM    2  C   UNK N   1      34.920  15.469   5.724  0.00  0.00     0.309 C 
HETATM    3  C   UNK N   1      31.217  15.325   6.124  0.00  0.00     0.074 C 
HETATM    4  C   UNK N   1      32.707  15.085   6.399  0.00  0.00     0.275 C 
HETATM    5  C   UNK N   1      33.309  17.098   5.234  0.00  0.00     0.279 C 
HETATM    6  C   UNK N   1      31.845  17.400   4.895  0.00  0.00     0.050 C 
HETATM    7  C   UNK N   1      30.928  16.835   6.025  0.00  0.00     0.104 C 
HETATM    8  N   UNK N   1      33.534  15.654   5.332  0.00  0.00     0.084 N 
ENDROOT
BRANCH   7   9
HETATM    9  C   UNK N   1      29.431  17.057   5.737  0.00  0.00    -0.023 A 
HETATM   10  C   UNK N   1      28.966  18.318   5.320  0.00  0.00     0.010 A 
HETATM   11  C   UNK N   1      27.608  18.541   5.080  0.00  0.00     0.001 A 
HETATM   12  C   UNK N   1      26.687  17.510   5.269  0.00  0.00     0.000 A 
HETATM   13  C   UNK N   1      27.125  16.257   5.698  0.00  0.00     0.001 A 
HETATM   14  C   UNK N   1      28.485  16.033   5.932  0.00  0.00     0.010 A 
ENDBRANCH   7   9
BRANCH   7  15
HETATM   15  O   UNK N   1      31.351  17.448   7.210  0.00  0.00    -0.305 OA
BRANCH  15  16
HETATM   16  C   UNK N   1      30.780  17.427   8.447  0.00  0.00     0.259 C 
HETATM   17  O   UNK N   1      30.863  16.445   9.164  0.00  0.00    -0.265 OA
BRANCH  16  18
HETATM   18  C   UNK N   1      29.969  18.594   8.924  0.00  0.00     0.106 C 
HETATM   19  C   UNK N   1      28.503  18.240   9.105  0.00  0.00     0.015 C 
ENDBRANCH  16  18
ENDBRANCH  15  16
ENDBRANCH   7  15
TORSDOF 4
ENDMDL
MODEL 6
REMARK VINA RESULT:      -5.3     17.021     19.004
REMARK  4 active torsions:
REMARK  status: ('A' for Active; 'I' for Inactive)
REMARK    1  A    between atoms: C_15  and  C_4 
REMARK    2  A    between atoms: C_16  and  C_14 
REMARK    3  A    between atoms: O_19  and  C_15 
REMARK    4  A    between atoms: C_16  and  O_19 
ROOT
HETATM    1  C   UNK N   1      21.484  11.974   6.879  0.00  0.00     0.015 C 
HETATM    2  C   UNK N   1      20.969  15.303   4.287  0.00  0.00     0.309 C 
HETATM    3  C   UNK N   1      23.078  14.506   7.255  0.00  0.00     0.074 C 
HETATM    4  C   UNK N   1      22.509  15.274   6.055  0.00  0.00     0.275 C 
HETATM    5  C   UNK N   1      20.412  14.114   6.227  0.00  0.00     0.279 C 
HETATM    6  C   UNK N   1      20.910  13.286   7.417  0.00  0.00     0.050 C 
HETATM    7  C   UNK N   1      21.946  14.125   8.230  0.00  0.00     0.104 C 
HETATM    8  N   UNK N   1      21.521  14.466   5.337  0.00  0.00     0.084 N 
ENDROOT
BRANCH   7   9
HETATM    9  C   UNK N   1      22.532  13.345   9.422  0.00  0.00    -0.023 A 
HETATM   10  C   UNK N   1      23.915  13.094   9.498  0.00  0.00     0.010 A 
HETATM   11  C   UNK N   1      24.457  12.364  10.559  0.00  0.00     0.001 A 
HETATM   12  C   UNK N   1      23.624  11.859  11.557  0.00  0.00     0.000 A 
HETATM   13  C   UNK N   1      22.247  12.083  11.492  0.00  0.00     0.001 A 
HETATM   14  C   UNK N   1      21.707  12.817  10.433  0.00  0.00     0.010 A 
ENDBRANCH   7   9
BRANCH   7  15
HETATM   15  O   UNK N   1      21.281  15.293   8.618  0.00  0.00    -0.305 OA
BRANCH  15  16
HETATM   16  C   UNK N   1      19.971  15.473   8.948  0.00  0.00     0.259 C 
HETATM   17  O   UNK N   1      19.341  14.607   9.530  0.00  0.00    -0.265 OA
BRANCH  16  18
HETATM   18  C   UNK N   1      19.254  16.722   8.532  0.00  0.00     0.106 C 
HETATM   19  C   UNK N   1      17.937  16.902   9.269  0.00  0.00     0.015 C 
ENDBRANCH  16  18
ENDBRANCH  15  16
ENDBRANCH   7  15
TORSDOF 4
ENDMDL
MODEL 7
REMARK VINA RESULT:      -5.2     13.226     15.934
REMARK  4 active torsions:
REMARK  status: ('A' for Active; 'I' for Inactive)
REMARK    1  A    between atoms: C_15  and  C_4 
REMARK    2  A    between atoms: C_16  and  C_14 
REMARK    3  A    between atoms: O_19  and  C_15 
REMARK    4  A    between atoms: C_16  and  O_19 
ROOT
HETATM    1  C   UNK N   1      32.413  14.437   5.089  0.00  0.00     0.015 C 
HETATM    2  C   UNK N   1      29.000  15.203   2.676  0.00  0.00     0.309 C 
HETATM    3  C   UNK N   1      31.141  17.169   5.008  0.00  0.00     0.074 C 
HETATM    4  C   UNK N   1      30.044  16.843   3.986  0.00  0.00     0.275 C 
HETATM    5  C   UNK N   1      29.965  14.553   4.709  0.00  0.00     0.279 C 
HETATM    6  C   UNK N   1      31.074  14.787   5.741  0.00  0.00     0.050 C 
HETATM    7  C   UNK N   1      31.003  16.263   6.247  0.00  0.00     0.104 C 
HETATM    8  N   UNK N   1      30.127  15.445   3.558  0.00  0.00     0.084 N 
ENDROOT
BRANCH   7   9
HETATM    9  C   UNK N   1      32.118  16.595   7.257  0.00  0.00    -0.023 A 
HETATM   10  C   UNK N   1      32.970  17.693   7.040  0.00  0.00     0.010 A 
HETATM   11  C   UNK N   1      34.003  17.990   7.933  0.00  0.00     0.001 A 
HETATM   12  C   UNK N   1      34.211  17.185   9.052  0.00  0.00     0.000 A 
HETATM   13  C   UNK N   1      33.387  16.081   9.278  0.00  0.00     0.001 A 
HETATM   14  C   UNK N   1      32.351  15.788   8.387  0.00  0.00     0.010 A 
ENDBRANCH   7   9
BRANCH   7  15
HETATM   15  O   UNK N   1      29.720  16.428   6.779  0.00  0.00    -0.305 OA
BRANCH  15  16
HETATM   16  C   UNK N   1      29.177  17.507   7.412  0.00  0.00     0.259 C 
HETATM   17  O   UNK N   1      28.745  18.456   6.783  0.00  0.00    -0.265 OA
BRANCH  16  18
HETATM   18  C   UNK N   1      29.170  17.577   8.909  0.00  0.00     0.106 C 
HETATM   19  C   UNK N   1      30.062  18.688   9.438  0.00  0.00     0.015 C 
ENDBRANCH  16  18
ENDBRANCH  15  16
ENDBRANCH   7  15
TORSDOF 4
ENDMDL
MODEL 8
REMARK VINA RESULT:      -5.1      2.135      4.023
REMARK  4 active torsions:
REMARK  status: ('A' for Active; 'I' for Inactive)
REMARK    1  A    between atoms: C_15  and  C_4 
REMARK    2  A    between atoms: C_16  and  C_14 
REMARK    3  A    between atoms: O_19  and  C_15 
REMARK    4  A    between atoms: C_16  and  O_19 
ROOT
HETATM    1  C   UNK N   1      30.715  25.388  -6.527  0.00  0.00     0.015 C 
HETATM    2  C   UNK N   1      29.388  29.217  -5.248  0.00  0.00     0.309 C 
HETATM    3  C   UNK N   1      30.433  26.043  -3.597  0.00  0.00     0.074 C 
HETATM    4  C   UNK N   1      29.986  27.501  -3.766  0.00  0.00     0.275 C 
HETATM    5  C   UNK N   1      28.949  27.004  -5.876  0.00  0.00     0.279 C 
HETATM    6  C   UNK N   1      29.378  25.534  -5.798  0.00  0.00     0.050 C 
HETATM    7  C   UNK N   1      29.441  25.095  -4.300  0.00  0.00     0.104 C 
HETATM    8  N   UNK N   1      29.911  27.865  -5.183  0.00  0.00     0.084 N 
ENDROOT
BRANCH   7   9
HETATM    9  C   UNK N   1      29.911  23.639  -4.132  0.00  0.00    -0.023 A 
HETATM   10  C   UNK N   1      30.688  23.266  -3.020  0.00  0.00     0.010 A 
HETATM   11  C   UNK N   1      31.145  21.954  -2.867  0.00  0.00     0.001 A 
HETATM   12  C   UNK N   1      30.844  20.994  -3.833  0.00  0.00     0.000 A 
HETATM   13  C   UNK N   1      30.088  21.346  -4.952  0.00  0.00     0.001 A 
HETATM   14  C   UNK N   1      29.627  22.657  -5.101  0.00  0.00     0.010 A 
ENDBRANCH   7   9
BRANCH   7  15
HETATM   15  O   UNK N   1      28.163  25.319  -3.777  0.00  0.00    -0.305 OA
BRANCH  15  16
HETATM   16  C   UNK N   1      27.141  24.439  -3.584  0.00  0.00     0.259 C 
HETATM   17  O   UNK N   1      26.982  23.880  -2.513  0.00  0.00    -0.265 OA
BRANCH  16  18
HETATM   18  C   UNK N   1      26.227  24.084  -4.718  0.00  0.00     0.106 C 
HETATM   19  C   UNK N   1      25.600  25.311  -5.358  0.00  0.00     0.015 C 
ENDBRANCH  16  18
ENDBRANCH  15  16
ENDBRANCH   7  15
TORSDOF 4
ENDMDL
MODEL 9
REMARK VINA RESULT:      -5.1     14.336     16.716
REMARK  4 active torsions:
REMARK  status: ('A' for Active; 'I' for Inactive)
REMARK    1  A    between atoms: C_15  and  C_4 
REMARK    2  A    between atoms: C_16  and  C_14 
REMARK    3  A    between atoms: O_19  and  C_15 
REMARK    4  A    between atoms: C_16  and  O_19 
ROOT
HETATM    1  C   UNK N   1      32.392  17.586   4.554  0.00  0.00     0.015 C 
HETATM    2  C   UNK N   1      34.383  13.991   3.469  0.00  0.00     0.309 C 
HETATM    3  C   UNK N   1      31.547  14.927   5.699  0.00  0.00     0.074 C 
HETATM    4  C   UNK N   1      32.556  14.058   4.937  0.00  0.00     0.275 C 
HETATM    5  C   UNK N   1      34.145  15.859   4.863  0.00  0.00     0.279 C 
HETATM    6  C   UNK N   1      33.187  16.802   5.600  0.00  0.00     0.050 C 
HETATM    7  C   UNK N   1      32.284  15.968   6.564  0.00  0.00     0.104 C 
HETATM    8  N   UNK N   1      33.402  14.878   4.068  0.00  0.00     0.084 N 
ENDROOT
BRANCH   7   9
HETATM    9  C   UNK N   1      31.257  16.839   7.311  0.00  0.00    -0.023 A 
HETATM   10  C   UNK N   1      31.684  17.796   8.250  0.00  0.00     0.010 A 
HETATM   11  C   UNK N   1      30.763  18.575   8.955  0.00  0.00     0.001 A 
HETATM   12  C   UNK N   1      29.396  18.400   8.744  0.00  0.00     0.000 A 
HETATM   13  C   UNK N   1      28.950  17.445   7.828  0.00  0.00     0.001 A 
HETATM   14  C   UNK N   1      29.872  16.671   7.120  0.00  0.00     0.010 A 
ENDBRANCH   7   9
BRANCH   7  15
HETATM   15  O   UNK N   1      33.156  15.295   7.425  0.00  0.00    -0.305 OA
BRANCH  15  16
HETATM   16  C   UNK N   1      32.878  14.567   8.544  0.00  0.00     0.259 C 
HETATM   17  O   UNK N   1      32.228  13.538   8.482  0.00  0.00    -0.265 OA
BRANCH  16  18
HETATM   18  C   UNK N   1      33.306  15.064   9.892  0.00  0.00     0.106 C 
HETATM   19  C   UNK N   1      34.514  15.980   9.810  0.00  0.00     0.015 C 
ENDBRANCH  16  18
ENDBRANCH  15  16
ENDBRANCH   7  15
TORSDOF 4
ENDMDL
