MODEL 1
REMARK VINA RESULT:      -3.0      0.000      0.000
REMARK  1 active torsions:
REMARK  status: ('A' for Active; 'I' for Inactive)
REMARK    1  A    between atoms: C_2  and  C_4 
ROOT
HETATM    1  C   UNK N   1      24.458  12.173  10.687  0.00  0.00     0.028 C 
HETATM    2  C   UNK N   1      23.161  12.103  11.466  0.00  0.00     0.092 C 
HETATM    3 Cl   UNK N   1      23.241  11.902  13.239  0.00  0.00    -0.124 Cl
ENDROOT
BRANCH   2   4
HETATM    4  C   UNK N   1      21.855  12.209  10.687  0.00  0.00     0.134 C 
HETATM    5 Cl   UNK N   1      20.405  12.094  11.720  0.00  0.00    -0.129 Cl
ENDBRANCH   2   4
TORSDOF 1
ENDMDL
MODEL 2
REMARK VINA RESULT:      -2.9      0.691      2.612
REMARK  1 active torsions:
REMARK  status: ('A' for Active; 'I' for Inactive)
REMARK    1  A    between atoms: C_2  and  C_4 
ROOT
HETATM    1  C   UNK N   1      22.028  13.125   9.649  0.00  0.00     0.028 C 
HETATM    2  C   UNK N   1      21.984  12.382  10.968  0.00  0.00     0.092 C 
HETATM    3 Cl   UNK N   1      20.394  12.076  11.721  0.00  0.00    -0.124 Cl
ENDROOT
BRANCH   2   4
HETATM    4  C   UNK N   1      23.307  11.936  11.580  0.00  0.00     0.134 C 
HETATM    5 Cl   UNK N   1      23.301  11.949  13.364  0.00  0.00    -0.129 Cl
ENDBRANCH   2   4
TORSDOF 1
ENDMDL
MODEL 3
REMARK VINA RESULT:      -2.8      1.950      2.575
REMARK  1 active torsions:
REMARK  status: ('A' for Active; 'I' for Inactive)
REMARK    1  A    between atoms: C_2  and  C_4 
ROOT
HETATM    1  C   UNK N   1      21.641  12.205  11.020  0.00  0.00     0.028 C 
HETATM    2  C   UNK N   1      23.057  12.115  11.549  0.00  0.00     0.092 C 
HETATM    3 Cl   UNK N   1      23.300  11.928  13.308  0.00  0.00    -0.124 Cl
ENDROOT
BRANCH   2   4
HETATM    4  C   UNK N   1      24.200  12.191  10.544  0.00  0.00     0.134 C 
HETATM    5 Cl   UNK N   1      23.808  11.446   8.970  0.00  0.00    -0.129 Cl
ENDBRANCH   2   4
TORSDOF 1
ENDMDL
MODEL 4
REMARK VINA RESULT:      -2.7      1.976      2.987
REMARK  1 active torsions:
REMARK  status: ('A' for Active; 'I' for Inactive)
REMARK    1  A    between atoms: C_2  and  C_4 
ROOT
HETATM    1  C   UNK N   1      21.570  12.424  10.680  0.00  0.00     0.028 C 
HETATM    2  C   UNK N   1      22.962  11.872  10.458  0.00  0.00     0.092 C 
HETATM    3 Cl   UNK N   1      23.339  11.117   8.885  0.00  0.00    -0.124 Cl
ENDROOT
BRANCH   2   4
HETATM    4  C   UNK N   1      23.967  11.992  11.598  0.00  0.00     0.134 C 
HETATM    5 Cl   UNK N   1      23.219  11.890  13.215  0.00  0.00    -0.129 Cl
ENDBRANCH   2   4
TORSDOF 1
ENDMDL
MODEL 5
REMARK VINA RESULT:      -2.6     13.634     14.552
REMARK  1 active torsions:
REMARK  status: ('A' for Active; 'I' for Inactive)
REMARK    1  A    between atoms: C_2  and  C_4 
ROOT
HETATM    1  C   UNK N   1      34.984  12.115  15.862  0.00  0.00     0.028 C 
HETATM    2  C   UNK N   1      35.690  13.363  16.348  0.00  0.00     0.092 C 
HETATM    3 Cl   UNK N   1      35.248  14.026  17.946  0.00  0.00    -0.124 Cl
ENDROOT
BRANCH   2   4
HETATM    4  C   UNK N   1      36.744  13.985  15.440  0.00  0.00     0.134 C 
HETATM    5 Cl   UNK N   1      37.431  15.499  16.088  0.00  0.00    -0.129 Cl
ENDBRANCH   2   4
TORSDOF 1
ENDMDL
MODEL 6
REMARK VINA RESULT:      -2.6      1.760      2.447
REMARK  1 active torsions:
REMARK  status: ('A' for Active; 'I' for Inactive)
REMARK    1  A    between atoms: C_2  and  C_4 
ROOT
HETATM    1  C   UNK N   1      20.529  12.121  11.578  0.00  0.00     0.028 C 
HETATM    2  C   UNK N   1      22.015  12.351  11.410  0.00  0.00     0.092 C 
HETATM    3 Cl   UNK N   1      23.111  11.847  12.727  0.00  0.00    -0.124 Cl
ENDROOT
BRANCH   2   4
HETATM    4  C   UNK N   1      22.495  13.003  10.119  0.00  0.00     0.134 C 
HETATM    5 Cl   UNK N   1      21.428  14.317   9.552  0.00  0.00    -0.129 Cl
ENDBRANCH   2   4
TORSDOF 1
ENDMDL
MODEL 7
REMARK VINA RESULT:      -2.6      1.702      2.600
REMARK  1 active torsions:
REMARK  status: ('A' for Active; 'I' for Inactive)
REMARK    1  A    between atoms: C_2  and  C_4 
ROOT
HETATM    1  C   UNK N   1      24.514  13.177   9.505  0.00  0.00     0.028 C 
HETATM    2  C   UNK N   1      23.173  12.849  10.126  0.00  0.00     0.092 C 
HETATM    3 Cl   UNK N   1      21.791  13.930   9.792  0.00  0.00    -0.124 Cl
ENDROOT
BRANCH   2   4
HETATM    4  C   UNK N   1      23.079  11.609  11.007  0.00  0.00     0.134 C 
HETATM    5 Cl   UNK N   1      23.217  11.967  12.750  0.00  0.00    -0.129 Cl
ENDBRANCH   2   4
TORSDOF 1
ENDMDL
MODEL 8
REMARK VINA RESULT:      -2.5     23.224     23.543
REMARK  1 active torsions:
REMARK  status: ('A' for Active; 'I' for Inactive)
REMARK    1  A    between atoms: C_2  and  C_4 
ROOT
HETATM    1  C   UNK N   1      27.366  28.858  -5.710  0.00  0.00     0.028 C 
HETATM    2  C   UNK N   1      26.426  28.985  -4.531  0.00  0.00     0.092 C 
HETATM    3 Cl   UNK N   1      26.425  30.510  -3.601  0.00  0.00    -0.124 Cl
ENDROOT
BRANCH   2   4
HETATM    4  C   UNK N   1      25.528  27.798  -4.203  0.00  0.00     0.134 C 
HETATM    5 Cl   UNK N   1      24.643  27.168  -5.619  0.00  0.00    -0.129 Cl
ENDBRANCH   2   4
TORSDOF 1
ENDMDL
MODEL 9
REMARK VINA RESULT:      -2.5     21.121     21.455
REMARK  1 active torsions:
REMARK  status: ('A' for Active; 'I' for Inactive)
REMARK    1  A    between atoms: C_2  and  C_4 
ROOT
HETATM    1  C   UNK N   1      26.990  24.455  -3.605  0.00  0.00     0.028 C 
HETATM    2  C   UNK N   1      26.251  25.699  -4.048  0.00  0.00     0.092 C 
HETATM    3 Cl   UNK N   1      26.216  27.108  -2.951  0.00  0.00    -0.124 Cl
ENDROOT
BRANCH   2   4
HETATM    4  C   UNK N   1      25.576  25.679  -5.414  0.00  0.00     0.134 C 
HETATM    5 Cl   UNK N   1      24.586  27.128  -5.736  0.00  0.00    -0.129 Cl
ENDBRANCH   2   4
TORSDOF 1
ENDMDL
