MODEL 1
REMARK VINA RESULT:      -5.7      0.000      0.000
REMARK  8 active torsions:
REMARK  status: ('A' for Active; 'I' for Inactive)
REMARK    1  A    between atoms: C_2  and  C_1 
REMARK    2  A    between atoms: O_7  and  C_1 
REMARK    3  A    between atoms: C_3  and  O_8 
REMARK    4  A    between atoms: C_4  and  O_9 
REMARK    5  A    between atoms: C_5  and  O_15 
REMARK    6  A    between atoms: C_6  and  O_10 
REMARK    7  A    between atoms: S_16  and  O_11 
REMARK    8  A    between atoms: S_16  and  O_15 
ROOT
HETATM    1  C   UNK N   1      34.389  13.265   9.628  0.00  0.00     0.179 C 
HETATM    2  C   UNK N   1      33.898  14.720   9.369  0.00  0.00     0.182 C 
HETATM    3  C   UNK N   1      36.030  15.166  10.646  0.00  0.00     0.206 C 
HETATM    4  C   UNK N   1      35.044  15.738   9.617  0.00  0.00     0.209 C 
HETATM    5  C   UNK N   1      36.639  13.866  10.024  0.00  0.00     0.288 C 
HETATM    6  O   UNK N   1      35.731  13.103   9.223  0.00  0.00    -0.349 OA
ENDROOT
BRANCH   4   7
HETATM    7  O   UNK N   1      34.593  17.076   9.783  0.00  0.00    -0.253 OA
BRANCH   7   8
HETATM    8  S   UNK N   1      34.412  17.995   8.316  0.00  0.00     0.240 S 
HETATM    9  O   UNK N   1      35.150  19.340   8.391  0.00  0.00    -0.579 OA
HETATM   10  O   UNK N   1      32.941  18.435   8.284  0.00  0.00    -0.579 OA
BRANCH   8  11
HETATM   11  O   UNK N   1      34.692  17.236   6.801  0.00  0.00    -0.274 OA
HETATM   12  H   UNK N   1      35.478  16.786   6.458  0.00  0.00     0.234 HD
ENDBRANCH   8  11
ENDBRANCH   7   8
ENDBRANCH   4   7
BRANCH   2  13
HETATM   13  O   UNK N   1      32.809  14.958  10.209  0.00  0.00    -0.390 OA
HETATM   14  H   UNK N   1      32.265  15.744  10.376  0.00  0.00     0.210 HD
ENDBRANCH   2  13
BRANCH   3  15
HETATM   15  O   UNK N   1      37.052  16.071  10.947  0.00  0.00    -0.388 OA
HETATM   16  H   UNK N   1      37.119  16.965  10.575  0.00  0.00     0.210 HD
ENDBRANCH   3  15
BRANCH   1  17
HETATM   17  C   UNK N   1      33.527  12.246   8.889  0.00  0.00     0.198 C 
BRANCH  17  18
HETATM   18  O   UNK N   1      32.235  12.203   9.415  0.00  0.00    -0.398 OA
HETATM   19  H   UNK N   1      31.964  12.208  10.346  0.00  0.00     0.209 HD
ENDBRANCH  17  18
ENDBRANCH   1  17
BRANCH   5  20
HETATM   20  O   UNK N   1      37.702  14.228   9.191  0.00  0.00    -0.369 OA
HETATM   21  H   UNK N   1      37.972  14.521   8.306  0.00  0.00     0.212 HD
ENDBRANCH   5  20
TORSDOF 8
ENDMDL
MODEL 2
REMARK VINA RESULT:      -5.7      3.958      5.781
REMARK  8 active torsions:
REMARK  status: ('A' for Active; 'I' for Inactive)
REMARK    1  A    between atoms: C_2  and  C_1 
REMARK    2  A    between atoms: O_7  and  C_1 
REMARK    3  A    between atoms: C_3  and  O_8 
REMARK    4  A    between atoms: C_4  and  O_9 
REMARK    5  A    between atoms: C_5  and  O_15 
REMARK    6  A    between atoms: C_6  and  O_10 
REMARK    7  A    between atoms: S_16  and  O_11 
REMARK    8  A    between atoms: S_16  and  O_15 
ROOT
HETATM    1  C   UNK N   1      29.130  17.585   7.807  0.00  0.00     0.179 C 
HETATM    2  C   UNK N   1      30.385  18.089   8.581  0.00  0.00     0.182 C 
HETATM    3  C   UNK N   1      31.383  16.178   7.265  0.00  0.00     0.206 C 
HETATM    4  C   UNK N   1      31.684  17.520   7.949  0.00  0.00     0.209 C 
HETATM    5  C   UNK N   1      30.353  16.468   6.123  0.00  0.00     0.288 C 
HETATM    6  O   UNK N   1      29.393  17.486   6.425  0.00  0.00    -0.349 OA
ENDROOT
BRANCH   4   7
HETATM    7  O   UNK N   1      32.819  17.606   8.801  0.00  0.00    -0.253 OA
BRANCH   7   8
HETATM    8  S   UNK N   1      34.334  17.923   8.006  0.00  0.00     0.240 S 
HETATM    9  O   UNK N   1      34.170  18.015   6.482  0.00  0.00    -0.579 OA
HETATM   10  O   UNK N   1      35.160  16.637   8.164  0.00  0.00    -0.579 OA
BRANCH   8  11
HETATM   11  O   UNK N   1      35.345  19.186   8.582  0.00  0.00    -0.274 OA
HETATM   12  H   UNK N   1      36.294  19.339   8.458  0.00  0.00     0.234 HD
ENDBRANCH   8  11
ENDBRANCH   7   8
ENDBRANCH   4   7
BRANCH   2  13
HETATM   13  O   UNK N   1      30.248  17.698   9.914  0.00  0.00    -0.390 OA
HETATM   14  H   UNK N   1      30.366  18.169  10.754  0.00  0.00     0.210 HD
ENDBRANCH   2  13
BRANCH   3  15
HETATM   15  O   UNK N   1      32.535  15.597   6.729  0.00  0.00    -0.388 OA
HETATM   16  H   UNK N   1      33.171  15.070   7.238  0.00  0.00     0.210 HD
ENDBRANCH   3  15
BRANCH   1  17
HETATM   17  C   UNK N   1      27.937  18.514   8.014  0.00  0.00     0.198 C 
BRANCH  17  18
HETATM   18  O   UNK N   1      27.432  18.403   9.311  0.00  0.00    -0.398 OA
HETATM   19  H   UNK N   1      27.330  19.100   9.978  0.00  0.00     0.209 HD
ENDBRANCH  17  18
ENDBRANCH   1  17
BRANCH   5  20
HETATM   20  O   UNK N   1      31.053  16.898   4.992  0.00  0.00    -0.369 OA
HETATM   21  H   UNK N   1      31.584  17.604   4.590  0.00  0.00     0.212 HD
ENDBRANCH   5  20
TORSDOF 8
ENDMDL
MODEL 3
REMARK VINA RESULT:      -5.4     14.104     16.224
REMARK  8 active torsions:
REMARK  status: ('A' for Active; 'I' for Inactive)
REMARK    1  A    between atoms: C_2  and  C_1 
REMARK    2  A    between atoms: O_7  and  C_1 
REMARK    3  A    between atoms: C_3  and  O_8 
REMARK    4  A    between atoms: C_4  and  O_9 
REMARK    5  A    between atoms: C_5  and  O_15 
REMARK    6  A    between atoms: C_6  and  O_10 
REMARK    7  A    between atoms: S_16  and  O_11 
REMARK    8  A    between atoms: S_16  and  O_15 
ROOT
HETATM    1  C   UNK N   1      22.733  20.204   3.079  0.00  0.00     0.179 C 
HETATM    2  C   UNK N   1      22.399  18.738   3.483  0.00  0.00     0.182 C 
HETATM    3  C   UNK N   1      20.149  19.513   2.637  0.00  0.00     0.206 C 
HETATM    4  C   UNK N   1      21.051  18.289   2.856  0.00  0.00     0.209 C 
HETATM    5  C   UNK N   1      20.888  20.451   1.625  0.00  0.00     0.288 C 
HETATM    6  O   UNK N   1      22.312  20.476   1.760  0.00  0.00    -0.349 OA
ENDROOT
BRANCH   4   7
HETATM    7  O   UNK N   1      20.490  17.137   3.471  0.00  0.00    -0.253 OA
BRANCH   7   8
HETATM    8  S   UNK N   1      20.217  15.779   2.417  0.00  0.00     0.240 S 
HETATM    9  O   UNK N   1      21.528  15.062   2.061  0.00  0.00    -0.579 OA
HETATM   10  O   UNK N   1      19.803  16.382   1.067  0.00  0.00    -0.579 OA
BRANCH   8  11
HETATM   11  O   UNK N   1      18.991  14.641   2.802  0.00  0.00    -0.274 OA
HETATM   12  H   UNK N   1      18.053  14.771   3.011  0.00  0.00     0.234 HD
ENDBRANCH   8  11
ENDBRANCH   7   8
ENDBRANCH   4   7
BRANCH   2  13
HETATM   13  O   UNK N   1      22.362  18.677   4.877  0.00  0.00    -0.390 OA
HETATM   14  H   UNK N   1      22.315  19.359   5.565  0.00  0.00     0.210 HD
ENDBRANCH   2  13
BRANCH   3  15
HETATM   15  O   UNK N   1      18.899  19.154   2.127  0.00  0.00    -0.388 OA
HETATM   16  H   UNK N   1      18.363  18.417   2.458  0.00  0.00     0.210 HD
ENDBRANCH   3  15
BRANCH   1  17
HETATM   17  C   UNK N   1      24.229  20.485   3.185  0.00  0.00     0.198 C 
BRANCH  17  18
HETATM   18  O   UNK N   1      24.775  20.789   1.937  0.00  0.00    -0.398 OA
HETATM   19  H   UNK N   1      25.697  20.705   1.647  0.00  0.00     0.209 HD
ENDBRANCH  17  18
ENDBRANCH   1  17
BRANCH   5  20
HETATM   20  O   UNK N   1      20.615  20.006   0.328  0.00  0.00    -0.369 OA
HETATM   21  H   UNK N   1      20.481  19.240  -0.253  0.00  0.00     0.212 HD
ENDBRANCH   5  20
TORSDOF 8
ENDMDL
MODEL 4
REMARK VINA RESULT:      -5.3      3.278      5.160
REMARK  8 active torsions:
REMARK  status: ('A' for Active; 'I' for Inactive)
REMARK    1  A    between atoms: C_2  and  C_1 
REMARK    2  A    between atoms: O_7  and  C_1 
REMARK    3  A    between atoms: C_3  and  O_8 
REMARK    4  A    between atoms: C_4  and  O_9 
REMARK    5  A    between atoms: C_5  and  O_15 
REMARK    6  A    between atoms: C_6  and  O_10 
REMARK    7  A    between atoms: S_16  and  O_11 
REMARK    8  A    between atoms: S_16  and  O_15 
ROOT
HETATM    1  C   UNK N   1      35.174  15.506   9.814  0.00  0.00     0.179 C 
HETATM    2  C   UNK N   1      34.755  15.288  11.299  0.00  0.00     0.182 C 
HETATM    3  C   UNK N   1      36.189  13.245  10.912  0.00  0.00     0.206 C 
HETATM    4  C   UNK N   1      35.661  14.222  11.973  0.00  0.00     0.209 C 
HETATM    5  C   UNK N   1      37.054  14.080   9.911  0.00  0.00     0.288 C 
HETATM    6  O   UNK N   1      36.572  15.404   9.661  0.00  0.00    -0.349 OA
ENDROOT
BRANCH   4   7
HETATM    7  O   UNK N   1      35.119  13.689  13.175  0.00  0.00    -0.253 OA
BRANCH   7   8
HETATM    8  S   UNK N   1      36.218  13.601  14.521  0.00  0.00     0.240 S 
HETATM    9  O   UNK N   1      35.474  13.416  15.852  0.00  0.00    -0.579 OA
HETATM   10  O   UNK N   1      36.801  15.014  14.671  0.00  0.00    -0.579 OA
BRANCH   8  11
HETATM   11  O   UNK N   1      37.577  12.555  14.439  0.00  0.00    -0.274 OA
HETATM   12  H   UNK N   1      38.470  12.708  14.092  0.00  0.00     0.234 HD
ENDBRANCH   8  11
ENDBRANCH   7   8
ENDBRANCH   4   7
BRANCH   2  13
HETATM   13  O   UNK N   1      33.413  14.903  11.312  0.00  0.00    -0.390 OA
HETATM   14  H   UNK N   1      32.942  14.172  11.740  0.00  0.00     0.210 HD
ENDBRANCH   2  13
BRANCH   3  15
HETATM   15  O   UNK N   1      36.965  12.231  11.479  0.00  0.00    -0.388 OA
HETATM   16  H   UNK N   1      37.172  12.162  12.425  0.00  0.00     0.210 HD
ENDBRANCH   3  15
BRANCH   1  17
HETATM   17  C   UNK N   1      34.721  16.870   9.302  0.00  0.00     0.198 C 
BRANCH  17  18
HETATM   18  O   UNK N   1      33.338  17.018   9.417  0.00  0.00    -0.398 OA
HETATM   19  H   UNK N   1      32.760  17.646   8.957  0.00  0.00     0.209 HD
ENDBRANCH  17  18
ENDBRANCH   1  17
BRANCH   5  20
HETATM   20  O   UNK N   1      38.341  14.215  10.441  0.00  0.00    -0.369 OA
HETATM   21  H   UNK N   1      39.074  14.819  10.639  0.00  0.00     0.212 HD
ENDBRANCH   5  20
TORSDOF 8
ENDMDL
MODEL 5
REMARK VINA RESULT:      -5.1     14.036     16.044
REMARK  8 active torsions:
REMARK  status: ('A' for Active; 'I' for Inactive)
REMARK    1  A    between atoms: C_2  and  C_1 
REMARK    2  A    between atoms: O_7  and  C_1 
REMARK    3  A    between atoms: C_3  and  O_8 
REMARK    4  A    between atoms: C_4  and  O_9 
REMARK    5  A    between atoms: C_5  and  O_15 
REMARK    6  A    between atoms: C_6  and  O_10 
REMARK    7  A    between atoms: S_16  and  O_11 
REMARK    8  A    between atoms: S_16  and  O_15 
ROOT
HETATM    1  C   UNK N   1      21.143  19.233   3.246  0.00  0.00     0.179 C 
HETATM    2  C   UNK N   1      20.068  18.111   3.151  0.00  0.00     0.182 C 
HETATM    3  C   UNK N   1      21.835  16.950   4.533  0.00  0.00     0.206 C 
HETATM    4  C   UNK N   1      20.335  17.005   4.209  0.00  0.00     0.209 C 
HETATM    5  C   UNK N   1      22.221  18.337   5.146  0.00  0.00     0.288 C 
HETATM    6  O   UNK N   1      21.528  19.456   4.584  0.00  0.00    -0.349 OA
ENDROOT
BRANCH   4   7
HETATM    7  O   UNK N   1      19.655  15.785   3.943  0.00  0.00    -0.253 OA
BRANCH   7   8
HETATM    8  S   UNK N   1      18.774  15.108   5.283  0.00  0.00     0.240 S 
HETATM    9  O   UNK N   1      19.716  14.562   6.367  0.00  0.00    -0.579 OA
HETATM   10  O   UNK N   1      18.124  13.826   4.744  0.00  0.00    -0.579 OA
BRANCH   8  11
HETATM   11  O   UNK N   1      17.492  16.004   5.993  0.00  0.00    -0.274 OA
HETATM   12  H   UNK N   1      17.017  16.786   5.673  0.00  0.00     0.234 HD
ENDBRANCH   8  11
ENDBRANCH   7   8
ENDBRANCH   4   7
BRANCH   2  13
HETATM   13  O   UNK N   1      20.099  17.598   1.853  0.00  0.00    -0.390 OA
HETATM   14  H   UNK N   1      20.548  16.835   1.457  0.00  0.00     0.210 HD
ENDBRANCH   2  13
BRANCH   3  15
HETATM   15  O   UNK N   1      22.135  15.930   5.439  0.00  0.00    -0.388 OA
HETATM   16  H   UNK N   1      21.506  15.249   5.726  0.00  0.00     0.210 HD
ENDBRANCH   3  15
BRANCH   1  17
HETATM   17  C   UNK N   1      20.633  20.545   2.657  0.00  0.00     0.198 C 
BRANCH  17  18
HETATM   18  O   UNK N   1      21.599  21.548   2.748  0.00  0.00    -0.398 OA
HETATM   19  H   UNK N   1      21.547  22.464   2.433  0.00  0.00     0.209 HD
ENDBRANCH  17  18
ENDBRANCH   1  17
BRANCH   5  20
HETATM   20  O   UNK N   1      21.916  18.320   6.511  0.00  0.00    -0.369 OA
HETATM   21  H   UNK N   1      21.687  18.845   7.294  0.00  0.00     0.212 HD
ENDBRANCH   5  20
TORSDOF 8
ENDMDL
MODEL 6
REMARK VINA RESULT:      -5.0      3.911      5.670
REMARK  8 active torsions:
REMARK  status: ('A' for Active; 'I' for Inactive)
REMARK    1  A    between atoms: C_2  and  C_1 
REMARK    2  A    between atoms: O_7  and  C_1 
REMARK    3  A    between atoms: C_3  and  O_8 
REMARK    4  A    between atoms: C_4  and  O_9 
REMARK    5  A    between atoms: C_5  and  O_15 
REMARK    6  A    between atoms: C_6  and  O_10 
REMARK    7  A    between atoms: S_16  and  O_11 
REMARK    8  A    between atoms: S_16  and  O_15 
ROOT
HETATM    1  C   UNK N   1      32.665  15.196   8.317  0.00  0.00     0.179 C 
HETATM    2  C   UNK N   1      31.721  16.340   8.793  0.00  0.00     0.182 C 
HETATM    3  C   UNK N   1      31.326  16.413   6.299  0.00  0.00     0.206 C 
HETATM    4  C   UNK N   1      30.713  16.720   7.674  0.00  0.00     0.209 C 
HETATM    5  C   UNK N   1      31.579  14.870   6.245  0.00  0.00     0.288 C 
HETATM    6  O   UNK N   1      31.979  14.284   7.488  0.00  0.00    -0.349 OA
ENDROOT
BRANCH   4   7
HETATM    7  O   UNK N   1      30.091  17.983   7.871  0.00  0.00    -0.253 OA
BRANCH   7   8
HETATM    8  S   UNK N   1      28.351  17.973   7.867  0.00  0.00     0.240 S 
HETATM    9  O   UNK N   1      27.789  16.866   6.962  0.00  0.00    -0.579 OA
HETATM   10  O   UNK N   1      27.932  19.246   7.117  0.00  0.00    -0.579 OA
BRANCH   8  11
HETATM   11  O   UNK N   1      27.500  18.023   9.358  0.00  0.00    -0.274 OA
HETATM   12  H   UNK N   1      26.895  18.691   9.716  0.00  0.00     0.234 HD
ENDBRANCH   8  11
ENDBRANCH   7   8
ENDBRANCH   4   7
BRANCH   2  13
HETATM   13  O   UNK N   1      32.518  17.427   9.157  0.00  0.00    -0.390 OA
HETATM   14  H   UNK N   1      32.309  18.327   9.451  0.00  0.00     0.210 HD
ENDBRANCH   2  13
BRANCH   3  15
HETATM   15  O   UNK N   1      30.478  16.792   5.255  0.00  0.00    -0.388 OA
HETATM   16  H   UNK N   1      29.723  17.395   5.353  0.00  0.00     0.210 HD
ENDBRANCH   3  15
BRANCH   1  17
HETATM   17  C   UNK N   1      33.258  14.435   9.499  0.00  0.00     0.198 C 
BRANCH  17  18
HETATM   18  O   UNK N   1      32.802  14.953  10.713  0.00  0.00    -0.398 OA
HETATM   19  H   UNK N   1      32.336  15.788  10.873  0.00  0.00     0.209 HD
ENDBRANCH  17  18
ENDBRANCH   1  17
BRANCH   5  20
HETATM   20  O   UNK N   1      30.390  14.238   5.867  0.00  0.00    -0.369 OA
HETATM   21  H   UNK N   1      29.927  13.394   5.745  0.00  0.00     0.212 HD
ENDBRANCH   5  20
TORSDOF 8
ENDMDL
MODEL 7
REMARK VINA RESULT:      -5.0      1.340      2.012
REMARK  8 active torsions:
REMARK  status: ('A' for Active; 'I' for Inactive)
REMARK    1  A    between atoms: C_2  and  C_1 
REMARK    2  A    between atoms: O_7  and  C_1 
REMARK    3  A    between atoms: C_3  and  O_8 
REMARK    4  A    between atoms: C_4  and  O_9 
REMARK    5  A    between atoms: C_5  and  O_15 
REMARK    6  A    between atoms: C_6  and  O_10 
REMARK    7  A    between atoms: S_16  and  O_11 
REMARK    8  A    between atoms: S_16  and  O_15 
ROOT
HETATM    1  C   UNK N   1      35.018  13.140  10.349  0.00  0.00     0.179 C 
HETATM    2  C   UNK N   1      34.193  13.845   9.232  0.00  0.00     0.182 C 
HETATM    3  C   UNK N   1      34.774  15.817  10.700  0.00  0.00     0.206 C 
HETATM    4  C   UNK N   1      34.419  15.381   9.270  0.00  0.00     0.209 C 
HETATM    5  C   UNK N   1      36.114  15.102  11.077  0.00  0.00     0.288 C 
HETATM    6  O   UNK N   1      36.259  13.781  10.545  0.00  0.00    -0.349 OA
ENDROOT
BRANCH   4   7
HETATM    7  O   UNK N   1      33.433  16.121   8.563  0.00  0.00    -0.253 OA
BRANCH   7   8
HETATM    8  S   UNK N   1      34.040  17.244   7.380  0.00  0.00     0.240 S 
HETATM    9  O   UNK N   1      32.952  17.663   6.380  0.00  0.00    -0.579 OA
HETATM   10  O   UNK N   1      34.997  16.433   6.494  0.00  0.00    -0.579 OA
BRANCH   8  11
HETATM   11  O   UNK N   1      34.945  18.610   7.895  0.00  0.00    -0.274 OA
HETATM   12  H   UNK N   1      35.461  18.755   8.703  0.00  0.00     0.234 HD
ENDBRANCH   8  11
ENDBRANCH   7   8
ENDBRANCH   4   7
BRANCH   2  13
HETATM   13  O   UNK N   1      32.850  13.518   9.423  0.00  0.00    -0.390 OA
HETATM   14  H   UNK N   1      32.399  12.918  10.038  0.00  0.00     0.210 HD
ENDBRANCH   2  13
BRANCH   3  15
HETATM   15  O   UNK N   1      34.931  17.202  10.798  0.00  0.00    -0.388 OA
HETATM   16  H   UNK N   1      35.700  17.691  10.467  0.00  0.00     0.210 HD
ENDBRANCH   3  15
BRANCH   1  17
HETATM   17  C   UNK N   1      35.270  11.673  10.014  0.00  0.00     0.198 C 
BRANCH  17  18
HETATM   18  O   UNK N   1      34.083  10.940  10.033  0.00  0.00    -0.398 OA
HETATM   19  H   UNK N   1      33.582  10.586   9.281  0.00  0.00     0.209 HD
ENDBRANCH  17  18
ENDBRANCH   1  17
BRANCH   5  20
HETATM   20  O   UNK N   1      37.177  15.857  10.572  0.00  0.00    -0.369 OA
HETATM   21  H   UNK N   1      37.939  16.421  10.782  0.00  0.00     0.212 HD
ENDBRANCH   5  20
TORSDOF 8
ENDMDL
MODEL 8
REMARK VINA RESULT:      -4.9      6.004      8.163
REMARK  8 active torsions:
REMARK  status: ('A' for Active; 'I' for Inactive)
REMARK    1  A    between atoms: C_2  and  C_1 
REMARK    2  A    between atoms: O_7  and  C_1 
REMARK    3  A    between atoms: C_3  and  O_8 
REMARK    4  A    between atoms: C_4  and  O_9 
REMARK    5  A    between atoms: C_5  and  O_15 
REMARK    6  A    between atoms: C_6  and  O_10 
REMARK    7  A    between atoms: S_16  and  O_11 
REMARK    8  A    between atoms: S_16  and  O_15 
ROOT
HETATM    1  C   UNK N   1      27.313  19.507   6.644  0.00  0.00     0.179 C 
HETATM    2  C   UNK N   1      28.308  19.024   7.740  0.00  0.00     0.182 C 
HETATM    3  C   UNK N   1      28.485  17.129   6.080  0.00  0.00     0.206 C 
HETATM    4  C   UNK N   1      29.219  17.891   7.193  0.00  0.00     0.209 C 
HETATM    5  C   UNK N   1      28.210  18.153   4.929  0.00  0.00     0.288 C 
HETATM    6  O   UNK N   1      27.913  19.482   5.368  0.00  0.00    -0.349 OA
ENDROOT
BRANCH   4   7
HETATM    7  O   UNK N   1      29.871  17.142   8.210  0.00  0.00    -0.253 OA
BRANCH   7   8
HETATM    8  S   UNK N   1      31.571  16.863   7.966  0.00  0.00     0.240 S 
HETATM    9  O   UNK N   1      32.011  17.234   6.542  0.00  0.00    -0.579 OA
HETATM   10  O   UNK N   1      31.744  15.337   7.969  0.00  0.00    -0.579 OA
BRANCH   8  11
HETATM   11  O   UNK N   1      32.701  17.450   9.118  0.00  0.00    -0.274 OA
HETATM   12  H   UNK N   1      33.055  18.342   9.255  0.00  0.00     0.234 HD
ENDBRANCH   8  11
ENDBRANCH   7   8
ENDBRANCH   4   7
BRANCH   2  13
HETATM   13  O   UNK N   1      27.559  18.596   8.838  0.00  0.00    -0.390 OA
HETATM   14  H   UNK N   1      27.488  18.915   9.751  0.00  0.00     0.210 HD
ENDBRANCH   2  13
BRANCH   3  15
HETATM   15  O   UNK N   1      29.243  16.061   5.594  0.00  0.00    -0.388 OA
HETATM   16  H   UNK N   1      29.188  15.152   5.929  0.00  0.00     0.210 HD
ENDBRANCH   3  15
BRANCH   1  17
HETATM   17  C   UNK N   1      26.816  20.922   6.926  0.00  0.00     0.198 C 
BRANCH  17  18
HETATM   18  O   UNK N   1      25.989  20.951   8.050  0.00  0.00    -0.398 OA
HETATM   19  H   UNK N   1      26.230  20.812   8.979  0.00  0.00     0.209 HD
ENDBRANCH  17  18
ENDBRANCH   1  17
BRANCH   5  20
HETATM   20  O   UNK N   1      29.353  18.240   4.129  0.00  0.00    -0.369 OA
HETATM   21  H   UNK N   1      30.318  18.140   4.084  0.00  0.00     0.212 HD
ENDBRANCH   5  20
TORSDOF 8
ENDMDL
MODEL 9
REMARK VINA RESULT:      -4.8     12.906     14.177
REMARK  8 active torsions:
REMARK  status: ('A' for Active; 'I' for Inactive)
REMARK    1  A    between atoms: C_2  and  C_1 
REMARK    2  A    between atoms: O_7  and  C_1 
REMARK    3  A    between atoms: C_3  and  O_8 
REMARK    4  A    between atoms: C_4  and  O_9 
REMARK    5  A    between atoms: C_5  and  O_15 
REMARK    6  A    between atoms: C_6  and  O_10 
REMARK    7  A    between atoms: S_16  and  O_11 
REMARK    8  A    between atoms: S_16  and  O_15 
ROOT
HETATM    1  C   UNK N   1      42.526  21.390   2.001  0.00  0.00     0.179 C 
HETATM    2  C   UNK N   1      42.969  22.882   1.931  0.00  0.00     0.182 C 
HETATM    3  C   UNK N   1      44.572  22.000   3.672  0.00  0.00     0.206 C 
HETATM    4  C   UNK N   1      44.361  23.073   2.593  0.00  0.00     0.209 C 
HETATM    5  C   UNK N   1      44.546  20.613   2.948  0.00  0.00     0.288 C 
HETATM    6  O   UNK N   1      43.631  20.526   1.851  0.00  0.00    -0.349 OA
ENDROOT
BRANCH   4   7
HETATM    7  O   UNK N   1      44.659  24.425   2.916  0.00  0.00    -0.253 OA
BRANCH   7   8
HETATM    8  S   UNK N   1      45.734  25.241   1.818  0.00  0.00     0.240 S 
HETATM    9  O   UNK N   1      45.238  26.654   1.478  0.00  0.00    -0.579 OA
HETATM   10  O   UNK N   1      45.580  24.514   0.473  0.00  0.00    -0.579 OA
BRANCH   8  11
HETATM   11  O   UNK N   1      47.421  25.254   2.136  0.00  0.00    -0.274 OA
HETATM   12  H   UNK N   1      47.934  25.745   2.796  0.00  0.00     0.234 HD
ENDBRANCH   8  11
ENDBRANCH   7   8
ENDBRANCH   4   7
BRANCH   2  13
HETATM   13  O   UNK N   1      41.989  23.648   2.565  0.00  0.00    -0.390 OA
HETATM   14  H   UNK N   1      41.190  24.094   2.242  0.00  0.00     0.210 HD
ENDBRANCH   2  13
BRANCH   3  15
HETATM   15  O   UNK N   1      45.789  22.165   4.338  0.00  0.00    -0.388 OA
HETATM   16  H   UNK N   1      45.878  22.508   5.241  0.00  0.00     0.210 HD
ENDBRANCH   3  15
BRANCH   1  17
HETATM   17  C   UNK N   1      41.496  21.063   0.924  0.00  0.00     0.198 C 
BRANCH  17  18
HETATM   18  O   UNK N   1      41.339  22.128   0.036  0.00  0.00    -0.398 OA
HETATM   19  H   UNK N   1      41.351  23.079   0.228  0.00  0.00     0.209 HD
ENDBRANCH  17  18
ENDBRANCH   1  17
BRANCH   5  20
HETATM   20  O   UNK N   1      45.819  20.357   2.430  0.00  0.00    -0.369 OA
HETATM   21  H   UNK N   1      46.704  20.713   2.249  0.00  0.00     0.212 HD
ENDBRANCH   5  20
TORSDOF 8
ENDMDL
