MODEL 1
REMARK VINA RESULT:      -4.3      0.000      0.000
REMARK  0 active torsions:
REMARK  status: ('A' for Active; 'I' for Inactive)
ROOT
HETATM    1  O   UNK N   1      24.844  12.671   9.573  0.00  0.00    -0.273 OA
HETATM    2  C   UNK N   1      23.930  12.449  10.348  0.00  0.00     0.227 A 
HETATM    3  C   UNK N   1      22.527  12.403   9.822  0.00  0.00     0.123 A 
HETATM    4  C   UNK N   1      21.447  12.119  10.869  0.00  0.00     0.133 A 
HETATM    5  N   UNK N   1      21.933  11.935  12.221  0.00  0.00    -0.342 N 
HETATM    6  C   UNK N   1      23.239  12.001  12.576  0.00  0.00     0.322 A 
HETATM    7  O   UNK N   1      23.550  11.832  13.742  0.00  0.00    -0.247 OA
HETATM    8  N   UNK N   1      24.202  12.251  11.659  0.00  0.00    -0.279 N 
HETATM    9  H   UNK N   1      21.272  11.749  12.927  0.00  0.00     0.164 HD
HETATM   10  H   UNK N   1      25.140  12.292  11.958  0.00  0.00     0.173 HD
ENDROOT
TORSDOF 0
ENDMDL
MODEL 2
REMARK VINA RESULT:      -4.3      1.610      2.379
REMARK  0 active torsions:
REMARK  status: ('A' for Active; 'I' for Inactive)
ROOT
HETATM    1  O   UNK N   1      20.374  12.455  10.573  0.00  0.00    -0.273 OA
HETATM    2  C   UNK N   1      21.557  12.370  10.852  0.00  0.00     0.227 A 
HETATM    3  C   UNK N   1      22.574  12.559   9.767  0.00  0.00     0.123 A 
HETATM    4  C   UNK N   1      24.033  12.435  10.212  0.00  0.00     0.133 A 
HETATM    5  N   UNK N   1      24.226  12.151  11.619  0.00  0.00    -0.342 N 
HETATM    6  C   UNK N   1      23.217  12.000  12.510  0.00  0.00     0.322 A 
HETATM    7  O   UNK N   1      23.480  11.762  13.677  0.00  0.00    -0.247 OA
HETATM    8  N   UNK N   1      21.923  12.108  12.128  0.00  0.00    -0.279 N 
HETATM    9  H   UNK N   1      25.149  12.062  11.949  0.00  0.00     0.164 HD
HETATM   10  H   UNK N   1      21.219  11.991  12.806  0.00  0.00     0.173 HD
ENDROOT
TORSDOF 0
ENDMDL
MODEL 3
REMARK VINA RESULT:      -4.1     11.183     12.234
REMARK  0 active torsions:
REMARK  status: ('A' for Active; 'I' for Inactive)
ROOT
HETATM    1  O   UNK N   1      35.334  19.226   8.400  0.00  0.00    -0.273 OA
HETATM    2  C   UNK N   1      34.609  18.275   8.637  0.00  0.00     0.227 A 
HETATM    3  C   UNK N   1      33.328  18.131   7.873  0.00  0.00     0.123 A 
HETATM    4  C   UNK N   1      32.484  16.908   8.238  0.00  0.00     0.133 A 
HETATM    5  N   UNK N   1      33.043  16.061   9.272  0.00  0.00    -0.342 N 
HETATM    6  C   UNK N   1      34.222  16.298   9.895  0.00  0.00     0.322 A 
HETATM    7  O   UNK N   1      34.610  15.526  10.755  0.00  0.00    -0.247 OA
HETATM    8  N   UNK N   1      34.977  17.377   9.580  0.00  0.00    -0.279 N 
HETATM    9  H   UNK N   1      32.533  15.262   9.539  0.00  0.00     0.164 HD
HETATM   10  H   UNK N   1      35.828  17.514  10.055  0.00  0.00     0.173 HD
ENDROOT
TORSDOF 0
ENDMDL
MODEL 4
REMARK VINA RESULT:      -3.9      2.038      3.083
REMARK  0 active torsions:
REMARK  status: ('A' for Active; 'I' for Inactive)
ROOT
HETATM    1  O   UNK N   1      20.690  12.868   9.773  0.00  0.00    -0.273 OA
HETATM    2  C   UNK N   1      21.791  12.712  10.271  0.00  0.00     0.227 A 
HETATM    3  C   UNK N   1      21.890  12.093  11.633  0.00  0.00     0.123 A 
HETATM    4  C   UNK N   1      23.312  11.937  12.177  0.00  0.00     0.133 A 
HETATM    5  N   UNK N   1      24.363  12.411  11.299  0.00  0.00    -0.342 N 
HETATM    6  C   UNK N   1      24.145  12.957  10.078  0.00  0.00     0.322 A 
HETATM    7  O   UNK N   1      25.096  13.327   9.411  0.00  0.00    -0.247 OA
HETATM    8  N   UNK N   1      22.892  13.100   9.587  0.00  0.00    -0.279 N 
HETATM    9  H   UNK N   1      25.294  12.330  11.608  0.00  0.00     0.164 HD
HETATM   10  H   UNK N   1      22.777  13.502   8.696  0.00  0.00     0.173 HD
ENDROOT
TORSDOF 0
ENDMDL
MODEL 5
REMARK VINA RESULT:      -3.9      1.889      2.315
REMARK  0 active torsions:
REMARK  status: ('A' for Active; 'I' for Inactive)
ROOT
HETATM    1  O   UNK N   1      24.692  11.853  11.836  0.00  0.00    -0.273 OA
HETATM    2  C   UNK N   1      23.673  12.098  11.214  0.00  0.00     0.227 A 
HETATM    3  C   UNK N   1      23.785  12.558   9.792  0.00  0.00     0.123 A 
HETATM    4  C   UNK N   1      22.453  12.841   9.092  0.00  0.00     0.133 A 
HETATM    5  N   UNK N   1      21.273  12.624   9.902  0.00  0.00    -0.342 N 
HETATM    6  C   UNK N   1      21.301  12.202  11.190  0.00  0.00     0.322 A 
HETATM    7  O   UNK N   1      20.252  12.048  11.791  0.00  0.00    -0.247 OA
HETATM    8  N   UNK N   1      22.472  11.949  11.819  0.00  0.00    -0.279 N 
HETATM    9  H   UNK N   1      20.394  12.793   9.493  0.00  0.00     0.164 HD
HETATM   10  H   UNK N   1      22.450  11.644  12.755  0.00  0.00     0.173 HD
ENDROOT
TORSDOF 0
ENDMDL
MODEL 6
REMARK VINA RESULT:      -3.9      1.263      2.918
REMARK  0 active torsions:
REMARK  status: ('A' for Active; 'I' for Inactive)
ROOT
HETATM    1  O   UNK N   1      23.783  11.831  13.029  0.00  0.00    -0.273 OA
HETATM    2  C   UNK N   1      23.505  12.159  11.889  0.00  0.00     0.227 A 
HETATM    3  C   UNK N   1      22.082  12.050  11.430  0.00  0.00     0.123 A 
HETATM    4  C   UNK N   1      21.829  12.484   9.984  0.00  0.00     0.133 A 
HETATM    5  N   UNK N   1      23.000  12.938   9.263  0.00  0.00    -0.342 N 
HETATM    6  C   UNK N   1      24.246  12.991   9.792  0.00  0.00     0.322 A 
HETATM    7  O   UNK N   1      25.171  13.389   9.105  0.00  0.00    -0.247 OA
HETATM    8  N   UNK N   1      24.482  12.610  11.069  0.00  0.00    -0.279 N 
HETATM    9  H   UNK N   1      22.884  13.227   8.329  0.00  0.00     0.164 HD
HETATM   10  H   UNK N   1      25.402  12.664  11.416  0.00  0.00     0.173 HD
ENDROOT
TORSDOF 0
ENDMDL
MODEL 7
REMARK VINA RESULT:      -3.8      1.931      2.479
REMARK  0 active torsions:
REMARK  status: ('A' for Active; 'I' for Inactive)
ROOT
HETATM    1  O   UNK N   1      24.760  13.064   9.624  0.00  0.00    -0.273 OA
HETATM    2  C   UNK N   1      23.811  12.729  10.311  0.00  0.00     0.227 A 
HETATM    3  C   UNK N   1      24.068  12.052  11.623  0.00  0.00     0.123 A 
HETATM    4  C   UNK N   1      22.816  11.668  12.415  0.00  0.00     0.133 A 
HETATM    5  N   UNK N   1      21.558  12.013  11.785  0.00  0.00    -0.342 N 
HETATM    6  C   UNK N   1      21.454  12.630  10.583  0.00  0.00     0.322 A 
HETATM    7  O   UNK N   1      20.349  12.880  10.133  0.00  0.00    -0.247 OA
HETATM    8  N   UNK N   1      22.554  12.974   9.874  0.00  0.00    -0.279 N 
HETATM    9  H   UNK N   1      20.726  11.785  12.259  0.00  0.00     0.164 HD
HETATM   10  H   UNK N   1      22.436  13.422   9.005  0.00  0.00     0.173 HD
ENDROOT
TORSDOF 0
ENDMDL
MODEL 8
REMARK VINA RESULT:      -3.8     10.836     12.025
REMARK  0 active torsions:
REMARK  status: ('A' for Active; 'I' for Inactive)
ROOT
HETATM    1  O   UNK N   1      35.648  17.698  10.225  0.00  0.00    -0.273 OA
HETATM    2  C   UNK N   1      35.138  16.617  10.465  0.00  0.00     0.227 A 
HETATM    3  C   UNK N   1      35.757  15.739  11.510  0.00  0.00     0.123 A 
HETATM    4  C   UNK N   1      35.048  14.403  11.742  0.00  0.00     0.133 A 
HETATM    5  N   UNK N   1      33.879  14.174  10.919  0.00  0.00    -0.342 N 
HETATM    6  C   UNK N   1      33.413  15.053   9.999  0.00  0.00     0.322 A 
HETATM    7  O   UNK N   1      32.418  14.771   9.353  0.00  0.00    -0.247 OA
HETATM    8  N   UNK N   1      34.032  16.238   9.785  0.00  0.00    -0.279 N 
HETATM    9  H   UNK N   1      33.391  13.327  11.035  0.00  0.00     0.164 HD
HETATM   10  H   UNK N   1      33.661  16.849   9.108  0.00  0.00     0.173 HD
ENDROOT
TORSDOF 0
ENDMDL
MODEL 9
REMARK VINA RESULT:      -3.7     19.970     20.978
REMARK  0 active torsions:
REMARK  status: ('A' for Active; 'I' for Inactive)
ROOT
HETATM    1  O   UNK N   1      25.293  24.679  -6.808  0.00  0.00    -0.273 OA
HETATM    2  C   UNK N   1      25.613  25.194  -5.752  0.00  0.00     0.227 A 
HETATM    3  C   UNK N   1      25.470  26.678  -5.596  0.00  0.00     0.123 A 
HETATM    4  C   UNK N   1      25.897  27.235  -4.235  0.00  0.00     0.133 A 
HETATM    5  N   UNK N   1      26.378  26.249  -3.290  0.00  0.00    -0.342 N 
HETATM    6  C   UNK N   1      26.461  24.922  -3.551  0.00  0.00     0.322 A 
HETATM    7  O   UNK N   1      26.881  24.169  -2.688  0.00  0.00    -0.247 OA
HETATM    8  N   UNK N   1      26.087  24.419  -4.750  0.00  0.00    -0.279 N 
HETATM    9  H   UNK N   1      26.664  26.563  -2.402  0.00  0.00     0.164 HD
HETATM   10  H   UNK N   1      26.163  23.448  -4.899  0.00  0.00     0.173 HD
ENDROOT
TORSDOF 0
ENDMDL
