MODEL 1
REMARK VINA RESULT:      -8.1      0.000      0.000
REMARK  16 active torsions:
REMARK  status: ('A' for Active; 'I' for Inactive)
REMARK    1  A    between atoms: C_22  and  O_2 
REMARK    2  A    between atoms: O_2  and  C_26 
REMARK    3  A    between atoms: C_18  and  O_4 
REMARK    4  A    between atoms: C_19  and  O_5 
REMARK    5  A    between atoms: C_25  and  O_6 
REMARK    6  A    between atoms: O_6  and  C_29 
REMARK    7  A    between atoms: C_20  and  O_7 
REMARK    8  A    between atoms: C_21  and  O_8 
REMARK    9  A    between atoms: C_23  and  O_9 
REMARK   10  A    between atoms: C_24  and  O_10 
REMARK   11  A    between atoms: O_13  and  C_35 
REMARK   12  A    between atoms: O_14  and  C_40 
REMARK   13  A    between atoms: O_15  and  C_41 
REMARK   14  A    between atoms: O_16  and  C_43 
REMARK   15  A    between atoms: C_17  and  C_26 
REMARK   16  A    between atoms: C_30  and  C_33 
ROOT
HETATM    1  O   UNK N   1      23.175  13.616   3.622  0.00  0.00    -0.348 OA
HETATM    2  C   UNK N   1      23.450  14.974   3.441  0.00  0.00     0.180 C 
HETATM    3  C   UNK N   1      24.796  15.232   2.778  0.00  0.00     0.180 C 
HETATM    4  C   UNK N   1      25.857  14.261   3.311  0.00  0.00     0.183 C 
HETATM    5  C   UNK N   1      25.436  13.447   4.566  0.00  0.00     0.205 C 
HETATM    6  C   UNK N   1      23.911  13.271   4.777  0.00  0.00     0.298 C 
ENDROOT
BRANCH   6   7
HETATM    7  O   UNK N   1      23.480  13.993   5.891  0.00  0.00    -0.311 OA
BRANCH   7   8
HETATM    8  C   UNK N   1      23.153  13.409   7.074  0.00  0.00     0.157 A 
HETATM    9  C   UNK N   1      21.887  12.799   7.298  0.00  0.00     0.124 A 
HETATM   10  O   UNK N   1      21.607  12.289   8.496  0.00  0.00    -0.306 OA
HETATM   11  C   UNK N   1      22.457  12.298   9.516  0.00  0.00     0.096 A 
HETATM   12  C   UNK N   1      23.740  12.874   9.376  0.00  0.00     0.084 A 
HETATM   13  C   UNK N   1      22.070  11.731  10.733  0.00  0.00     0.075 A 
HETATM   14  C   UNK N   1      24.081  13.424   8.127  0.00  0.00     0.223 A 
HETATM   15  C   UNK N   1      24.612  12.883  10.495  0.00  0.00     0.085 A 
HETATM   16  O   UNK N   1      25.177  13.931   7.952  0.00  0.00    -0.284 OA
HETATM   17  C   UNK N   1      24.205  12.315  11.704  0.00  0.00     0.074 A 
HETATM   18  C   UNK N   1      22.941  11.737  11.823  0.00  0.00     0.071 A 
BRANCH   9  19
HETATM   19  C   UNK N   1      20.842  12.693   6.247  0.00  0.00     0.004 A 
HETATM   20  C   UNK N   1      20.220  13.863   5.788  0.00  0.00     0.053 A 
HETATM   21  C   UNK N   1      19.282  13.808   4.754  0.00  0.00     0.099 A 
HETATM   22  C   UNK N   1      18.943  12.576   4.180  0.00  0.00     0.098 A 
HETATM   23  C   UNK N   1      19.524  11.404   4.660  0.00  0.00     0.040 A 
HETATM   24  C   UNK N   1      20.464  11.466   5.688  0.00  0.00     0.017 A 
BRANCH  21  25
HETATM   25  O   UNK N   1      18.721  14.943   4.305  0.00  0.00    -0.358 OA
HETATM   26  H   UNK N   1      19.089  15.804   4.319  0.00  0.00     0.217 HD
ENDBRANCH  21  25
BRANCH  22  27
HETATM   27  O   UNK N   1      18.062  12.514   3.168  0.00  0.00    -0.358 OA
HETATM   28  H   UNK N   1      17.491  13.238   2.998  0.00  0.00     0.217 HD
ENDBRANCH  22  27
ENDBRANCH   9  19
BRANCH  15  29
HETATM   29  O   UNK N   1      25.833  13.438  10.421  0.00  0.00    -0.360 OA
HETATM   30  H   UNK N   1      26.076  14.139  10.992  0.00  0.00     0.217 HD
ENDBRANCH  15  29
BRANCH  18  31
HETATM   31  O   UNK N   1      22.562  11.188  12.988  0.00  0.00    -0.361 OA
HETATM   32  H   UNK N   1      21.902  11.581  13.524  0.00  0.00     0.217 HD
ENDBRANCH  18  31
ENDBRANCH   7   8
ENDBRANCH   6   7
BRANCH   5  33
HETATM   33  O   UNK N   1      26.077  12.205   4.581  0.00  0.00    -0.388 OA
HETATM   34  H   UNK N   1      26.098  11.646   3.789  0.00  0.00     0.210 HD
ENDBRANCH   5  33
BRANCH   2  35
HETATM   35  C   UNK N   1      22.278  15.815   3.011  0.00  0.00     0.205 C 
BRANCH  35  36
HETATM   36  O   UNK N   1      21.677  16.221   4.197  0.00  0.00    -0.356 OA
BRANCH  36  37
HETATM   37  C   UNK N   1      21.605  17.607   4.175  0.00  0.00     0.291 C 
HETATM   38  O   UNK N   1      22.845  18.097   3.715  0.00  0.00    -0.351 OA
HETATM   39  C   UNK N   1      22.808  19.503   3.761  0.00  0.00     0.152 C 
HETATM   40  C   UNK N   1      21.844  20.014   2.688  0.00  0.00     0.178 C 
HETATM   41  C   UNK N   1      24.205  20.036   3.497  0.00  0.00     0.042 C 
HETATM   42  C   UNK N   1      20.451  19.486   3.014  0.00  0.00     0.183 C 
HETATM   43  C   UNK N   1      20.500  17.976   3.184  0.00  0.00     0.204 C 
BRANCH  40  44
HETATM   44  O   UNK N   1      21.820  21.409   2.676  0.00  0.00    -0.390 OA
HETATM   45  H   UNK N   1      21.355  21.926   2.000  0.00  0.00     0.210 HD
ENDBRANCH  40  44
BRANCH  42  46
HETATM   46  O   UNK N   1      19.562  19.812   1.990  0.00  0.00    -0.390 OA
HETATM   47  H   UNK N   1      19.488  19.332   1.150  0.00  0.00     0.210 HD
ENDBRANCH  42  46
BRANCH  43  48
HETATM   48  O   UNK N   1      19.268  17.507   3.646  0.00  0.00    -0.388 OA
HETATM   49  H   UNK N   1      18.391  17.627   3.247  0.00  0.00     0.210 HD
ENDBRANCH  43  48
ENDBRANCH  36  37
ENDBRANCH  35  36
ENDBRANCH   2  35
BRANCH   4  50
HETATM   50  O   UNK N   1      26.263  13.421   2.274  0.00  0.00    -0.390 OA
HETATM   51  H   UNK N   1      26.621  13.533   1.379  0.00  0.00     0.210 HD
ENDBRANCH   4  50
BRANCH   3  52
HETATM   52  O   UNK N   1      25.197  16.546   3.021  0.00  0.00    -0.390 OA
HETATM   53  H   UNK N   1      25.262  17.160   3.770  0.00  0.00     0.210 HD
ENDBRANCH   3  52
TORSDOF 16
ENDMDL
MODEL 2
REMARK VINA RESULT:      -8.0      8.780     13.305
REMARK  16 active torsions:
REMARK  status: ('A' for Active; 'I' for Inactive)
REMARK    1  A    between atoms: C_22  and  O_2 
REMARK    2  A    between atoms: O_2  and  C_26 
REMARK    3  A    between atoms: C_18  and  O_4 
REMARK    4  A    between atoms: C_19  and  O_5 
REMARK    5  A    between atoms: C_25  and  O_6 
REMARK    6  A    between atoms: O_6  and  C_29 
REMARK    7  A    between atoms: C_20  and  O_7 
REMARK    8  A    between atoms: C_21  and  O_8 
REMARK    9  A    between atoms: C_23  and  O_9 
REMARK   10  A    between atoms: C_24  and  O_10 
REMARK   11  A    between atoms: O_13  and  C_35 
REMARK   12  A    between atoms: O_14  and  C_40 
REMARK   13  A    between atoms: O_15  and  C_41 
REMARK   14  A    between atoms: O_16  and  C_43 
REMARK   15  A    between atoms: C_17  and  C_26 
REMARK   16  A    between atoms: C_30  and  C_33 
ROOT
HETATM    1  O   UNK N   1      34.778  15.376   5.226  0.00  0.00    -0.348 OA
HETATM    2  C   UNK N   1      34.916  14.085   5.743  0.00  0.00     0.180 C 
HETATM    3  C   UNK N   1      35.489  13.094   4.741  0.00  0.00     0.180 C 
HETATM    4  C   UNK N   1      34.907  13.342   3.342  0.00  0.00     0.183 C 
HETATM    5  C   UNK N   1      33.697  14.314   3.294  0.00  0.00     0.205 C 
HETATM    6  C   UNK N   1      33.585  15.314   4.472  0.00  0.00     0.298 C 
ENDROOT
BRANCH   6   7
HETATM    7  O   UNK N   1      32.487  15.008   5.277  0.00  0.00    -0.311 OA
BRANCH   7   8
HETATM    8  C   UNK N   1      31.463  15.873   5.500  0.00  0.00     0.157 A 
HETATM    9  C   UNK N   1      31.450  16.769   6.605  0.00  0.00     0.124 A 
HETATM   10  O   UNK N   1      30.394  17.558   6.797  0.00  0.00    -0.306 OA
HETATM   11  C   UNK N   1      29.334  17.575   5.999  0.00  0.00     0.096 A 
HETATM   12  C   UNK N   1      29.271  16.725   4.872  0.00  0.00     0.084 A 
HETATM   13  C   UNK N   1      28.277  18.444   6.284  0.00  0.00     0.075 A 
HETATM   14  C   UNK N   1      30.364  15.875   4.627  0.00  0.00     0.223 A 
HETATM   15  C   UNK N   1      28.112  16.758   4.054  0.00  0.00     0.085 A 
HETATM   16  O   UNK N   1      30.362  15.125   3.665  0.00  0.00    -0.284 OA
HETATM   17  C   UNK N   1      27.065  17.631   4.358  0.00  0.00     0.074 A 
HETATM   18  C   UNK N   1      27.148  18.475   5.465  0.00  0.00     0.071 A 
BRANCH   9  19
HETATM   19  C   UNK N   1      32.573  16.879   7.572  0.00  0.00     0.004 A 
HETATM   20  C   UNK N   1      33.482  17.938   7.440  0.00  0.00     0.053 A 
HETATM   21  C   UNK N   1      34.509  18.110   8.372  0.00  0.00     0.099 A 
HETATM   22  C   UNK N   1      34.648  17.211   9.437  0.00  0.00     0.098 A 
HETATM   23  C   UNK N   1      33.775  16.130   9.550  0.00  0.00     0.040 A 
HETATM   24  C   UNK N   1      32.749  15.967   8.621  0.00  0.00     0.017 A 
BRANCH  21  25
HETATM   25  O   UNK N   1      35.350  19.150   8.248  0.00  0.00    -0.358 OA
HETATM   26  H   UNK N   1      35.782  19.444   7.471  0.00  0.00     0.217 HD
ENDBRANCH  21  25
BRANCH  22  27
HETATM   27  O   UNK N   1      35.616  17.381  10.352  0.00  0.00    -0.358 OA
HETATM   28  H   UNK N   1      35.729  18.214  10.766  0.00  0.00     0.217 HD
ENDBRANCH  22  27
ENDBRANCH   9  19
BRANCH  15  29
HETATM   29  O   UNK N   1      27.993  15.955   2.983  0.00  0.00    -0.360 OA
HETATM   30  H   UNK N   1      28.748  15.688   2.499  0.00  0.00     0.217 HD
ENDBRANCH  15  29
BRANCH  18  31
HETATM   31  O   UNK N   1      26.139  19.315   5.745  0.00  0.00    -0.361 OA
HETATM   32  H   UNK N   1      25.997  20.095   5.245  0.00  0.00     0.217 HD
ENDBRANCH  18  31
ENDBRANCH   7   8
ENDBRANCH   6   7
BRANCH   5  33
HETATM   33  O   UNK N   1      33.665  14.994   2.073  0.00  0.00    -0.388 OA
HETATM   34  H   UNK N   1      32.825  15.290   1.690  0.00  0.00     0.210 HD
ENDBRANCH   5  33
BRANCH   2  35
HETATM   35  C   UNK N   1      35.404  14.012   7.166  0.00  0.00     0.205 C 
BRANCH  35  36
HETATM   36  O   UNK N   1      34.889  12.818   7.657  0.00  0.00    -0.356 OA
BRANCH  36  37
HETATM   37  C   UNK N   1      35.519  12.557   8.866  0.00  0.00     0.291 C 
HETATM   38  O   UNK N   1      36.715  13.305   8.900  0.00  0.00    -0.351 OA
HETATM   39  C   UNK N   1      37.399  12.989  10.088  0.00  0.00     0.152 C 
HETATM   40  C   UNK N   1      36.628  13.565  11.278  0.00  0.00     0.178 C 
HETATM   41  C   UNK N   1      38.788  13.599  10.027  0.00  0.00     0.042 C 
HETATM   42  C   UNK N   1      35.257  12.898  11.320  0.00  0.00     0.183 C 
HETATM   43  C   UNK N   1      34.575  13.037   9.969  0.00  0.00     0.204 C 
BRANCH  40  44
HETATM   44  O   UNK N   1      37.306  13.309  12.470  0.00  0.00    -0.390 OA
HETATM   45  H   UNK N   1      37.096  12.560  13.049  0.00  0.00     0.210 HD
ENDBRANCH  40  44
BRANCH  42  46
HETATM   46  O   UNK N   1      34.467  13.488  12.306  0.00  0.00    -0.390 OA
HETATM   47  H   UNK N   1      33.878  14.245  12.160  0.00  0.00     0.210 HD
ENDBRANCH  42  46
BRANCH  43  48
HETATM   48  O   UNK N   1      33.396  12.287   9.949  0.00  0.00    -0.388 OA
HETATM   49  H   UNK N   1      33.132  11.568  10.545  0.00  0.00     0.210 HD
ENDBRANCH  43  48
ENDBRANCH  36  37
ENDBRANCH  35  36
ENDBRANCH   2  35
BRANCH   4  50
HETATM   50  O   UNK N   1      35.933  13.765   2.495  0.00  0.00    -0.390 OA
HETATM   51  H   UNK N   1      36.481  13.363   1.803  0.00  0.00     0.210 HD
ENDBRANCH   4  50
BRANCH   3  52
HETATM   52  O   UNK N   1      35.197  11.791   5.146  0.00  0.00    -0.390 OA
HETATM   53  H   UNK N   1      34.516  11.117   4.993  0.00  0.00     0.210 HD
ENDBRANCH   3  52
TORSDOF 16
ENDMDL
MODEL 3
REMARK VINA RESULT:      -7.9      1.560      3.996
REMARK  16 active torsions:
REMARK  status: ('A' for Active; 'I' for Inactive)
REMARK    1  A    between atoms: C_22  and  O_2 
REMARK    2  A    between atoms: O_2  and  C_26 
REMARK    3  A    between atoms: C_18  and  O_4 
REMARK    4  A    between atoms: C_19  and  O_5 
REMARK    5  A    between atoms: C_25  and  O_6 
REMARK    6  A    between atoms: O_6  and  C_29 
REMARK    7  A    between atoms: C_20  and  O_7 
REMARK    8  A    between atoms: C_21  and  O_8 
REMARK    9  A    between atoms: C_23  and  O_9 
REMARK   10  A    between atoms: C_24  and  O_10 
REMARK   11  A    between atoms: O_13  and  C_35 
REMARK   12  A    between atoms: O_14  and  C_40 
REMARK   13  A    between atoms: O_15  and  C_41 
REMARK   14  A    between atoms: O_16  and  C_43 
REMARK   15  A    between atoms: C_17  and  C_26 
REMARK   16  A    between atoms: C_30  and  C_33 
ROOT
HETATM    1  O   UNK N   1      19.591  14.361   4.196  0.00  0.00    -0.348 OA
HETATM    2  C   UNK N   1      20.515  14.682   3.199  0.00  0.00     0.180 C 
HETATM    3  C   UNK N   1      20.810  13.523   2.256  0.00  0.00     0.180 C 
HETATM    4  C   UNK N   1      20.891  12.202   3.033  0.00  0.00     0.183 C 
HETATM    5  C   UNK N   1      20.944  12.347   4.579  0.00  0.00     0.205 C 
HETATM    6  C   UNK N   1      20.355  13.659   5.155  0.00  0.00     0.298 C 
ENDROOT
BRANCH   6   7
HETATM    7  O   UNK N   1      21.366  14.461   5.687  0.00  0.00    -0.311 OA
BRANCH   7   8
HETATM    8  C   UNK N   1      22.155  14.073   6.724  0.00  0.00     0.157 A 
HETATM    9  C   UNK N   1      23.573  14.018   6.623  0.00  0.00     0.124 A 
HETATM   10  O   UNK N   1      24.287  13.581   7.659  0.00  0.00    -0.306 OA
HETATM   11  C   UNK N   1      23.753  13.199   8.813  0.00  0.00     0.096 A 
HETATM   12  C   UNK N   1      22.353  13.235   9.002  0.00  0.00     0.084 A 
HETATM   13  C   UNK N   1      24.590  12.761   9.843  0.00  0.00     0.075 A 
HETATM   14  C   UNK N   1      21.557  13.691   7.936  0.00  0.00     0.223 A 
HETATM   15  C   UNK N   1      21.819  12.800  10.242  0.00  0.00     0.085 A 
HETATM   16  O   UNK N   1      20.343  13.745   8.048  0.00  0.00    -0.284 OA
HETATM   17  C   UNK N   1      22.672  12.362  11.257  0.00  0.00     0.074 A 
HETATM   18  C   UNK N   1      24.053  12.347  11.062  0.00  0.00     0.071 A 
BRANCH   9  19
HETATM   19  C   UNK N   1      24.315  14.431   5.404  0.00  0.00     0.004 A 
HETATM   20  C   UNK N   1      24.347  13.565   4.302  0.00  0.00     0.053 A 
HETATM   21  C   UNK N   1      24.977  13.951   3.117  0.00  0.00     0.099 A 
HETATM   22  C   UNK N   1      25.600  15.202   3.028  0.00  0.00     0.098 A 
HETATM   23  C   UNK N   1      25.612  16.051   4.134  0.00  0.00     0.040 A 
HETATM   24  C   UNK N   1      24.975  15.663   5.312  0.00  0.00     0.017 A 
BRANCH  21  25
HETATM   25  O   UNK N   1      24.969  13.122   2.060  0.00  0.00    -0.358 OA
HETATM   26  H   UNK N   1      24.533  13.247   1.240  0.00  0.00     0.217 HD
ENDBRANCH  21  25
BRANCH  22  27
HETATM   27  O   UNK N   1      26.188  15.593   1.886  0.00  0.00    -0.358 OA
HETATM   28  H   UNK N   1      25.672  15.724   1.114  0.00  0.00     0.217 HD
ENDBRANCH  22  27
ENDBRANCH   9  19
BRANCH  15  29
HETATM   29  O   UNK N   1      20.494  12.793  10.464  0.00  0.00    -0.360 OA
HETATM   30  H   UNK N   1      20.155  12.745  11.336  0.00  0.00     0.217 HD
ENDBRANCH  15  29
BRANCH  18  31
HETATM   31  O   UNK N   1      24.864  11.930  12.046  0.00  0.00    -0.361 OA
HETATM   32  H   UNK N   1      25.333  12.537  12.585  0.00  0.00     0.217 HD
ENDBRANCH  18  31
ENDBRANCH   7   8
ENDBRANCH   6   7
BRANCH   5  33
HETATM   33  O   UNK N   1      20.355  11.238   5.194  0.00  0.00    -0.388 OA
HETATM   34  H   UNK N   1      19.549  11.332   5.723  0.00  0.00     0.210 HD
ENDBRANCH   5  33
BRANCH   2  35
HETATM   35  C   UNK N   1      20.365  16.056   2.602  0.00  0.00     0.205 C 
BRANCH  35  36
HETATM   36  O   UNK N   1      19.603  16.763   3.526  0.00  0.00    -0.356 OA
BRANCH  36  37
HETATM   37  C   UNK N   1      20.149  18.034   3.631  0.00  0.00     0.291 C 
HETATM   38  O   UNK N   1      21.553  17.902   3.656  0.00  0.00    -0.351 OA
HETATM   39  C   UNK N   1      22.114  19.179   3.839  0.00  0.00     0.152 C 
HETATM   40  C   UNK N   1      21.894  20.008   2.571  0.00  0.00     0.178 C 
HETATM   41  C   UNK N   1      23.601  19.024   4.105  0.00  0.00     0.042 C 
HETATM   42  C   UNK N   1      20.391  20.168   2.366  0.00  0.00     0.183 C 
HETATM   43  C   UNK N   1      19.722  18.803   2.379  0.00  0.00     0.204 C 
BRANCH  40  44
HETATM   44  O   UNK N   1      22.481  21.267   2.703  0.00  0.00    -0.390 OA
HETATM   45  H   UNK N   1      22.024  22.026   3.100  0.00  0.00     0.210 HD
ENDBRANCH  40  44
BRANCH  42  46
HETATM   46  O   UNK N   1      20.139  20.801   1.149  0.00  0.00    -0.390 OA
HETATM   47  H   UNK N   1      19.260  21.076   0.843  0.00  0.00     0.210 HD
ENDBRANCH  42  46
BRANCH  43  48
HETATM   48  O   UNK N   1      18.333  18.951   2.360  0.00  0.00    -0.388 OA
HETATM   49  H   UNK N   1      17.655  18.260   2.396  0.00  0.00     0.210 HD
ENDBRANCH  43  48
ENDBRANCH  36  37
ENDBRANCH  35  36
ENDBRANCH   2  35
BRANCH   4  50
HETATM   50  O   UNK N   1      19.837  11.379   2.635  0.00  0.00    -0.390 OA
HETATM   51  H   UNK N   1      19.110  11.430   1.996  0.00  0.00     0.210 HD
ENDBRANCH   4  50
BRANCH   3  52
HETATM   52  O   UNK N   1      22.015  13.751   1.591  0.00  0.00    -0.390 OA
HETATM   53  H   UNK N   1      22.619  14.489   1.413  0.00  0.00     0.210 HD
ENDBRANCH   3  52
TORSDOF 16
ENDMDL
MODEL 4
REMARK VINA RESULT:      -7.8      2.663      5.507
REMARK  16 active torsions:
REMARK  status: ('A' for Active; 'I' for Inactive)
REMARK    1  A    between atoms: C_22  and  O_2 
REMARK    2  A    between atoms: O_2  and  C_26 
REMARK    3  A    between atoms: C_18  and  O_4 
REMARK    4  A    between atoms: C_19  and  O_5 
REMARK    5  A    between atoms: C_25  and  O_6 
REMARK    6  A    between atoms: O_6  and  C_29 
REMARK    7  A    between atoms: C_20  and  O_7 
REMARK    8  A    between atoms: C_21  and  O_8 
REMARK    9  A    between atoms: C_23  and  O_9 
REMARK   10  A    between atoms: C_24  and  O_10 
REMARK   11  A    between atoms: O_13  and  C_35 
REMARK   12  A    between atoms: O_14  and  C_40 
REMARK   13  A    between atoms: O_15  and  C_41 
REMARK   14  A    between atoms: O_16  and  C_43 
REMARK   15  A    between atoms: C_17  and  C_26 
REMARK   16  A    between atoms: C_30  and  C_33 
ROOT
HETATM    1  O   UNK N   1      25.528  16.081   2.305  0.00  0.00    -0.348 OA
HETATM    2  C   UNK N   1      26.272  15.337   3.224  0.00  0.00     0.180 C 
HETATM    3  C   UNK N   1      26.153  13.834   3.017  0.00  0.00     0.180 C 
HETATM    4  C   UNK N   1      24.713  13.451   2.651  0.00  0.00     0.183 C 
HETATM    5  C   UNK N   1      23.661  14.579   2.841  0.00  0.00     0.205 C 
HETATM    6  C   UNK N   1      24.210  16.027   2.811  0.00  0.00     0.298 C 
ENDROOT
BRANCH   6   7
HETATM    7  O   UNK N   1      24.124  16.614   4.074  0.00  0.00    -0.311 OA
BRANCH   7   8
HETATM    8  C   UNK N   1      23.146  16.313   4.969  0.00  0.00     0.157 A 
HETATM    9  C   UNK N   1      21.851  16.897   4.906  0.00  0.00     0.124 A 
HETATM   10  O   UNK N   1      20.951  16.600   5.843  0.00  0.00    -0.306 OA
HETATM   11  C   UNK N   1      21.183  15.763   6.846  0.00  0.00     0.096 A 
HETATM   12  C   UNK N   1      22.440  15.130   6.976  0.00  0.00     0.084 A 
HETATM   13  C   UNK N   1      20.171  15.512   7.776  0.00  0.00     0.075 A 
HETATM   14  C   UNK N   1      23.422  15.411   6.009  0.00  0.00     0.223 A 
HETATM   15  C   UNK N   1      22.656  14.257   8.074  0.00  0.00     0.085 A 
HETATM   16  O   UNK N   1      24.522  14.888   6.073  0.00  0.00    -0.284 OA
HETATM   17  C   UNK N   1      21.632  14.023   8.995  0.00  0.00     0.074 A 
HETATM   18  C   UNK N   1      20.392  14.643   8.845  0.00  0.00     0.071 A 
BRANCH   9  19
HETATM   19  C   UNK N   1      21.437  17.836   3.831  0.00  0.00     0.004 A 
HETATM   20  C   UNK N   1      21.848  19.174   3.903  0.00  0.00     0.053 A 
HETATM   21  C   UNK N   1      21.534  20.067   2.875  0.00  0.00     0.099 A 
HETATM   22  C   UNK N   1      20.788  19.634   1.772  0.00  0.00     0.098 A 
HETATM   23  C   UNK N   1      20.338  18.316   1.715  0.00  0.00     0.040 A 
HETATM   24  C   UNK N   1      20.660  17.428   2.740  0.00  0.00     0.017 A 
BRANCH  21  25
HETATM   25  O   UNK N   1      21.965  21.338   2.946  0.00  0.00    -0.358 OA
HETATM   26  H   UNK N   1      22.701  21.715   2.507  0.00  0.00     0.217 HD
ENDBRANCH  21  25
BRANCH  22  27
HETATM   27  O   UNK N   1      20.502  20.477   0.767  0.00  0.00    -0.358 OA
HETATM   28  H   UNK N   1      21.074  20.537   0.028  0.00  0.00     0.217 HD
ENDBRANCH  22  27
ENDBRANCH   9  19
BRANCH  15  29
HETATM   29  O   UNK N   1      23.839  13.647   8.255  0.00  0.00    -0.360 OA
HETATM   30  H   UNK N   1      24.527  13.738   7.625  0.00  0.00     0.217 HD
ENDBRANCH  15  29
BRANCH  18  31
HETATM   31  O   UNK N   1      19.413  14.406   9.731  0.00  0.00    -0.361 OA
HETATM   32  H   UNK N   1      19.599  14.112  10.601  0.00  0.00     0.217 HD
ENDBRANCH  18  31
ENDBRANCH   7   8
ENDBRANCH   6   7
BRANCH   5  33
HETATM   33  O   UNK N   1      22.618  14.434   1.922  0.00  0.00    -0.388 OA
HETATM   34  H   UNK N   1      22.653  14.869   1.056  0.00  0.00     0.210 HD
ENDBRANCH   5  33
BRANCH   2  35
HETATM   35  C   UNK N   1      27.629  15.899   3.556  0.00  0.00     0.205 C 
BRANCH  35  36
HETATM   36  O   UNK N   1      27.607  16.092   4.933  0.00  0.00    -0.356 OA
BRANCH  36  37
HETATM   37  C   UNK N   1      27.929  17.420   5.173  0.00  0.00     0.291 C 
HETATM   38  O   UNK N   1      27.056  18.222   4.409  0.00  0.00    -0.351 OA
HETATM   39  C   UNK N   1      27.423  19.568   4.588  0.00  0.00     0.152 C 
HETATM   40  C   UNK N   1      27.082  19.995   6.018  0.00  0.00     0.178 C 
HETATM   41  C   UNK N   1      26.652  20.420   3.595  0.00  0.00     0.042 C 
HETATM   42  C   UNK N   1      27.905  19.141   6.975  0.00  0.00     0.183 C 
HETATM   43  C   UNK N   1      27.693  17.668   6.664  0.00  0.00     0.204 C 
BRANCH  40  44
HETATM   44  O   UNK N   1      27.392  21.342   6.213  0.00  0.00    -0.390 OA
HETATM   45  H   UNK N   1      27.051  21.861   6.957  0.00  0.00     0.210 HD
ENDBRANCH  40  44
BRANCH  42  46
HETATM   46  O   UNK N   1      27.528  19.399   8.293  0.00  0.00    -0.390 OA
HETATM   47  H   UNK N   1      26.611  19.441   8.606  0.00  0.00     0.210 HD
ENDBRANCH  42  46
BRANCH  43  48
HETATM   48  O   UNK N   1      28.568  16.888   7.423  0.00  0.00    -0.388 OA
HETATM   49  H   UNK N   1      28.436  16.533   8.316  0.00  0.00     0.210 HD
ENDBRANCH  43  48
ENDBRANCH  36  37
ENDBRANCH  35  36
ENDBRANCH   2  35
BRANCH   4  50
HETATM   50  O   UNK N   1      24.695  12.955   1.347  0.00  0.00    -0.390 OA
HETATM   51  H   UNK N   1      24.105  12.396   0.816  0.00  0.00     0.210 HD
ENDBRANCH   4  50
BRANCH   3  52
HETATM   52  O   UNK N   1      26.534  13.166   4.181  0.00  0.00    -0.390 OA
HETATM   53  H   UNK N   1      26.353  13.204   5.134  0.00  0.00     0.210 HD
ENDBRANCH   3  52
TORSDOF 16
ENDMDL
MODEL 5
REMARK VINA RESULT:      -7.7      1.884      4.621
REMARK  16 active torsions:
REMARK  status: ('A' for Active; 'I' for Inactive)
REMARK    1  A    between atoms: C_22  and  O_2 
REMARK    2  A    between atoms: O_2  and  C_26 
REMARK    3  A    between atoms: C_18  and  O_4 
REMARK    4  A    between atoms: C_19  and  O_5 
REMARK    5  A    between atoms: C_25  and  O_6 
REMARK    6  A    between atoms: O_6  and  C_29 
REMARK    7  A    between atoms: C_20  and  O_7 
REMARK    8  A    between atoms: C_21  and  O_8 
REMARK    9  A    between atoms: C_23  and  O_9 
REMARK   10  A    between atoms: C_24  and  O_10 
REMARK   11  A    between atoms: O_13  and  C_35 
REMARK   12  A    between atoms: O_14  and  C_40 
REMARK   13  A    between atoms: O_15  and  C_41 
REMARK   14  A    between atoms: O_16  and  C_43 
REMARK   15  A    between atoms: C_17  and  C_26 
REMARK   16  A    between atoms: C_30  and  C_33 
ROOT
HETATM    1  O   UNK N   1      21.720  15.929   5.648  0.00  0.00    -0.348 OA
HETATM    2  C   UNK N   1      22.461  15.756   4.477  0.00  0.00     0.180 C 
HETATM    3  C   UNK N   1      21.596  15.623   3.231  0.00  0.00     0.180 C 
HETATM    4  C   UNK N   1      20.350  14.777   3.527  0.00  0.00     0.183 C 
HETATM    5  C   UNK N   1      20.370  14.024   4.885  0.00  0.00     0.205 C 
HETATM    6  C   UNK N   1      21.293  14.623   5.976  0.00  0.00     0.298 C 
ENDROOT
BRANCH   6   7
HETATM    7  O   UNK N   1      22.378  13.779   6.223  0.00  0.00    -0.311 OA
BRANCH   7   8
HETATM    8  C   UNK N   1      22.818  13.479   7.473  0.00  0.00     0.157 A 
HETATM    9  C   UNK N   1      24.200  13.456   7.809  0.00  0.00     0.124 A 
HETATM   10  O   UNK N   1      24.571  13.106   9.039  0.00  0.00    -0.306 OA
HETATM   11  C   UNK N   1      23.715  12.783  10.002  0.00  0.00     0.096 A 
HETATM   12  C   UNK N   1      22.323  12.792   9.756  0.00  0.00     0.084 A 
HETATM   13  C   UNK N   1      24.204  12.435  11.263  0.00  0.00     0.075 A 
HETATM   14  C   UNK N   1      21.884  13.158   8.471  0.00  0.00     0.223 A 
HETATM   15  C   UNK N   1      21.441  12.423  10.804  0.00  0.00     0.085 A 
HETATM   16  O   UNK N   1      20.693  13.186   8.208  0.00  0.00    -0.284 OA
HETATM   17  C   UNK N   1      21.950  12.073  12.057  0.00  0.00     0.074 A 
HETATM   18  C   UNK N   1      23.325  12.083  12.289  0.00  0.00     0.071 A 
BRANCH   9  19
HETATM   19  C   UNK N   1      25.274  13.812   6.845  0.00  0.00     0.004 A 
HETATM   20  C   UNK N   1      25.802  15.110   6.867  0.00  0.00     0.053 A 
HETATM   21  C   UNK N   1      26.859  15.459   6.021  0.00  0.00     0.099 A 
HETATM   22  C   UNK N   1      27.385  14.515   5.130  0.00  0.00     0.098 A 
HETATM   23  C   UNK N   1      26.836  13.236   5.072  0.00  0.00     0.040 A 
HETATM   24  C   UNK N   1      25.786  12.892   5.922  0.00  0.00     0.017 A 
BRANCH  21  25
HETATM   25  O   UNK N   1      27.374  16.698   6.079  0.00  0.00    -0.358 OA
HETATM   26  H   UNK N   1      27.523  17.288   5.367  0.00  0.00     0.217 HD
ENDBRANCH  21  25
BRANCH  22  27
HETATM   27  O   UNK N   1      28.416  14.832   4.331  0.00  0.00    -0.358 OA
HETATM   28  H   UNK N   1      29.018  15.503   4.586  0.00  0.00     0.217 HD
ENDBRANCH  22  27
ENDBRANCH   9  19
BRANCH  15  29
HETATM   29  O   UNK N   1      20.111  12.393  10.617  0.00  0.00    -0.360 OA
HETATM   30  H   UNK N   1      19.530  12.760  11.253  0.00  0.00     0.217 HD
ENDBRANCH  15  29
BRANCH  18  31
HETATM   31  O   UNK N   1      23.804  11.752  13.498  0.00  0.00    -0.361 OA
HETATM   32  H   UNK N   1      23.263  11.779  14.264  0.00  0.00     0.217 HD
ENDBRANCH  18  31
ENDBRANCH   7   8
ENDBRANCH   6   7
BRANCH   5  33
HETATM   33  O   UNK N   1      19.072  13.869   5.377  0.00  0.00    -0.388 OA
HETATM   34  H   UNK N   1      18.389  13.424   4.852  0.00  0.00     0.210 HD
ENDBRANCH   5  33
BRANCH   2  35
HETATM   35  C   UNK N   1      23.713  16.587   4.381  0.00  0.00     0.205 C 
BRANCH  35  36
HETATM   36  O   UNK N   1      23.594  17.528   5.398  0.00  0.00    -0.356 OA
BRANCH  36  37
HETATM   37  C   UNK N   1      24.145  18.715   4.936  0.00  0.00     0.291 C 
HETATM   38  O   UNK N   1      25.458  18.441   4.499  0.00  0.00    -0.351 OA
HETATM   39  C   UNK N   1      26.051  19.652   4.098  0.00  0.00     0.152 C 
HETATM   40  C   UNK N   1      25.380  20.137   2.811  0.00  0.00     0.178 C 
HETATM   41  C   UNK N   1      27.530  19.411   3.852  0.00  0.00     0.042 C 
HETATM   42  C   UNK N   1      23.909  20.400   3.114  0.00  0.00     0.183 C 
HETATM   43  C   UNK N   1      23.287  19.168   3.753  0.00  0.00     0.204 C 
BRANCH  40  44
HETATM   44  O   UNK N   1      25.979  21.314   2.361  0.00  0.00    -0.390 OA
HETATM   45  H   UNK N   1      26.359  21.409   1.474  0.00  0.00     0.210 HD
ENDBRANCH  40  44
BRANCH  42  46
HETATM   46  O   UNK N   1      23.226  20.713   1.940  0.00  0.00    -0.390 OA
HETATM   47  H   UNK N   1      22.817  21.572   1.753  0.00  0.00     0.210 HD
ENDBRANCH  42  46
BRANCH  43  48
HETATM   48  O   UNK N   1      21.991  19.457   4.185  0.00  0.00    -0.388 OA
HETATM   49  H   UNK N   1      21.588  19.268   5.047  0.00  0.00     0.210 HD
ENDBRANCH  43  48
ENDBRANCH  36  37
ENDBRANCH  35  36
ENDBRANCH   2  35
BRANCH   4  50
HETATM   50  O   UNK N   1      19.218  15.584   3.410  0.00  0.00    -0.390 OA
HETATM   51  H   UNK N   1      18.263  15.476   3.540  0.00  0.00     0.210 HD
ENDBRANCH   4  50
BRANCH   3  52
HETATM   52  O   UNK N   1      22.334  15.031   2.206  0.00  0.00    -0.390 OA
HETATM   53  H   UNK N   1      22.667  15.260   1.324  0.00  0.00     0.210 HD
ENDBRANCH   3  52
TORSDOF 16
ENDMDL
MODEL 6
REMARK VINA RESULT:      -7.6      7.303     11.817
REMARK  16 active torsions:
REMARK  status: ('A' for Active; 'I' for Inactive)
REMARK    1  A    between atoms: C_22  and  O_2 
REMARK    2  A    between atoms: O_2  and  C_26 
REMARK    3  A    between atoms: C_18  and  O_4 
REMARK    4  A    between atoms: C_19  and  O_5 
REMARK    5  A    between atoms: C_25  and  O_6 
REMARK    6  A    between atoms: O_6  and  C_29 
REMARK    7  A    between atoms: C_20  and  O_7 
REMARK    8  A    between atoms: C_21  and  O_8 
REMARK    9  A    between atoms: C_23  and  O_9 
REMARK   10  A    between atoms: C_24  and  O_10 
REMARK   11  A    between atoms: O_13  and  C_35 
REMARK   12  A    between atoms: O_14  and  C_40 
REMARK   13  A    between atoms: O_15  and  C_41 
REMARK   14  A    between atoms: O_16  and  C_43 
REMARK   15  A    between atoms: C_17  and  C_26 
REMARK   16  A    between atoms: C_30  and  C_33 
ROOT
HETATM    1  O   UNK N   1      32.492  13.812   4.839  0.00  0.00    -0.348 OA
HETATM    2  C   UNK N   1      32.656  13.144   6.055  0.00  0.00     0.180 C 
HETATM    3  C   UNK N   1      32.926  11.655   5.892  0.00  0.00     0.180 C 
HETATM    4  C   UNK N   1      32.066  11.070   4.763  0.00  0.00     0.183 C 
HETATM    5  C   UNK N   1      30.941  12.004   4.239  0.00  0.00     0.205 C 
HETATM    6  C   UNK N   1      31.160  13.521   4.469  0.00  0.00     0.298 C 
ENDROOT
BRANCH   6   7
HETATM    7  O   UNK N   1      30.251  14.014   5.406  0.00  0.00    -0.311 OA
BRANCH   7   8
HETATM    8  C   UNK N   1      29.339  14.982   5.121  0.00  0.00     0.157 A 
HETATM    9  C   UNK N   1      29.612  16.365   5.312  0.00  0.00     0.124 A 
HETATM   10  O   UNK N   1      28.660  17.262   5.062  0.00  0.00    -0.306 OA
HETATM   11  C   UNK N   1      27.448  16.945   4.621  0.00  0.00     0.096 A 
HETATM   12  C   UNK N   1      27.098  15.595   4.393  0.00  0.00     0.084 A 
HETATM   13  C   UNK N   1      26.519  17.961   4.382  0.00  0.00     0.075 A 
HETATM   14  C   UNK N   1      28.073  14.612   4.642  0.00  0.00     0.223 A 
HETATM   15  C   UNK N   1      25.787  15.295   3.941  0.00  0.00     0.085 A 
HETATM   16  O   UNK N   1      27.823  13.431   4.458  0.00  0.00    -0.284 OA
HETATM   17  C   UNK N   1      24.872  16.325   3.713  0.00  0.00     0.074 A 
HETATM   18  C   UNK N   1      25.237  17.654   3.927  0.00  0.00     0.071 A 
BRANCH   9  19
HETATM   19  C   UNK N   1      30.927  16.874   5.780  0.00  0.00     0.004 A 
HETATM   20  C   UNK N   1      31.093  17.178   7.138  0.00  0.00     0.053 A 
HETATM   21  C   UNK N   1      32.335  17.594   7.624  0.00  0.00     0.099 A 
HETATM   22  C   UNK N   1      33.421  17.728   6.751  0.00  0.00     0.098 A 
HETATM   23  C   UNK N   1      33.253  17.471   5.391  0.00  0.00     0.040 A 
HETATM   24  C   UNK N   1      32.014  17.050   4.913  0.00  0.00     0.017 A 
BRANCH  21  25
HETATM   25  O   UNK N   1      32.484  17.848   8.935  0.00  0.00    -0.358 OA
HETATM   26  H   UNK N   1      32.608  18.682   9.343  0.00  0.00     0.217 HD
ENDBRANCH  21  25
BRANCH  22  27
HETATM   27  O   UNK N   1      34.626  18.103   7.211  0.00  0.00    -0.358 OA
HETATM   28  H   UNK N   1      34.688  18.696   7.934  0.00  0.00     0.217 HD
ENDBRANCH  22  27
ENDBRANCH   9  19
BRANCH  15  29
HETATM   29  O   UNK N   1      25.397  14.026   3.730  0.00  0.00    -0.360 OA
HETATM   30  H   UNK N   1      25.889  13.461   3.168  0.00  0.00     0.217 HD
ENDBRANCH  15  29
BRANCH  18  31
HETATM   31  O   UNK N   1      24.352  18.637   3.699  0.00  0.00    -0.361 OA
HETATM   32  H   UNK N   1      24.280  19.046   2.858  0.00  0.00     0.217 HD
ENDBRANCH  18  31
ENDBRANCH   7   8
ENDBRANCH   6   7
BRANCH   5  33
HETATM   33  O   UNK N   1      30.682  11.749   2.890  0.00  0.00    -0.388 OA
HETATM   34  H   UNK N   1      30.603  12.474   2.251  0.00  0.00     0.210 HD
ENDBRANCH   5  33
BRANCH   2  35
HETATM   35  C   UNK N   1      33.443  13.894   7.097  0.00  0.00     0.205 C 
BRANCH  35  36
HETATM   36  O   UNK N   1      33.110  13.282   8.301  0.00  0.00    -0.356 OA
BRANCH  36  37
HETATM   37  C   UNK N   1      34.068  13.650   9.235  0.00  0.00     0.291 C 
HETATM   38  O   UNK N   1      35.329  13.598   8.605  0.00  0.00    -0.351 OA
HETATM   39  C   UNK N   1      36.314  13.896   9.564  0.00  0.00     0.152 C 
HETATM   40  C   UNK N   1      36.209  15.374   9.947  0.00  0.00     0.178 C 
HETATM   41  C   UNK N   1      37.680  13.613   8.963  0.00  0.00     0.042 C 
HETATM   42  C   UNK N   1      34.840  15.603  10.578  0.00  0.00     0.183 C 
HETATM   43  C   UNK N   1      33.753  15.089   9.648  0.00  0.00     0.204 C 
BRANCH  40  44
HETATM   44  O   UNK N   1      37.205  15.713  10.864  0.00  0.00    -0.390 OA
HETATM   45  H   UNK N   1      38.132  15.445  10.763  0.00  0.00     0.210 HD
ENDBRANCH  40  44
BRANCH  42  46
HETATM   46  O   UNK N   1      34.644  16.962  10.820  0.00  0.00    -0.390 OA
HETATM   47  H   UNK N   1      35.262  17.529  11.307  0.00  0.00     0.210 HD
ENDBRANCH  42  46
BRANCH  43  48
HETATM   48  O   UNK N   1      32.512  15.141  10.288  0.00  0.00    -0.388 OA
HETATM   49  H   UNK N   1      32.324  15.092  11.239  0.00  0.00     0.210 HD
ENDBRANCH  43  48
ENDBRANCH  36  37
ENDBRANCH  35  36
ENDBRANCH   2  35
BRANCH   4  50
HETATM   50  O   UNK N   1      32.902  10.652   3.728  0.00  0.00    -0.390 OA
HETATM   51  H   UNK N   1      32.790  10.362   2.809  0.00  0.00     0.210 HD
ENDBRANCH   4  50
BRANCH   3  52
HETATM   52  O   UNK N   1      32.647  10.992   7.087  0.00  0.00    -0.390 OA
HETATM   53  H   UNK N   1      33.107  10.433   7.733  0.00  0.00     0.210 HD
ENDBRANCH   3  52
TORSDOF 16
ENDMDL
MODEL 7
REMARK VINA RESULT:      -7.5      8.360     12.908
REMARK  16 active torsions:
REMARK  status: ('A' for Active; 'I' for Inactive)
REMARK    1  A    between atoms: C_22  and  O_2 
REMARK    2  A    between atoms: O_2  and  C_26 
REMARK    3  A    between atoms: C_18  and  O_4 
REMARK    4  A    between atoms: C_19  and  O_5 
REMARK    5  A    between atoms: C_25  and  O_6 
REMARK    6  A    between atoms: O_6  and  C_29 
REMARK    7  A    between atoms: C_20  and  O_7 
REMARK    8  A    between atoms: C_21  and  O_8 
REMARK    9  A    between atoms: C_23  and  O_9 
REMARK   10  A    between atoms: C_24  and  O_10 
REMARK   11  A    between atoms: O_13  and  C_35 
REMARK   12  A    between atoms: O_14  and  C_40 
REMARK   13  A    between atoms: O_15  and  C_41 
REMARK   14  A    between atoms: O_16  and  C_43 
REMARK   15  A    between atoms: C_17  and  C_26 
REMARK   16  A    between atoms: C_30  and  C_33 
ROOT
HETATM    1  O   UNK N   1      32.880  15.742   9.059  0.00  0.00    -0.348 OA
HETATM    2  C   UNK N   1      33.587  15.322   7.930  0.00  0.00     0.180 C 
HETATM    3  C   UNK N   1      34.632  16.327   7.465  0.00  0.00     0.180 C 
HETATM    4  C   UNK N   1      34.097  17.760   7.593  0.00  0.00     0.183 C 
HETATM    5  C   UNK N   1      32.575  17.874   7.878  0.00  0.00     0.205 C 
HETATM    6  C   UNK N   1      31.917  16.638   8.544  0.00  0.00     0.298 C 
ENDROOT
BRANCH   6   7
HETATM    7  O   UNK N   1      31.051  16.001   7.654  0.00  0.00    -0.311 OA
BRANCH   7   8
HETATM    8  C   UNK N   1      30.250  16.672   6.786  0.00  0.00     0.157 A 
HETATM    9  C   UNK N   1      30.343  16.503   5.376  0.00  0.00     0.124 A 
HETATM   10  O   UNK N   1      29.563  17.228   4.576  0.00  0.00    -0.306 OA
HETATM   11  C   UNK N   1      28.672  18.108   5.017  0.00  0.00     0.096 A 
HETATM   12  C   UNK N   1      28.507  18.329   6.403  0.00  0.00     0.084 A 
HETATM   13  C   UNK N   1      27.897  18.817   4.095  0.00  0.00     0.075 A 
HETATM   14  C   UNK N   1      29.308  17.585   7.287  0.00  0.00     0.223 A 
HETATM   15  C   UNK N   1      27.559  19.292   6.834  0.00  0.00     0.085 A 
HETATM   16  O   UNK N   1      29.202  17.734   8.494  0.00  0.00    -0.284 OA
HETATM   17  C   UNK N   1      26.797  19.993   5.897  0.00  0.00     0.074 A 
HETATM   18  C   UNK N   1      26.960  19.754   4.532  0.00  0.00     0.071 A 
BRANCH   9  19
HETATM   19  C   UNK N   1      31.277  15.541   4.736  0.00  0.00     0.004 A 
HETATM   20  C   UNK N   1      32.125  15.995   3.716  0.00  0.00     0.053 A 
HETATM   21  C   UNK N   1      33.062  15.134   3.140  0.00  0.00     0.099 A 
HETATM   22  C   UNK N   1      33.148  13.803   3.565  0.00  0.00     0.098 A 
HETATM   23  C   UNK N   1      32.278  13.332   4.548  0.00  0.00     0.040 A 
HETATM   24  C   UNK N   1      31.349  14.197   5.124  0.00  0.00     0.017 A 
BRANCH  21  25
HETATM   25  O   UNK N   1      33.889  15.596   2.187  0.00  0.00    -0.358 OA
HETATM   26  H   UNK N   1      33.780  16.363   1.661  0.00  0.00     0.217 HD
ENDBRANCH  21  25
BRANCH  22  27
HETATM   27  O   UNK N   1      34.062  12.974   3.036  0.00  0.00    -0.358 OA
HETATM   28  H   UNK N   1      34.102  12.852   2.107  0.00  0.00     0.217 HD
ENDBRANCH  22  27
ENDBRANCH   9  19
BRANCH  15  29
HETATM   29  O   UNK N   1      27.379  19.556   8.139  0.00  0.00    -0.360 OA
HETATM   30  H   UNK N   1      27.636  18.936   8.792  0.00  0.00     0.217 HD
ENDBRANCH  15  29
BRANCH  18  31
HETATM   31  O   UNK N   1      26.217  20.427   3.640  0.00  0.00    -0.361 OA
HETATM   32  H   UNK N   1      26.139  20.141   2.751  0.00  0.00     0.217 HD
ENDBRANCH  18  31
ENDBRANCH   7   8
ENDBRANCH   6   7
BRANCH   5  33
HETATM   33  O   UNK N   1      32.301  19.028   8.617  0.00  0.00    -0.388 OA
HETATM   34  H   UNK N   1      31.394  19.246   8.883  0.00  0.00     0.210 HD
ENDBRANCH   5  33
BRANCH   2  35
HETATM   35  C   UNK N   1      33.954  13.862   7.908  0.00  0.00     0.205 C 
BRANCH  35  36
HETATM   36  O   UNK N   1      33.721  13.417   9.205  0.00  0.00    -0.356 OA
BRANCH  36  37
HETATM   37  C   UNK N   1      34.939  13.013   9.733  0.00  0.00     0.291 C 
HETATM   38  O   UNK N   1      35.934  13.262   8.765  0.00  0.00    -0.351 OA
HETATM   39  C   UNK N   1      37.161  12.785   9.262  0.00  0.00     0.152 C 
HETATM   40  C   UNK N   1      37.612  13.677  10.421  0.00  0.00     0.178 C 
HETATM   41  C   UNK N   1      38.189  12.830   8.144  0.00  0.00     0.042 C 
HETATM   42  C   UNK N   1      36.572  13.573  11.530  0.00  0.00     0.183 C 
HETATM   43  C   UNK N   1      35.191  13.875  10.971  0.00  0.00     0.204 C 
BRANCH  40  44
HETATM   44  O   UNK N   1      38.852  13.258  10.906  0.00  0.00    -0.390 OA
HETATM   45  H   UNK N   1      39.696  13.570  10.542  0.00  0.00     0.210 HD
ENDBRANCH  40  44
BRANCH  42  46
HETATM   46  O   UNK N   1      36.869  14.472  12.553  0.00  0.00    -0.390 OA
HETATM   47  H   UNK N   1      36.380  14.540  13.388  0.00  0.00     0.210 HD
ENDBRANCH  42  46
BRANCH  43  48
HETATM   48  O   UNK N   1      34.217  13.618  11.939  0.00  0.00    -0.388 OA
HETATM   49  H   UNK N   1      33.344  14.030  12.038  0.00  0.00     0.210 HD
ENDBRANCH  43  48
ENDBRANCH  36  37
ENDBRANCH  35  36
ENDBRANCH   2  35
BRANCH   4  50
HETATM   50  O   UNK N   1      34.847  18.437   8.554  0.00  0.00    -0.390 OA
HETATM   51  H   UNK N   1      35.234  19.322   8.647  0.00  0.00     0.210 HD
ENDBRANCH   4  50
BRANCH   3  52
HETATM   52  O   UNK N   1      34.976  16.070   6.138  0.00  0.00    -0.390 OA
HETATM   53  H   UNK N   1      34.992  15.320   5.523  0.00  0.00     0.210 HD
ENDBRANCH   3  52
TORSDOF 16
ENDMDL
MODEL 8
REMARK VINA RESULT:      -7.5      1.590      5.870
REMARK  16 active torsions:
REMARK  status: ('A' for Active; 'I' for Inactive)
REMARK    1  A    between atoms: C_22  and  O_2 
REMARK    2  A    between atoms: O_2  and  C_26 
REMARK    3  A    between atoms: C_18  and  O_4 
REMARK    4  A    between atoms: C_19  and  O_5 
REMARK    5  A    between atoms: C_25  and  O_6 
REMARK    6  A    between atoms: O_6  and  C_29 
REMARK    7  A    between atoms: C_20  and  O_7 
REMARK    8  A    between atoms: C_21  and  O_8 
REMARK    9  A    between atoms: C_23  and  O_9 
REMARK   10  A    between atoms: C_24  and  O_10 
REMARK   11  A    between atoms: O_13  and  C_35 
REMARK   12  A    between atoms: O_14  and  C_40 
REMARK   13  A    between atoms: O_15  and  C_41 
REMARK   14  A    between atoms: O_16  and  C_43 
REMARK   15  A    between atoms: C_17  and  C_26 
REMARK   16  A    between atoms: C_30  and  C_33 
ROOT
HETATM    1  O   UNK N   1      19.632  14.283   6.195  0.00  0.00    -0.348 OA
HETATM    2  C   UNK N   1      19.621  14.749   4.878  0.00  0.00     0.180 C 
HETATM    3  C   UNK N   1      18.965  13.781   3.903  0.00  0.00     0.180 C 
HETATM    4  C   UNK N   1      19.344  12.333   4.241  0.00  0.00     0.183 C 
HETATM    5  C   UNK N   1      20.493  12.175   5.273  0.00  0.00     0.205 C 
HETATM    6  C   UNK N   1      20.716  13.377   6.226  0.00  0.00     0.298 C 
ENDROOT
BRANCH   6   7
HETATM    7  O   UNK N   1      21.924  14.016   5.940  0.00  0.00    -0.311 OA
BRANCH   7   8
HETATM    8  C   UNK N   1      22.984  13.383   5.373  0.00  0.00     0.157 A 
HETATM    9  C   UNK N   1      23.958  12.689   6.144  0.00  0.00     0.124 A 
HETATM   10  O   UNK N   1      25.003  12.132   5.534  0.00  0.00    -0.306 OA
HETATM   11  C   UNK N   1      25.192  12.168   4.220  0.00  0.00     0.096 A 
HETATM   12  C   UNK N   1      24.266  12.825   3.380  0.00  0.00     0.084 A 
HETATM   13  C   UNK N   1      26.318  11.546   3.674  0.00  0.00     0.075 A 
HETATM   14  C   UNK N   1      23.146  13.428   3.979  0.00  0.00     0.223 A 
HETATM   15  C   UNK N   1      24.513  12.859   1.983  0.00  0.00     0.085 A 
HETATM   16  O   UNK N   1      22.314  14.006   3.299  0.00  0.00    -0.284 OA
HETATM   17  C   UNK N   1      25.648  12.236   1.458  0.00  0.00     0.074 A 
HETATM   18  C   UNK N   1      26.545  11.577   2.298  0.00  0.00     0.071 A 
BRANCH   9  19
HETATM   19  C   UNK N   1      23.871  12.547   7.621  0.00  0.00     0.004 A 
HETATM   20  C   UNK N   1      24.857  13.142   8.420  0.00  0.00     0.053 A 
HETATM   21  C   UNK N   1      24.769  13.086   9.813  0.00  0.00     0.099 A 
HETATM   22  C   UNK N   1      23.701  12.415  10.422  0.00  0.00     0.098 A 
HETATM   23  C   UNK N   1      22.741  11.783   9.635  0.00  0.00     0.040 A 
HETATM   24  C   UNK N   1      22.830  11.848   8.245  0.00  0.00     0.017 A 
BRANCH  21  25
HETATM   25  O   UNK N   1      25.706  13.691  10.562  0.00  0.00    -0.358 OA
HETATM   26  H   UNK N   1      25.571  14.278  11.279  0.00  0.00     0.217 HD
ENDBRANCH  21  25
BRANCH  22  27
HETATM   27  O   UNK N   1      23.594  12.376  11.760  0.00  0.00    -0.358 OA
HETATM   28  H   UNK N   1      22.887  12.820  12.186  0.00  0.00     0.217 HD
ENDBRANCH  22  27
ENDBRANCH   9  19
BRANCH  15  29
HETATM   29  O   UNK N   1      23.676  13.490   1.143  0.00  0.00    -0.360 OA
HETATM   30  H   UNK N   1      22.759  13.299   1.148  0.00  0.00     0.217 HD
ENDBRANCH  15  29
BRANCH  18  31
HETATM   31  O   UNK N   1      27.628  10.976   1.782  0.00  0.00    -0.361 OA
HETATM   32  H   UNK N   1      28.269  10.566   2.330  0.00  0.00     0.217 HD
ENDBRANCH  18  31
ENDBRANCH   7   8
ENDBRANCH   6   7
BRANCH   5  33
HETATM   33  O   UNK N   1      20.333  10.996   6.006  0.00  0.00    -0.388 OA
HETATM   34  H   UNK N   1      20.303  10.134   5.563  0.00  0.00     0.210 HD
ENDBRANCH   5  33
BRANCH   2  35
HETATM   35  C   UNK N   1      19.330  16.217   4.719  0.00  0.00     0.205 C 
BRANCH  35  36
HETATM   36  O   UNK N   1      19.928  16.570   3.514  0.00  0.00    -0.356 OA
BRANCH  36  37
HETATM   37  C   UNK N   1      20.395  17.870   3.645  0.00  0.00     0.291 C 
HETATM   38  O   UNK N   1      21.805  17.827   3.623  0.00  0.00    -0.351 OA
HETATM   39  C   UNK N   1      22.289  19.132   3.831  0.00  0.00     0.152 C 
HETATM   40  C   UNK N   1      21.976  19.985   2.599  0.00  0.00     0.178 C 
HETATM   41  C   UNK N   1      23.791  19.066   4.046  0.00  0.00     0.042 C 
HETATM   42  C   UNK N   1      20.460  20.053   2.444  0.00  0.00     0.183 C 
HETATM   43  C   UNK N   1      19.880  18.648   2.433  0.00  0.00     0.204 C 
BRANCH  40  44
HETATM   44  O   UNK N   1      22.486  21.274   2.755  0.00  0.00    -0.390 OA
HETATM   45  H   UNK N   1      22.097  22.053   2.326  0.00  0.00     0.210 HD
ENDBRANCH  40  44
BRANCH  42  46
HETATM   46  O   UNK N   1      20.129  20.706   1.258  0.00  0.00    -0.390 OA
HETATM   47  H   UNK N   1      20.056  20.274   0.393  0.00  0.00     0.210 HD
ENDBRANCH  42  46
BRANCH  43  48
HETATM   48  O   UNK N   1      18.485  18.707   2.460  0.00  0.00    -0.388 OA
HETATM   49  H   UNK N   1      17.914  19.137   3.117  0.00  0.00     0.210 HD
ENDBRANCH  43  48
ENDBRANCH  36  37
ENDBRANCH  35  36
ENDBRANCH   2  35
BRANCH   4  50
HETATM   50  O   UNK N   1      18.198  11.649   4.647  0.00  0.00    -0.390 OA
HETATM   51  H   UNK N   1      17.265  11.622   4.381  0.00  0.00     0.210 HD
ENDBRANCH   4  50
BRANCH   3  52
HETATM   52  O   UNK N   1      19.365  14.080   2.601  0.00  0.00    -0.390 OA
HETATM   53  H   UNK N   1      18.975  14.131   1.713  0.00  0.00     0.210 HD
ENDBRANCH   3  52
TORSDOF 16
ENDMDL
MODEL 9
REMARK VINA RESULT:      -7.5      2.899      7.465
REMARK  16 active torsions:
REMARK  status: ('A' for Active; 'I' for Inactive)
REMARK    1  A    between atoms: C_22  and  O_2 
REMARK    2  A    between atoms: O_2  and  C_26 
REMARK    3  A    between atoms: C_18  and  O_4 
REMARK    4  A    between atoms: C_19  and  O_5 
REMARK    5  A    between atoms: C_25  and  O_6 
REMARK    6  A    between atoms: O_6  and  C_29 
REMARK    7  A    between atoms: C_20  and  O_7 
REMARK    8  A    between atoms: C_21  and  O_8 
REMARK    9  A    between atoms: C_23  and  O_9 
REMARK   10  A    between atoms: C_24  and  O_10 
REMARK   11  A    between atoms: O_13  and  C_35 
REMARK   12  A    between atoms: O_14  and  C_40 
REMARK   13  A    between atoms: O_15  and  C_41 
REMARK   14  A    between atoms: O_16  and  C_43 
REMARK   15  A    between atoms: C_17  and  C_26 
REMARK   16  A    between atoms: C_30  and  C_33 
ROOT
HETATM    1  O   UNK N   1      21.830  12.626   7.695  0.00  0.00    -0.348 OA
HETATM    2  C   UNK N   1      23.077  12.883   8.269  0.00  0.00     0.180 C 
HETATM    3  C   UNK N   1      23.115  12.620   9.768  0.00  0.00     0.180 C 
HETATM    4  C   UNK N   1      21.812  13.087  10.431  0.00  0.00     0.183 C 
HETATM    5  C   UNK N   1      20.887  13.954   9.533  0.00  0.00     0.205 C 
HETATM    6  C   UNK N   1      21.069  13.775   8.005  0.00  0.00     0.298 C 
ENDROOT
BRANCH   6   7
HETATM    7  O   UNK N   1      21.624  14.923   7.436  0.00  0.00    -0.311 OA
BRANCH   7   8
HETATM    8  C   UNK N   1      21.168  15.476   6.281  0.00  0.00     0.157 A 
HETATM    9  C   UNK N   1      20.116  16.434   6.259  0.00  0.00     0.124 A 
HETATM   10  O   UNK N   1      19.680  16.901   5.090  0.00  0.00    -0.306 OA
HETATM   11  C   UNK N   1      20.184  16.536   3.917  0.00  0.00     0.096 A 
HETATM   12  C   UNK N   1      21.239  15.598   3.851  0.00  0.00     0.084 A 
HETATM   13  C   UNK N   1      19.661  17.089   2.746  0.00  0.00     0.075 A 
HETATM   14  C   UNK N   1      21.734  15.078   5.060  0.00  0.00     0.223 A 
HETATM   15  C   UNK N   1      21.738  15.218   2.578  0.00  0.00     0.085 A 
HETATM   16  O   UNK N   1      22.647  14.268   5.059  0.00  0.00    -0.284 OA
HETATM   17  C   UNK N   1      21.197  15.779   1.418  0.00  0.00     0.074 A 
HETATM   18  C   UNK N   1      20.167  16.715   1.500  0.00  0.00     0.071 A 
BRANCH   9  19
HETATM   19  C   UNK N   1      19.468  16.954   7.490  0.00  0.00     0.004 A 
HETATM   20  C   UNK N   1      20.112  17.960   8.223  0.00  0.00     0.053 A 
HETATM   21  C   UNK N   1      19.499  18.519   9.348  0.00  0.00     0.099 A 
HETATM   22  C   UNK N   1      18.241  18.063   9.761  0.00  0.00     0.098 A 
HETATM   23  C   UNK N   1      17.614  17.033   9.063  0.00  0.00     0.040 A 
HETATM   24  C   UNK N   1      18.227  16.483   7.939  0.00  0.00     0.017 A 
BRANCH  21  25
HETATM   25  O   UNK N   1      20.117  19.506  10.018  0.00  0.00    -0.358 OA
HETATM   26  H   UNK N   1      19.759  20.333  10.273  0.00  0.00     0.217 HD
ENDBRANCH  21  25
BRANCH  22  27
HETATM   27  O   UNK N   1      17.632  18.611  10.825  0.00  0.00    -0.358 OA
HETATM   28  H   UNK N   1      16.822  19.070  10.717  0.00  0.00     0.217 HD
ENDBRANCH  22  27
ENDBRANCH   9  19
BRANCH  15  29
HETATM   29  O   UNK N   1      22.725  14.315   2.458  0.00  0.00    -0.360 OA
HETATM   30  H   UNK N   1      22.686  13.647   1.802  0.00  0.00     0.217 HD
ENDBRANCH  15  29
BRANCH  18  31
HETATM   31  O   UNK N   1      19.659  17.253   0.381  0.00  0.00    -0.361 OA
HETATM   32  H   UNK N   1      18.736  17.282   0.225  0.00  0.00     0.217 HD
ENDBRANCH  18  31
ENDBRANCH   7   8
ENDBRANCH   6   7
BRANCH   5  33
HETATM   33  O   UNK N   1      19.548  13.770   9.889  0.00  0.00    -0.388 OA
HETATM   34  H   UNK N   1      18.943  14.524   9.958  0.00  0.00     0.210 HD
ENDBRANCH   5  33
BRANCH   2  35
HETATM   35  C   UNK N   1      24.263  12.454   7.447  0.00  0.00     0.205 C 
BRANCH  35  36
HETATM   36  O   UNK N   1      25.271  13.352   7.780  0.00  0.00    -0.356 OA
BRANCH  36  37
HETATM   37  C   UNK N   1      25.973  13.642   6.619  0.00  0.00     0.291 C 
HETATM   38  O   UNK N   1      25.406  12.886   5.571  0.00  0.00    -0.351 OA
HETATM   39  C   UNK N   1      26.159  13.114   4.405  0.00  0.00     0.152 C 
HETATM   40  C   UNK N   1      25.921  14.550   3.929  0.00  0.00     0.178 C 
HETATM   41  C   UNK N   1      25.711  12.134   3.336  0.00  0.00     0.042 C 
HETATM   42  C   UNK N   1      26.419  15.497   5.016  0.00  0.00     0.183 C 
HETATM   43  C   UNK N   1      25.779  15.134   6.346  0.00  0.00     0.204 C 
BRANCH  40  44
HETATM   44  O   UNK N   1      26.619  14.794   2.745  0.00  0.00    -0.390 OA
HETATM   45  H   UNK N   1      26.661  14.157   2.015  0.00  0.00     0.210 HD
ENDBRANCH  40  44
BRANCH  42  46
HETATM   46  O   UNK N   1      26.100  16.814   4.687  0.00  0.00    -0.390 OA
HETATM   47  H   UNK N   1      25.226  17.216   4.810  0.00  0.00     0.210 HD
ENDBRANCH  42  46
BRANCH  43  48
HETATM   48  O   UNK N   1      26.355  15.886   7.373  0.00  0.00    -0.388 OA
HETATM   49  H   UNK N   1      27.153  15.689   7.888  0.00  0.00     0.210 HD
ENDBRANCH  43  48
ENDBRANCH  36  37
ENDBRANCH  35  36
ENDBRANCH   2  35
BRANCH   4  50
HETATM   50  O   UNK N   1      21.136  11.974  10.932  0.00  0.00    -0.390 OA
HETATM   51  H   UNK N   1      20.539  11.791  11.675  0.00  0.00     0.210 HD
ENDBRANCH   4  50
BRANCH   3  52
HETATM   52  O   UNK N   1      24.198  13.290  10.337  0.00  0.00    -0.390 OA
HETATM   53  H   UNK N   1      24.970  13.088  10.888  0.00  0.00     0.210 HD
ENDBRANCH   3  52
TORSDOF 16
ENDMDL
