MODEL 1
REMARK VINA RESULT:      -4.5      0.000      0.000
REMARK  8 active torsions:
REMARK  status: ('A' for Active; 'I' for Inactive)
REMARK    1  A    between atoms: C_1  and  C_2 
REMARK    2  A    between atoms: C_1  and  O_6 
REMARK    3  A    between atoms: C_2  and  C_3 
REMARK    4  A    between atoms: C_2  and  N_4 
REMARK    5  A    between atoms: C_3  and  C_7 
REMARK    6  A    between atoms: C_7  and  C_8 
REMARK    7  A    between atoms: C_8  and  C_9 
REMARK    8  A    between atoms: C_9  and  N_10 
ROOT
HETATM    1  C   UNK N   1      33.173  17.327   8.351  0.00  0.00     0.173 C 
ENDROOT
BRANCH   1   2
HETATM    2  C   UNK N   1      34.253  18.127   7.676  0.00  0.00     0.163 C 
HETATM    3  O   UNK N   1      34.489  17.946   6.494  0.00  0.00    -0.648 OA
BRANCH   2   4
HETATM    4  O   UNK N   1      34.958  19.053   8.359  0.00  0.00    -0.775 OA
HETATM    5  H   UNK N   1      34.637  19.460   9.139  0.00  0.00     0.167 HD
ENDBRANCH   2   4
ENDBRANCH   1   2
BRANCH   1   6
HETATM    6  C   UNK N   1      31.877  18.121   8.496  0.00  0.00     0.035 C 
BRANCH   6   7
HETATM    7  C   UNK N   1      30.714  17.177   8.731  0.00  0.00     0.004 C 
BRANCH   7   8
HETATM    8  C   UNK N   1      29.660  17.832   9.598  0.00  0.00     0.019 C 
BRANCH   8   9
HETATM    9  C   UNK N   1      28.308  17.598   8.957  0.00  0.00     0.113 C 
BRANCH   9  10
HETATM   10  N   UNK N   1      27.636  18.864   8.738  0.00  0.00    -0.425 N 
HETATM   11  C   UNK N   1      27.993  19.290   7.397  0.00  0.00     0.139 C 
HETATM   12  H   UNK N   1      27.032  19.357   9.395  0.00  0.00     0.152 HD
ENDBRANCH   9  10
ENDBRANCH   8   9
ENDBRANCH   7   8
ENDBRANCH   6   7
ENDBRANCH   1   6
BRANCH   1  13
HETATM   13  N   UNK N   1      33.634  16.897   9.663  0.00  0.00    -0.418 N 
HETATM   14  H   UNK N   1      34.568  16.858  10.068  0.00  0.00     0.150 HD
HETATM   15  H   UNK N   1      32.892  16.581  10.286  0.00  0.00     0.150 HD
ENDBRANCH   1  13
TORSDOF 8
ENDMDL
MODEL 2
REMARK VINA RESULT:      -4.4     10.588     11.172
REMARK  8 active torsions:
REMARK  status: ('A' for Active; 'I' for Inactive)
REMARK    1  A    between atoms: C_1  and  C_2 
REMARK    2  A    between atoms: C_1  and  O_6 
REMARK    3  A    between atoms: C_2  and  C_3 
REMARK    4  A    between atoms: C_2  and  N_4 
REMARK    5  A    between atoms: C_3  and  C_7 
REMARK    6  A    between atoms: C_7  and  C_8 
REMARK    7  A    between atoms: C_8  and  C_9 
REMARK    8  A    between atoms: C_9  and  N_10 
ROOT
HETATM    1  C   UNK N   1      22.661  11.925  11.108  0.00  0.00     0.173 C 
ENDROOT
BRANCH   1   2
HETATM    2  C   UNK N   1      23.764  12.072  12.120  0.00  0.00     0.163 C 
HETATM    3  O   UNK N   1      23.509  11.973  13.309  0.00  0.00    -0.648 OA
BRANCH   2   4
HETATM    4  O   UNK N   1      25.035  12.302  11.731  0.00  0.00    -0.775 OA
HETATM    5  H   UNK N   1      25.769  12.163  12.296  0.00  0.00     0.167 HD
ENDBRANCH   2   4
ENDBRANCH   1   2
BRANCH   1   6
HETATM    6  C   UNK N   1      22.651  13.071  10.100  0.00  0.00     0.035 C 
BRANCH   6   7
HETATM    7  C   UNK N   1      21.247  13.625   9.959  0.00  0.00     0.004 C 
BRANCH   7   8
HETATM    8  C   UNK N   1      21.184  14.645   8.842  0.00  0.00     0.019 C 
BRANCH   8   9
HETATM    9  C   UNK N   1      19.923  15.464   9.018  0.00  0.00     0.113 C 
BRANCH   9  10
HETATM   10  N   UNK N   1      20.170  16.844   8.647  0.00  0.00    -0.425 N 
HETATM   11  C   UNK N   1      18.987  17.590   9.033  0.00  0.00     0.139 C 
HETATM   12  H   UNK N   1      21.009  17.217   8.203  0.00  0.00     0.152 HD
ENDBRANCH   9  10
ENDBRANCH   8   9
ENDBRANCH   7   8
ENDBRANCH   6   7
ENDBRANCH   1   6
BRANCH   1  13
HETATM   13  N   UNK N   1      21.378  11.863  11.793  0.00  0.00    -0.418 N 
HETATM   14  H   UNK N   1      20.978  12.445  12.527  0.00  0.00     0.150 HD
HETATM   15  H   UNK N   1      20.773  11.103  11.482  0.00  0.00     0.150 HD
ENDBRANCH   1  13
TORSDOF 8
ENDMDL
MODEL 3
REMARK VINA RESULT:      -4.3     10.237     10.954
REMARK  8 active torsions:
REMARK  status: ('A' for Active; 'I' for Inactive)
REMARK    1  A    between atoms: C_1  and  C_2 
REMARK    2  A    between atoms: C_1  and  O_6 
REMARK    3  A    between atoms: C_2  and  C_3 
REMARK    4  A    between atoms: C_2  and  N_4 
REMARK    5  A    between atoms: C_3  and  C_7 
REMARK    6  A    between atoms: C_7  and  C_8 
REMARK    7  A    between atoms: C_8  and  C_9 
REMARK    8  A    between atoms: C_9  and  N_10 
ROOT
HETATM    1  C   UNK N   1      22.668  11.890  11.072  0.00  0.00     0.173 C 
ENDROOT
BRANCH   1   2
HETATM    2  C   UNK N   1      23.802  12.074  12.042  0.00  0.00     0.163 C 
HETATM    3  O   UNK N   1      23.585  12.017  13.241  0.00  0.00    -0.648 OA
BRANCH   2   4
HETATM    4  O   UNK N   1      25.060  12.290  11.606  0.00  0.00    -0.775 OA
HETATM    5  H   UNK N   1      25.717  11.624  11.605  0.00  0.00     0.167 HD
ENDBRANCH   2   4
ENDBRANCH   1   2
BRANCH   1   6
HETATM    6  C   UNK N   1      22.600  13.020  10.048  0.00  0.00     0.035 C 
BRANCH   6   7
HETATM    7  C   UNK N   1      21.202  13.606  10.015  0.00  0.00     0.004 C 
BRANCH   7   8
HETATM    8  C   UNK N   1      20.901  14.193   8.653  0.00  0.00     0.019 C 
BRANCH   8   9
HETATM    9  C   UNK N   1      20.631  15.673   8.824  0.00  0.00     0.113 C 
BRANCH   9  10
HETATM   10  N   UNK N   1      20.903  16.376   7.585  0.00  0.00    -0.425 N 
HETATM   11  C   UNK N   1      22.052  15.721   6.987  0.00  0.00     0.139 C 
HETATM   12  H   UNK N   1      20.389  17.172   7.208  0.00  0.00     0.152 HD
ENDBRANCH   9  10
ENDBRANCH   8   9
ENDBRANCH   7   8
ENDBRANCH   6   7
ENDBRANCH   1   6
BRANCH   1  13
HETATM   13  N   UNK N   1      21.411  11.813  11.802  0.00  0.00    -0.418 N 
HETATM   14  H   UNK N   1      20.459  12.053  11.529  0.00  0.00     0.150 HD
HETATM   15  H   UNK N   1      21.499  11.456  12.753  0.00  0.00     0.150 HD
ENDBRANCH   1  13
TORSDOF 8
ENDMDL
MODEL 4
REMARK VINA RESULT:      -4.3      3.535      5.618
REMARK  8 active torsions:
REMARK  status: ('A' for Active; 'I' for Inactive)
REMARK    1  A    between atoms: C_1  and  C_2 
REMARK    2  A    between atoms: C_1  and  O_6 
REMARK    3  A    between atoms: C_2  and  C_3 
REMARK    4  A    between atoms: C_2  and  N_4 
REMARK    5  A    between atoms: C_3  and  C_7 
REMARK    6  A    between atoms: C_7  and  C_8 
REMARK    7  A    between atoms: C_8  and  C_9 
REMARK    8  A    between atoms: C_9  and  N_10 
ROOT
HETATM    1  C   UNK N   1      29.414  18.164   9.927  0.00  0.00     0.173 C 
ENDROOT
BRANCH   1   2
HETATM    2  C   UNK N   1      28.092  18.021   9.224  0.00  0.00     0.163 C 
HETATM    3  O   UNK N   1      27.487  16.964   9.285  0.00  0.00    -0.648 OA
BRANCH   2   4
HETATM    4  O   UNK N   1      27.559  19.052   8.536  0.00  0.00    -0.775 OA
HETATM    5  H   UNK N   1      27.624  19.941   8.824  0.00  0.00     0.167 HD
ENDBRANCH   2   4
ENDBRANCH   1   2
BRANCH   1   6
HETATM    6  C   UNK N   1      30.506  18.681   8.995  0.00  0.00     0.035 C 
BRANCH   6   7
HETATM    7  C   UNK N   1      31.237  17.516   8.356  0.00  0.00     0.004 C 
BRANCH   7   8
HETATM    8  C   UNK N   1      32.705  17.840   8.177  0.00  0.00     0.019 C 
BRANCH   8   9
HETATM    9  C   UNK N   1      33.515  16.771   8.880  0.00  0.00     0.113 C 
BRANCH   9  10
HETATM   10  N   UNK N   1      34.484  17.385   9.767  0.00  0.00    -0.425 N 
HETATM   11  C   UNK N   1      35.134  16.299  10.478  0.00  0.00     0.139 C 
HETATM   12  H   UNK N   1      34.673  18.382   9.871  0.00  0.00     0.152 HD
ENDBRANCH   9  10
ENDBRANCH   8   9
ENDBRANCH   7   8
ENDBRANCH   6   7
ENDBRANCH   1   6
BRANCH   1  13
HETATM   13  N   UNK N   1      29.811  16.878  10.481  0.00  0.00    -0.418 N 
HETATM   14  H   UNK N   1      30.724  16.513  10.750  0.00  0.00     0.150 HD
HETATM   15  H   UNK N   1      29.039  16.227  10.627  0.00  0.00     0.150 HD
ENDBRANCH   1  13
TORSDOF 8
ENDMDL
MODEL 5
REMARK VINA RESULT:      -4.2      2.664      3.487
REMARK  8 active torsions:
REMARK  status: ('A' for Active; 'I' for Inactive)
REMARK    1  A    between atoms: C_1  and  C_2 
REMARK    2  A    between atoms: C_1  and  O_6 
REMARK    3  A    between atoms: C_2  and  C_3 
REMARK    4  A    between atoms: C_2  and  N_4 
REMARK    5  A    between atoms: C_3  and  C_7 
REMARK    6  A    between atoms: C_7  and  C_8 
REMARK    7  A    between atoms: C_8  and  C_9 
REMARK    8  A    between atoms: C_9  and  N_10 
ROOT
HETATM    1  C   UNK N   1      33.533  17.183   8.551  0.00  0.00     0.173 C 
ENDROOT
BRANCH   1   2
HETATM    2  C   UNK N   1      34.371  18.153   7.765  0.00  0.00     0.163 C 
HETATM    3  O   UNK N   1      34.408  18.071   6.549  0.00  0.00    -0.648 OA
BRANCH   2   4
HETATM    4  O   UNK N   1      35.075  19.121   8.386  0.00  0.00    -0.775 OA
HETATM    5  H   UNK N   1      35.978  19.288   8.203  0.00  0.00     0.167 HD
ENDBRANCH   2   4
ENDBRANCH   1   2
BRANCH   1   6
HETATM    6  C   UNK N   1      32.072  17.620   8.630  0.00  0.00     0.035 C 
BRANCH   6   7
HETATM    7  C   UNK N   1      31.180  16.563   8.010  0.00  0.00     0.004 C 
BRANCH   7   8
HETATM    8  C   UNK N   1      30.827  16.930   6.584  0.00  0.00     0.019 C 
BRANCH   8   9
HETATM    9  C   UNK N   1      31.278  15.803   5.680  0.00  0.00     0.113 C 
BRANCH   9  10
HETATM   10  N   UNK N   1      32.608  16.074   5.171  0.00  0.00    -0.425 N 
HETATM   11  C   UNK N   1      33.390  14.875   5.409  0.00  0.00     0.139 C 
HETATM   12  H   UNK N   1      32.931  16.937   4.732  0.00  0.00     0.152 HD
ENDBRANCH   9  10
ENDBRANCH   8   9
ENDBRANCH   7   8
ENDBRANCH   6   7
ENDBRANCH   1   6
BRANCH   1  13
HETATM   13  N   UNK N   1      34.077  17.046   9.893  0.00  0.00    -0.418 N 
HETATM   14  H   UNK N   1      34.922  16.589  10.234  0.00  0.00     0.150 HD
HETATM   15  H   UNK N   1      33.514  17.486  10.622  0.00  0.00     0.150 HD
ENDBRANCH   1  13
TORSDOF 8
ENDMDL
MODEL 6
REMARK VINA RESULT:      -4.2      3.717      6.236
REMARK  8 active torsions:
REMARK  status: ('A' for Active; 'I' for Inactive)
REMARK    1  A    between atoms: C_1  and  C_2 
REMARK    2  A    between atoms: C_1  and  O_6 
REMARK    3  A    between atoms: C_2  and  C_3 
REMARK    4  A    between atoms: C_2  and  N_4 
REMARK    5  A    between atoms: C_3  and  C_7 
REMARK    6  A    between atoms: C_7  and  C_8 
REMARK    7  A    between atoms: C_8  and  C_9 
REMARK    8  A    between atoms: C_9  and  N_10 
ROOT
HETATM    1  C   UNK N   1      34.180  17.235   9.083  0.00  0.00     0.173 C 
ENDROOT
BRANCH   1   2
HETATM    2  C   UNK N   1      34.651  18.285   8.115  0.00  0.00     0.163 C 
HETATM    3  O   UNK N   1      35.272  19.251   8.527  0.00  0.00    -0.648 OA
BRANCH   2   4
HETATM    4  O   UNK N   1      34.407  18.169   6.793  0.00  0.00    -0.775 OA
HETATM    5  H   UNK N   1      34.424  17.346   6.346  0.00  0.00     0.167 HD
ENDBRANCH   2   4
ENDBRANCH   1   2
BRANCH   1   6
HETATM    6  C   UNK N   1      34.747  15.857   8.754  0.00  0.00     0.035 C 
BRANCH   6   7
HETATM    7  C   UNK N   1      34.834  15.017  10.013  0.00  0.00     0.004 C 
BRANCH   7   8
HETATM    8  C   UNK N   1      35.944  15.517  10.913  0.00  0.00     0.019 C 
BRANCH   8   9
HETATM    9  C   UNK N   1      36.387  14.372  11.800  0.00  0.00     0.113 C 
BRANCH   9  10
HETATM   10  N   UNK N   1      36.431  14.803  13.183  0.00  0.00    -0.425 N 
HETATM   11  C   UNK N   1      35.768  13.769  13.956  0.00  0.00     0.139 C 
HETATM   12  H   UNK N   1      36.845  15.663  13.543  0.00  0.00     0.152 HD
ENDBRANCH   9  10
ENDBRANCH   8   9
ENDBRANCH   7   8
ENDBRANCH   6   7
ENDBRANCH   1   6
BRANCH   1  13
HETATM   13  N   UNK N   1      32.726  17.183   9.073  0.00  0.00    -0.418 N 
HETATM   14  H   UNK N   1      32.078  16.565   8.586  0.00  0.00     0.150 HD
HETATM   15  H   UNK N   1      32.276  17.887   9.658  0.00  0.00     0.150 HD
ENDBRANCH   1  13
TORSDOF 8
ENDMDL
MODEL 7
REMARK VINA RESULT:      -4.1      3.580      6.606
REMARK  8 active torsions:
REMARK  status: ('A' for Active; 'I' for Inactive)
REMARK    1  A    between atoms: C_1  and  C_2 
REMARK    2  A    between atoms: C_1  and  O_6 
REMARK    3  A    between atoms: C_2  and  C_3 
REMARK    4  A    between atoms: C_2  and  N_4 
REMARK    5  A    between atoms: C_3  and  C_7 
REMARK    6  A    between atoms: C_7  and  C_8 
REMARK    7  A    between atoms: C_8  and  C_9 
REMARK    8  A    between atoms: C_9  and  N_10 
ROOT
HETATM    1  C   UNK N   1      33.852  17.383   9.084  0.00  0.00     0.173 C 
ENDROOT
BRANCH   1   2
HETATM    2  C   UNK N   1      34.562  18.266   8.095  0.00  0.00     0.163 C 
HETATM    3  O   UNK N   1      35.267  19.176   8.497  0.00  0.00    -0.648 OA
BRANCH   2   4
HETATM    4  O   UNK N   1      34.441  18.057   6.768  0.00  0.00    -0.775 OA
HETATM    5  H   UNK N   1      35.149  17.754   6.236  0.00  0.00     0.167 HD
ENDBRANCH   2   4
ENDBRANCH   1   2
BRANCH   1   6
HETATM    6  C   UNK N   1      34.448  15.979   9.131  0.00  0.00     0.035 C 
BRANCH   6   7
HETATM    7  C   UNK N   1      34.791  15.609  10.561  0.00  0.00     0.004 C 
BRANCH   7   8
HETATM    8  C   UNK N   1      36.287  15.656  10.782  0.00  0.00     0.019 C 
BRANCH   8   9
HETATM    9  C   UNK N   1      36.916  14.513  10.014  0.00  0.00     0.113 C 
BRANCH   9  10
HETATM   10  N   UNK N   1      38.360  14.564  10.138  0.00  0.00    -0.425 N 
HETATM   11  C   UNK N   1      38.818  13.188  10.166  0.00  0.00     0.139 C 
HETATM   12  H   UNK N   1      38.939  15.402  10.195  0.00  0.00     0.152 HD
ENDBRANCH   9  10
ENDBRANCH   8   9
ENDBRANCH   7   8
ENDBRANCH   6   7
ENDBRANCH   1   6
BRANCH   1  13
HETATM   13  N   UNK N   1      32.440  17.305   8.738  0.00  0.00    -0.418 N 
HETATM   14  H   UNK N   1      31.901  16.578   8.269  0.00  0.00     0.150 HD
HETATM   15  H   UNK N   1      31.894  18.120   9.015  0.00  0.00     0.150 HD
ENDBRANCH   1  13
TORSDOF 8
ENDMDL
MODEL 8
REMARK VINA RESULT:      -4.1     11.554     13.184
REMARK  8 active torsions:
REMARK  status: ('A' for Active; 'I' for Inactive)
REMARK    1  A    between atoms: C_1  and  C_2 
REMARK    2  A    between atoms: C_1  and  O_6 
REMARK    3  A    between atoms: C_2  and  C_3 
REMARK    4  A    between atoms: C_2  and  N_4 
REMARK    5  A    between atoms: C_3  and  C_7 
REMARK    6  A    between atoms: C_7  and  C_8 
REMARK    7  A    between atoms: C_8  and  C_9 
REMARK    8  A    between atoms: C_9  and  N_10 
ROOT
HETATM    1  C   UNK N   1      44.416  22.029   3.253  0.00  0.00     0.173 C 
ENDROOT
BRANCH   1   2
HETATM    2  C   UNK N   1      43.831  23.393   3.014  0.00  0.00     0.163 C 
HETATM    3  O   UNK N   1      44.546  24.379   3.092  0.00  0.00    -0.648 OA
BRANCH   2   4
HETATM    4  O   UNK N   1      42.528  23.543   2.702  0.00  0.00    -0.775 OA
HETATM    5  H   UNK N   1      41.838  23.357   3.308  0.00  0.00     0.167 HD
ENDBRANCH   2   4
ENDBRANCH   1   2
BRANCH   1   6
HETATM    6  C   UNK N   1      43.388  21.056   3.824  0.00  0.00     0.035 C 
BRANCH   6   7
HETATM    7  C   UNK N   1      43.275  19.837   2.930  0.00  0.00     0.004 C 
BRANCH   7   8
HETATM    8  C   UNK N   1      41.904  19.766   2.294  0.00  0.00     0.019 C 
BRANCH   8   9
HETATM    9  C   UNK N   1      40.875  20.134   3.342  0.00  0.00     0.113 C 
BRANCH   9  10
HETATM   10  N   UNK N   1      39.811  20.916   2.743  0.00  0.00    -0.425 N 
HETATM   11  C   UNK N   1      39.888  20.683   1.313  0.00  0.00     0.139 C 
HETATM   12  H   UNK N   1      39.142  21.512   3.230  0.00  0.00     0.152 HD
ENDBRANCH   9  10
ENDBRANCH   8   9
ENDBRANCH   7   8
ENDBRANCH   6   7
ENDBRANCH   1   6
BRANCH   1  13
HETATM   13  N   UNK N   1      45.547  22.138   4.163  0.00  0.00    -0.418 N 
HETATM   14  H   UNK N   1      46.481  22.523   4.034  0.00  0.00     0.150 HD
HETATM   15  H   UNK N   1      45.373  21.763   5.096  0.00  0.00     0.150 HD
ENDBRANCH   1  13
TORSDOF 8
ENDMDL
MODEL 9
REMARK VINA RESULT:      -4.1      2.498      3.169
REMARK  8 active torsions:
REMARK  status: ('A' for Active; 'I' for Inactive)
REMARK    1  A    between atoms: C_1  and  C_2 
REMARK    2  A    between atoms: C_1  and  O_6 
REMARK    3  A    between atoms: C_2  and  C_3 
REMARK    4  A    between atoms: C_2  and  N_4 
REMARK    5  A    between atoms: C_3  and  C_7 
REMARK    6  A    between atoms: C_7  and  C_8 
REMARK    7  A    between atoms: C_8  and  C_9 
REMARK    8  A    between atoms: C_9  and  N_10 
ROOT
HETATM    1  C   UNK N   1      34.670  15.420   9.922  0.00  0.00     0.173 C 
ENDROOT
BRANCH   1   2
HETATM    2  C   UNK N   1      35.673  16.428  10.411  0.00  0.00     0.163 C 
HETATM    3  O   UNK N   1      35.434  17.620  10.302  0.00  0.00    -0.648 OA
BRANCH   2   4
HETATM    4  O   UNK N   1      36.830  16.034  10.981  0.00  0.00    -0.775 OA
HETATM    5  H   UNK N   1      37.568  15.747  10.482  0.00  0.00     0.167 HD
ENDBRANCH   2   4
ENDBRANCH   1   2
BRANCH   1   6
HETATM    6  C   UNK N   1      33.954  15.891   8.658  0.00  0.00     0.035 C 
BRANCH   6   7
HETATM    7  C   UNK N   1      32.453  15.787   8.844  0.00  0.00     0.004 C 
BRANCH   7   8
HETATM    8  C   UNK N   1      31.725  16.373   7.653  0.00  0.00     0.019 C 
BRANCH   8   9
HETATM    9  C   UNK N   1      30.490  17.089   8.157  0.00  0.00     0.113 C 
BRANCH   9  10
HETATM   10  N   UNK N   1      30.792  17.797   9.386  0.00  0.00    -0.425 N 
HETATM   11  C   UNK N   1      29.623  18.600   9.694  0.00  0.00     0.139 C 
HETATM   12  H   UNK N   1      31.656  17.742   9.927  0.00  0.00     0.152 HD
ENDBRANCH   9  10
ENDBRANCH   8   9
ENDBRANCH   7   8
ENDBRANCH   6   7
ENDBRANCH   1   6
BRANCH   1  13
HETATM   13  N   UNK N   1      33.694  15.158  10.969  0.00  0.00    -0.418 N 
HETATM   14  H   UNK N   1      32.691  14.981  10.926  0.00  0.00     0.150 HD
HETATM   15  H   UNK N   1      34.083  15.147  11.912  0.00  0.00     0.150 HD
ENDBRANCH   1  13
TORSDOF 8
ENDMDL
