MODEL 1
REMARK VINA RESULT:      -5.1      0.000      0.000
REMARK  7 active torsions:
REMARK  status: ('A' for Active; 'I' for Inactive)
REMARK       I    between atoms: N_2  and  C_4 
REMARK       I    between atoms: C_4  and  N_5 
REMARK    1  A    between atoms: N_6  and  C_8 
REMARK    2  A    between atoms: C_8  and  C_9 
REMARK    3  A    between atoms: C_9  and  C_10 
REMARK    4  A    between atoms: C_10  and  C_11 
REMARK    5  A    between atoms: C_11  and  N_12 
REMARK    6  A    between atoms: C_11  and  C_13 
REMARK    7  A    between atoms: C_13  and  O_14 
ROOT
HETATM    1  C   UNK N   1      29.707  17.039   7.424  0.00  0.00     0.138 C 
ENDROOT
BRANCH   1   2
HETATM    2  N   UNK N   1      28.999  18.122   6.744  0.00  0.00    -0.227 N 
HETATM    3  C   UNK N   1      28.139  18.970   7.221  0.00  0.00     0.668 C 
HETATM    4  N   UNK N   1      27.575  19.955   6.357  0.00  0.00    -0.227 N 
HETATM    5  N   UNK N   1      27.751  18.950   8.584  0.00  0.00    -0.235 N 
HETATM    6  C   UNK N   1      26.579  20.871   6.849  0.00  0.00     0.168 C 
HETATM    7  C   UNK N   1      27.995  20.059   4.984  0.00  0.00     0.168 C 
HETATM    8  H   UNK N   1      28.178  18.475   9.332  0.00  0.00     0.174 HD
HETATM    9  H   UNK N   1      26.952  19.478   8.810  0.00  0.00     0.174 HD
ATOM     10  HN  UNK N   1      29.213  18.228   5.753  1.00  0.00     0.177 HD
ENDBRANCH   1   2
BRANCH   1  11
HETATM   11  C   UNK N   1      31.224  17.008   7.294  0.00  0.00     0.023 C 
BRANCH  11  12
HETATM   12  C   UNK N   1      31.861  17.938   8.307  0.00  0.00     0.037 C 
BRANCH  12  13
HETATM   13  C   UNK N   1      33.252  17.437   8.633  0.00  0.00     0.173 C 
BRANCH  13  14
HETATM   14  N   UNK N   1      33.334  16.014   8.343  0.00  0.00    -0.418 N 
HETATM   15  H   UNK N   1      34.111  15.457   8.697  0.00  0.00     0.150 HD
HETATM   16  H   UNK N   1      32.608  15.570   7.781  0.00  0.00     0.150 HD
ENDBRANCH  13  14
BRANCH  13  17
HETATM   17  C   UNK N   1      34.262  18.207   7.837  0.00  0.00     0.163 C 
HETATM   18  O   UNK N   1      34.933  19.070   8.382  0.00  0.00    -0.648 OA
BRANCH  17  19
HETATM   19  O   UNK N   1      34.440  17.957   6.525  0.00  0.00    -0.775 OA
HETATM   20  H   UNK N   1      34.524  18.585   5.835  0.00  0.00     0.167 HD
ENDBRANCH  17  19
ENDBRANCH  13  17
ENDBRANCH  12  13
ENDBRANCH  11  12
ENDBRANCH   1  11
TORSDOF 7
ENDMDL
MODEL 2
REMARK VINA RESULT:      -4.9      9.771     11.513
REMARK  7 active torsions:
REMARK  status: ('A' for Active; 'I' for Inactive)
REMARK       I    between atoms: N_2  and  C_4 
REMARK       I    between atoms: C_4  and  N_5 
REMARK    1  A    between atoms: N_6  and  C_8 
REMARK    2  A    between atoms: C_8  and  C_9 
REMARK    3  A    between atoms: C_9  and  C_10 
REMARK    4  A    between atoms: C_10  and  C_11 
REMARK    5  A    between atoms: C_11  and  N_12 
REMARK    6  A    between atoms: C_11  and  C_13 
REMARK    7  A    between atoms: C_13  and  O_14 
ROOT
HETATM    1  C   UNK N   1      22.246  18.080   5.377  0.00  0.00     0.138 C 
ENDROOT
BRANCH   1   2
HETATM    2  N   UNK N   1      21.408  17.723   6.519  0.00  0.00    -0.227 N 
HETATM    3  C   UNK N   1      21.341  16.602   7.173  0.00  0.00     0.668 C 
HETATM    4  N   UNK N   1      20.437  16.485   8.270  0.00  0.00    -0.227 N 
HETATM    5  N   UNK N   1      22.152  15.492   6.831  0.00  0.00    -0.235 N 
HETATM    6  C   UNK N   1      20.306  15.237   8.976  0.00  0.00     0.168 C 
HETATM    7  C   UNK N   1      19.648  17.611   8.699  0.00  0.00     0.168 C 
HETATM    8  H   UNK N   1      22.941  15.472   6.244  0.00  0.00     0.174 HD
HETATM    9  H   UNK N   1      21.893  14.631   7.233  0.00  0.00     0.174 HD
ATOM     10  HN  UNK N   1      20.785  18.459   6.851  1.00  0.00     0.177 HD
ENDBRANCH   1   2
BRANCH   1  11
HETATM   11  C   UNK N   1      21.632  17.940   3.990  0.00  0.00     0.023 C 
BRANCH  11  12
HETATM   12  C   UNK N   1      20.920  19.218   3.594  0.00  0.00     0.037 C 
BRANCH  12  13
HETATM   13  C   UNK N   1      20.421  19.085   2.170  0.00  0.00     0.173 C 
BRANCH  13  14
HETATM   14  N   UNK N   1      18.978  18.902   2.179  0.00  0.00    -0.418 N 
HETATM   15  H   UNK N   1      18.447  18.930   1.309  0.00  0.00     0.150 HD
HETATM   16  H   UNK N   1      18.494  18.744   3.063  0.00  0.00     0.150 HD
ENDBRANCH  13  14
BRANCH  13  17
HETATM   17  C   UNK N   1      20.804  20.304   1.388  0.00  0.00     0.163 C 
HETATM   18  O   UNK N   1      21.391  21.220   1.943  0.00  0.00    -0.648 OA
BRANCH  17  19
HETATM   19  O   UNK N   1      20.509  20.401   0.077  0.00  0.00    -0.775 OA
HETATM   20  H   UNK N   1      20.617  21.150  -0.474  0.00  0.00     0.167 HD
ENDBRANCH  17  19
ENDBRANCH  13  17
ENDBRANCH  12  13
ENDBRANCH  11  12
ENDBRANCH   1  11
TORSDOF 7
ENDMDL
MODEL 3
REMARK VINA RESULT:      -4.9      4.596      8.314
REMARK  7 active torsions:
REMARK  status: ('A' for Active; 'I' for Inactive)
REMARK       I    between atoms: N_2  and  C_4 
REMARK       I    between atoms: C_4  and  N_5 
REMARK    1  A    between atoms: N_6  and  C_8 
REMARK    2  A    between atoms: C_8  and  C_9 
REMARK    3  A    between atoms: C_9  and  C_10 
REMARK    4  A    between atoms: C_10  and  C_11 
REMARK    5  A    between atoms: C_11  and  N_12 
REMARK    6  A    between atoms: C_11  and  C_13 
REMARK    7  A    between atoms: C_13  and  O_14 
ROOT
HETATM    1  C   UNK N   1      34.860  14.099  10.504  0.00  0.00     0.138 C 
ENDROOT
BRANCH   1   2
HETATM    2  N   UNK N   1      34.883  13.520  11.845  0.00  0.00    -0.227 N 
HETATM    3  C   UNK N   1      35.550  13.896  12.894  0.00  0.00     0.668 C 
HETATM    4  N   UNK N   1      35.409  13.169  14.112  0.00  0.00    -0.227 N 
HETATM    5  N   UNK N   1      36.412  15.022  12.863  0.00  0.00    -0.235 N 
HETATM    6  C   UNK N   1      36.180  13.533  15.273  0.00  0.00     0.168 C 
HETATM    7  C   UNK N   1      34.489  12.065  14.209  0.00  0.00     0.168 C 
HETATM    8  H   UNK N   1      36.471  15.725  12.178  0.00  0.00     0.174 HD
HETATM    9  H   UNK N   1      37.030  15.110  13.624  0.00  0.00     0.174 HD
ATOM     10  HN  UNK N   1      34.288  12.702  11.977  1.00  0.00     0.177 HD
ENDBRANCH   1   2
BRANCH   1  11
HETATM   11  C   UNK N   1      33.833  15.191  10.234  0.00  0.00     0.023 C 
BRANCH  11  12
HETATM   12  C   UNK N   1      34.510  16.428   9.678  0.00  0.00     0.037 C 
BRANCH  12  13
HETATM   13  C   UNK N   1      33.682  16.971   8.532  0.00  0.00     0.173 C 
BRANCH  13  14
HETATM   14  N   UNK N   1      32.423  17.486   9.046  0.00  0.00    -0.418 N 
HETATM   15  H   UNK N   1      32.411  18.144   9.825  0.00  0.00     0.150 HD
HETATM   16  H   UNK N   1      31.544  17.187   8.624  0.00  0.00     0.150 HD
ENDBRANCH  13  14
BRANCH  13  17
HETATM   17  C   UNK N   1      34.451  18.043   7.820  0.00  0.00     0.163 C 
HETATM   18  O   UNK N   1      34.465  18.070   6.599  0.00  0.00    -0.648 OA
BRANCH  17  19
HETATM   19  O   UNK N   1      35.128  18.979   8.513  0.00  0.00    -0.775 OA
HETATM   20  H   UNK N   1      35.728  19.612   8.173  0.00  0.00     0.167 HD
ENDBRANCH  17  19
ENDBRANCH  13  17
ENDBRANCH  12  13
ENDBRANCH  11  12
ENDBRANCH   1  11
TORSDOF 7
ENDMDL
MODEL 4
REMARK VINA RESULT:      -4.9      1.152      1.803
REMARK  7 active torsions:
REMARK  status: ('A' for Active; 'I' for Inactive)
REMARK       I    between atoms: N_2  and  C_4 
REMARK       I    between atoms: C_4  and  N_5 
REMARK    1  A    between atoms: N_6  and  C_8 
REMARK    2  A    between atoms: C_8  and  C_9 
REMARK    3  A    between atoms: C_9  and  C_10 
REMARK    4  A    between atoms: C_10  and  C_11 
REMARK    5  A    between atoms: C_11  and  N_12 
REMARK    6  A    between atoms: C_11  and  C_13 
REMARK    7  A    between atoms: C_13  and  O_14 
ROOT
HETATM    1  C   UNK N   1      29.697  17.290   7.026  0.00  0.00     0.138 C 
ENDROOT
BRANCH   1   2
HETATM    2  N   UNK N   1      28.752  18.293   6.540  0.00  0.00    -0.227 N 
HETATM    3  C   UNK N   1      28.427  18.596   5.319  0.00  0.00     0.668 C 
HETATM    4  N   UNK N   1      27.466  19.623   5.085  0.00  0.00    -0.227 N 
HETATM    5  N   UNK N   1      28.997  17.924   4.209  0.00  0.00    -0.235 N 
HETATM    6  C   UNK N   1      27.130  20.015   3.741  0.00  0.00     0.168 C 
HETATM    7  C   UNK N   1      26.807  20.281   6.184  0.00  0.00     0.168 C 
HETATM    8  H   UNK N   1      29.513  17.086   4.203  0.00  0.00     0.174 HD
HETATM    9  H   UNK N   1      28.859  18.350   3.333  0.00  0.00     0.174 HD
ATOM     10  HN  UNK N   1      28.279  18.834   7.264  1.00  0.00     0.177 HD
ENDBRANCH   1   2
BRANCH   1  11
HETATM   11  C   UNK N   1      30.756  17.752   8.017  0.00  0.00     0.023 C 
BRANCH  11  12
HETATM   12  C   UNK N   1      32.110  17.176   7.654  0.00  0.00     0.037 C 
BRANCH  12  13
HETATM   13  C   UNK N   1      33.149  17.706   8.620  0.00  0.00     0.173 C 
BRANCH  13  14
HETATM   14  N   UNK N   1      33.593  16.630   9.492  0.00  0.00    -0.418 N 
HETATM   15  H   UNK N   1      34.033  16.837  10.388  0.00  0.00     0.150 HD
HETATM   16  H   UNK N   1      33.463  15.660   9.204  0.00  0.00     0.150 HD
ENDBRANCH  13  14
BRANCH  13  17
HETATM   17  C   UNK N   1      34.298  18.286   7.852  0.00  0.00     0.163 C 
HETATM   18  O   UNK N   1      35.029  19.107   8.385  0.00  0.00    -0.648 OA
BRANCH  17  19
HETATM   19  O   UNK N   1      34.535  17.911   6.580  0.00  0.00    -0.775 OA
HETATM   20  H   UNK N   1      35.069  18.352   5.949  0.00  0.00     0.167 HD
ENDBRANCH  17  19
ENDBRANCH  13  17
ENDBRANCH  12  13
ENDBRANCH  11  12
ENDBRANCH   1  11
TORSDOF 7
ENDMDL
MODEL 5
REMARK VINA RESULT:      -4.8      5.503      8.293
REMARK  7 active torsions:
REMARK  status: ('A' for Active; 'I' for Inactive)
REMARK       I    between atoms: N_2  and  C_4 
REMARK       I    between atoms: C_4  and  N_5 
REMARK    1  A    between atoms: N_6  and  C_8 
REMARK    2  A    between atoms: C_8  and  C_9 
REMARK    3  A    between atoms: C_9  and  C_10 
REMARK    4  A    between atoms: C_10  and  C_11 
REMARK    5  A    between atoms: C_11  and  N_12 
REMARK    6  A    between atoms: C_11  and  C_13 
REMARK    7  A    between atoms: C_13  and  O_14 
ROOT
HETATM    1  C   UNK N   1      35.591  13.906  10.096  0.00  0.00     0.138 C 
ENDROOT
BRANCH   1   2
HETATM    2  N   UNK N   1      35.532  13.650  11.533  0.00  0.00    -0.227 N 
HETATM    3  C   UNK N   1      34.969  12.670  12.174  0.00  0.00     0.668 C 
HETATM    4  N   UNK N   1      35.046  12.628  13.597  0.00  0.00    -0.227 N 
HETATM    5  N   UNK N   1      34.286  11.632  11.493  0.00  0.00    -0.235 N 
HETATM    6  C   UNK N   1      34.383  11.582  14.332  0.00  0.00     0.168 C 
HETATM    7  C   UNK N   1      35.792  13.622  14.325  0.00  0.00     0.168 C 
HETATM    8  H   UNK N   1      34.308  11.415  10.533  0.00  0.00     0.174 HD
HETATM    9  H   UNK N   1      33.717  11.054  12.051  0.00  0.00     0.174 HD
ATOM     10  HN  UNK N   1      36.002  14.341  12.119  1.00  0.00     0.177 HD
ENDBRANCH   1   2
BRANCH   1  11
HETATM   11  C   UNK N   1      34.410  14.636   9.469  0.00  0.00     0.023 C 
BRANCH  11  12
HETATM   12  C   UNK N   1      34.896  15.767   8.585  0.00  0.00     0.037 C 
BRANCH  12  13
HETATM   13  C   UNK N   1      34.392  17.082   9.142  0.00  0.00     0.173 C 
BRANCH  13  14
HETATM   14  N   UNK N   1      35.002  17.324  10.439  0.00  0.00    -0.418 N 
HETATM   15  H   UNK N   1      35.641  18.107  10.574  0.00  0.00     0.150 HD
HETATM   16  H   UNK N   1      34.789  16.704  11.221  0.00  0.00     0.150 HD
ENDBRANCH  13  14
BRANCH  13  17
HETATM   17  C   UNK N   1      34.710  18.189   8.182  0.00  0.00     0.163 C 
HETATM   18  O   UNK N   1      34.410  18.074   7.004  0.00  0.00    -0.648 OA
BRANCH  17  19
HETATM   19  O   UNK N   1      35.324  19.311   8.606  0.00  0.00    -0.775 OA
HETATM   20  H   UNK N   1      35.254  20.169   8.237  0.00  0.00     0.167 HD
ENDBRANCH  17  19
ENDBRANCH  13  17
ENDBRANCH  12  13
ENDBRANCH  11  12
ENDBRANCH   1  11
TORSDOF 7
ENDMDL
MODEL 6
REMARK VINA RESULT:      -4.8      9.093     10.193
REMARK  7 active torsions:
REMARK  status: ('A' for Active; 'I' for Inactive)
REMARK       I    between atoms: N_2  and  C_4 
REMARK       I    between atoms: C_4  and  N_5 
REMARK    1  A    between atoms: N_6  and  C_8 
REMARK    2  A    between atoms: C_8  and  C_9 
REMARK    3  A    between atoms: C_9  and  C_10 
REMARK    4  A    between atoms: C_10  and  C_11 
REMARK    5  A    between atoms: C_11  and  N_12 
REMARK    6  A    between atoms: C_11  and  C_13 
REMARK    7  A    between atoms: C_13  and  O_14 
ROOT
HETATM    1  C   UNK N   1      20.903  14.312   9.469  0.00  0.00     0.138 C 
ENDROOT
BRANCH   1   2
HETATM    2  N   UNK N   1      21.393  15.083   8.329  0.00  0.00    -0.227 N 
HETATM    3  C   UNK N   1      21.030  16.258   7.911  0.00  0.00     0.668 C 
HETATM    4  N   UNK N   1      21.660  16.818   6.761  0.00  0.00    -0.227 N 
HETATM    5  N   UNK N   1      20.027  17.006   8.576  0.00  0.00    -0.235 N 
HETATM    6  C   UNK N   1      21.238  18.095   6.247  0.00  0.00     0.168 C 
HETATM    7  C   UNK N   1      22.735  16.126   6.099  0.00  0.00     0.168 C 
HETATM    8  H   UNK N   1      19.643  16.852   9.469  0.00  0.00     0.174 HD
HETATM    9  H   UNK N   1      19.669  17.778   8.082  0.00  0.00     0.174 HD
ATOM     10  HN  UNK N   1      22.127  14.634   7.782  1.00  0.00     0.177 HD
ENDBRANCH   1   2
BRANCH   1  11
HETATM   11  C   UNK N   1      21.216  12.822   9.489  0.00  0.00     0.023 C 
BRANCH  11  12
HETATM   12  C   UNK N   1      21.580  12.376  10.891  0.00  0.00     0.037 C 
BRANCH  12  13
HETATM   13  C   UNK N   1      22.861  11.568  10.836  0.00  0.00     0.173 C 
BRANCH  13  14
HETATM   14  N   UNK N   1      23.500  11.762   9.544  0.00  0.00    -0.418 N 
HETATM   15  H   UNK N   1      22.946  11.770   8.688  0.00  0.00     0.150 HD
HETATM   16  H   UNK N   1      24.511  11.890   9.495  0.00  0.00     0.150 HD
ENDBRANCH  13  14
BRANCH  13  17
HETATM   17  C   UNK N   1      23.767  11.988  11.954  0.00  0.00     0.163 C 
HETATM   18  O   UNK N   1      23.353  11.985  13.103  0.00  0.00    -0.648 OA
BRANCH  17  19
HETATM   19  O   UNK N   1      25.035  12.368  11.705  0.00  0.00    -0.775 OA
HETATM   20  H   UNK N   1      25.579  12.095  10.994  0.00  0.00     0.167 HD
ENDBRANCH  17  19
ENDBRANCH  13  17
ENDBRANCH  12  13
ENDBRANCH  11  12
ENDBRANCH   1  11
TORSDOF 7
ENDMDL
MODEL 7
REMARK VINA RESULT:      -4.7      7.339     10.214
REMARK  7 active torsions:
REMARK  status: ('A' for Active; 'I' for Inactive)
REMARK       I    between atoms: N_2  and  C_4 
REMARK       I    between atoms: C_4  and  N_5 
REMARK    1  A    between atoms: N_6  and  C_8 
REMARK    2  A    between atoms: C_8  and  C_9 
REMARK    3  A    between atoms: C_9  and  C_10 
REMARK    4  A    between atoms: C_10  and  C_11 
REMARK    5  A    between atoms: C_11  and  N_12 
REMARK    6  A    between atoms: C_11  and  C_13 
REMARK    7  A    between atoms: C_13  and  O_14 
ROOT
HETATM    1  C   UNK N   1      23.137  18.295   5.025  0.00  0.00     0.138 C 
ENDROOT
BRANCH   1   2
HETATM    2  N   UNK N   1      24.407  18.875   4.595  0.00  0.00    -0.227 N 
HETATM    3  C   UNK N   1      25.620  18.490   4.855  0.00  0.00     0.668 C 
HETATM    4  N   UNK N   1      26.718  19.221   4.316  0.00  0.00    -0.227 N 
HETATM    5  N   UNK N   1      25.882  17.351   5.657  0.00  0.00    -0.235 N 
HETATM    6  C   UNK N   1      28.071  18.845   4.634  0.00  0.00     0.168 C 
HETATM    7  C   UNK N   1      26.498  20.340   3.436  0.00  0.00     0.168 C 
HETATM    8  H   UNK N   1      25.256  16.645   5.937  0.00  0.00     0.174 HD
HETATM    9  H   UNK N   1      26.808  17.253   5.975  0.00  0.00     0.174 HD
ATOM     10  HN  UNK N   1      24.330  19.703   4.004  1.00  0.00     0.177 HD
ENDBRANCH   1   2
BRANCH   1  11
HETATM   11  C   UNK N   1      22.108  17.992   3.945  0.00  0.00     0.023 C 
BRANCH  11  12
HETATM   12  C   UNK N   1      21.114  19.130   3.826  0.00  0.00     0.037 C 
BRANCH  12  13
HETATM   13  C   UNK N   1      20.668  19.248   2.383  0.00  0.00     0.173 C 
BRANCH  13  14
HETATM   14  N   UNK N   1      19.216  19.194   2.319  0.00  0.00    -0.418 N 
HETATM   15  H   UNK N   1      18.728  19.393   1.446  0.00  0.00     0.150 HD
HETATM   16  H   UNK N   1      18.682  18.956   3.154  0.00  0.00     0.150 HD
ENDBRANCH  13  14
BRANCH  13  17
HETATM   17  C   UNK N   1      21.186  20.529   1.801  0.00  0.00     0.163 C 
HETATM   18  O   UNK N   1      21.277  20.650   0.589  0.00  0.00    -0.648 OA
BRANCH  17  19
HETATM   19  O   UNK N   1      21.552  21.549   2.601  0.00  0.00    -0.775 OA
HETATM   20  H   UNK N   1      21.558  21.561   3.537  0.00  0.00     0.167 HD
ENDBRANCH  17  19
ENDBRANCH  13  17
ENDBRANCH  12  13
ENDBRANCH  11  12
ENDBRANCH   1  11
TORSDOF 7
ENDMDL
MODEL 8
REMARK VINA RESULT:      -4.7      4.385      6.801
REMARK  7 active torsions:
REMARK  status: ('A' for Active; 'I' for Inactive)
REMARK       I    between atoms: N_2  and  C_4 
REMARK       I    between atoms: C_4  and  N_5 
REMARK    1  A    between atoms: N_6  and  C_8 
REMARK    2  A    between atoms: C_8  and  C_9 
REMARK    3  A    between atoms: C_9  and  C_10 
REMARK    4  A    between atoms: C_10  and  C_11 
REMARK    5  A    between atoms: C_11  and  N_12 
REMARK    6  A    between atoms: C_11  and  C_13 
REMARK    7  A    between atoms: C_13  and  O_14 
ROOT
HETATM    1  C   UNK N   1      33.417  14.234   8.038  0.00  0.00     0.138 C 
ENDROOT
BRANCH   1   2
HETATM    2  N   UNK N   1      34.571  14.322   8.930  0.00  0.00    -0.227 N 
HETATM    3  C   UNK N   1      34.612  14.594  10.200  0.00  0.00     0.668 C 
HETATM    4  N   UNK N   1      35.870  14.621  10.870  0.00  0.00    -0.227 N 
HETATM    5  N   UNK N   1      33.433  14.855  10.942  0.00  0.00    -0.235 N 
HETATM    6  C   UNK N   1      35.946  14.972  12.264  0.00  0.00     0.168 C 
HETATM    7  C   UNK N   1      37.085  14.289  10.171  0.00  0.00     0.168 C 
HETATM    8  H   UNK N   1      32.499  14.690  10.682  0.00  0.00     0.174 HD
HETATM    9  H   UNK N   1      33.567  15.253  11.833  0.00  0.00     0.174 HD
ATOM     10  HN  UNK N   1      35.475  14.144   8.493  1.00  0.00     0.177 HD
ENDBRANCH   1   2
BRANCH   1  11
HETATM   11  C   UNK N   1      33.361  15.213   6.873  0.00  0.00     0.023 C 
BRANCH  11  12
HETATM   12  C   UNK N   1      34.558  16.142   6.903  0.00  0.00     0.037 C 
BRANCH  12  13
HETATM   13  C   UNK N   1      34.073  17.570   7.037  0.00  0.00     0.173 C 
BRANCH  13  14
HETATM   14  N   UNK N   1      32.627  17.607   6.886  0.00  0.00    -0.418 N 
HETATM   15  H   UNK N   1      32.138  18.497   6.794  0.00  0.00     0.150 HD
HETATM   16  H   UNK N   1      32.098  16.735   6.873  0.00  0.00     0.150 HD
ENDBRANCH  13  14
BRANCH  13  17
HETATM   17  C   UNK N   1      34.490  18.119   8.368  0.00  0.00     0.163 C 
HETATM   18  O   UNK N   1      35.216  19.100   8.418  0.00  0.00    -0.648 OA
BRANCH  17  19
HETATM   19  O   UNK N   1      34.071  17.543   9.511  0.00  0.00    -0.775 OA
HETATM   20  H   UNK N   1      34.599  17.271  10.235  0.00  0.00     0.167 HD
ENDBRANCH  17  19
ENDBRANCH  13  17
ENDBRANCH  12  13
ENDBRANCH  11  12
ENDBRANCH   1  11
TORSDOF 7
ENDMDL
MODEL 9
REMARK VINA RESULT:      -4.6      2.876      5.691
REMARK  7 active torsions:
REMARK  status: ('A' for Active; 'I' for Inactive)
REMARK       I    between atoms: N_2  and  C_4 
REMARK       I    between atoms: C_4  and  N_5 
REMARK    1  A    between atoms: N_6  and  C_8 
REMARK    2  A    between atoms: C_8  and  C_9 
REMARK    3  A    between atoms: C_9  and  C_10 
REMARK    4  A    between atoms: C_10  and  C_11 
REMARK    5  A    between atoms: C_11  and  N_12 
REMARK    6  A    between atoms: C_11  and  C_13 
REMARK    7  A    between atoms: C_13  and  O_14 
ROOT
HETATM    1  C   UNK N   1      30.089  16.291   6.594  0.00  0.00     0.138 C 
ENDROOT
BRANCH   1   2
HETATM    2  N   UNK N   1      31.481  16.643   6.864  0.00  0.00    -0.227 N 
HETATM    3  C   UNK N   1      32.131  16.631   7.988  0.00  0.00     0.668 C 
HETATM    4  N   UNK N   1      33.503  17.018   8.008  0.00  0.00    -0.227 N 
HETATM    5  N   UNK N   1      31.513  16.232   9.200  0.00  0.00    -0.235 N 
HETATM    6  C   UNK N   1      34.230  17.064   9.250  0.00  0.00     0.168 C 
HETATM    7  C   UNK N   1      34.191  17.359   6.789  0.00  0.00     0.168 C 
HETATM    8  H   UNK N   1      30.656  15.765   9.322  0.00  0.00     0.174 HD
HETATM    9  H   UNK N   1      32.005  16.450  10.024  0.00  0.00     0.174 HD
ATOM     10  HN  UNK N   1      32.021  16.941   6.051  1.00  0.00     0.177 HD
ENDBRANCH   1   2
BRANCH   1  11
HETATM   11  C   UNK N   1      29.164  17.410   6.132  0.00  0.00     0.023 C 
BRANCH  11  12
HETATM   12  C   UNK N   1      28.008  17.574   7.097  0.00  0.00     0.037 C 
BRANCH  12  13
HETATM   13  C   UNK N   1      28.349  18.659   8.098  0.00  0.00     0.173 C 
BRANCH  13  14
HETATM   14  N   UNK N   1      27.258  19.618   8.162  0.00  0.00    -0.418 N 
HETATM   15  H   UNK N   1      26.299  19.327   7.972  0.00  0.00     0.150 HD
HETATM   16  H   UNK N   1      27.454  20.591   8.397  0.00  0.00     0.150 HD
ENDBRANCH  13  14
BRANCH  13  17
HETATM   17  C   UNK N   1      28.603  18.042   9.440  0.00  0.00     0.163 C 
HETATM   18  O   UNK N   1      27.918  17.102   9.814  0.00  0.00    -0.648 OA
BRANCH  17  19
HETATM   19  O   UNK N   1      29.579  18.513  10.240  0.00  0.00    -0.775 OA
HETATM   20  H   UNK N   1      29.605  19.343  10.673  0.00  0.00     0.167 HD
ENDBRANCH  17  19
ENDBRANCH  13  17
ENDBRANCH  12  13
ENDBRANCH  11  12
ENDBRANCH   1  11
TORSDOF 7
ENDMDL
