REMARK  16 active torsions:
REMARK  status: ('A' for Active; 'I' for Inactive)
REMARK    1  A    between atoms: C_6  and  C_4 
REMARK    2  A    between atoms: O_30  and  C_4 
REMARK    3  A    between atoms: C_5  and  O_18 
REMARK    4  A    between atoms: O_19  and  C_7 
REMARK    5  A    between atoms: C_8  and  O_20 
REMARK    6  A    between atoms: C_9  and  O_21 
REMARK    7  A    between atoms: C_10  and  O_22 
REMARK    8  A    between atoms: C_11  and  O_23 
REMARK    9  A    between atoms: C_12  and  N_17 
REMARK   10  A    between atoms: C_13  and  O_32 
REMARK   11  A    between atoms: P_34  and  O_25 
REMARK   12  A    between atoms: P_35  and  O_27 
REMARK   13  A    between atoms: P_34  and  O_30 
REMARK   14  A    between atoms: P_35  and  O_32 
REMARK   15  A    between atoms: P_34  and  O_33 
REMARK   16  A    between atoms: P_35  and  O_33 
ROOT
HETATM    1  O   UNK N   1       0.664   7.799   2.154  0.00  0.00    -0.631 OA
HETATM    2  P   UNK N   1       1.450   7.866   0.818  0.00  0.00     0.401 P 
ENDROOT
BRANCH   2   3
HETATM    3  O   UNK N   1       0.768   9.161  -0.123  0.00  0.00    -0.307 OA
HETATM    4  H   UNK N   1       1.202   9.851  -0.647  0.00  0.00     0.222 HD
ENDBRANCH   2   3
BRANCH   2   5
HETATM    5  O   UNK N   1       1.206   6.321   0.065  0.00  0.00    -0.294 OA
BRANCH   5   6
HETATM    6  C   UNK N   1       0.453   6.579  -1.083  0.00  0.00     0.215 C 
BRANCH   6   7
HETATM    7  C   UNK N   1      -1.049   6.358  -0.874  0.00  0.00     0.180 C 
HETATM    8  C   UNK N   1      -1.813   7.431  -0.098  0.00  0.00     0.182 C 
HETATM    9  C   UNK N   1      -3.117   6.701   0.063  0.00  0.00     0.198 C 
HETATM   10  C   UNK N   1      -2.547   5.318   0.483  0.00  0.00     0.263 C 
HETATM   11  O   UNK N   1      -1.309   5.152  -0.205  0.00  0.00    -0.353 OA
BRANCH   8  12
HETATM   12  O   UNK N   1      -1.942   8.629  -0.805  0.00  0.00    -0.390 OA
HETATM   13  H   UNK N   1      -1.266   9.122  -1.296  0.00  0.00     0.210 HD
ENDBRANCH   8  12
BRANCH   9  14
HETATM   14  O   UNK N   1      -3.731   6.663  -1.198  0.00  0.00    -0.388 OA
HETATM   15  H   UNK N   1      -3.967   7.018  -2.070  0.00  0.00     0.210 HD
ENDBRANCH   9  14
BRANCH  10  16
HETATM   16  N   UNK N   1      -3.369   4.105   0.254  0.00  0.00    -0.280 N 
HETATM   17  C   UNK N   1      -2.707   2.922   0.426  0.00  0.00     0.103 A 
HETATM   18  C   UNK N   1      -3.303   1.705   0.128  0.00  0.00     0.073 A 
HETATM   19  C   UNK N   1      -4.602   1.700  -0.348  0.00  0.00     0.144 A 
HETATM   20  N   UNK N   1      -5.284   2.865  -0.465  0.00  0.00    -0.289 N 
HETATM   21  C   UNK N   1      -4.697   4.066  -0.162  0.00  0.00     0.330 A 
ATOM     22  HN  UNK N   1      -6.252   2.848  -0.785  1.00  0.00     0.172 HD
HETATM   23  O   UNK N   1      -5.364   5.079  -0.256  0.00  0.00    -0.246 OA
BRANCH  19  24
HETATM   24  O   UNK N   1      -5.185   0.541  -0.692  0.00  0.00    -0.346 OA
HETATM   25  H   UNK N   1      -6.089   0.490  -0.932  0.00  0.00     0.219 HD
ENDBRANCH  19  24
ENDBRANCH  10  16
ENDBRANCH   6   7
ENDBRANCH   5   6
ENDBRANCH   2   5
BRANCH   2  26
HETATM   26  O   UNK N   1       3.111   8.179   1.210  0.00  0.00    -0.195 OA
BRANCH  26  27
HETATM   27  P   UNK N   1       3.086   9.730   2.005  0.00  0.00     0.404 P 
HETATM   28  O   UNK N   1       4.513  10.032   2.534  0.00  0.00    -0.631 OA
BRANCH  27  29
HETATM   29  O   UNK N   1       2.097   9.677   3.431  0.00  0.00    -0.307 OA
HETATM   30  H   UNK N   1       1.795  10.141   4.227  0.00  0.00     0.222 HD
ENDBRANCH  27  29
BRANCH  27  31
HETATM   31  O   UNK N   1       2.573  11.063   0.979  0.00  0.00    -0.263 OA
BRANCH  31  32
HETATM   32  C   UNK N   1       3.130  11.147  -0.336  0.00  0.00     0.302 C 
HETATM   33  C   UNK N   1       3.865  12.486  -0.515  0.00  0.00     0.205 C 
HETATM   34  C   UNK N   1       5.169  12.435   0.274  0.00  0.00     0.182 C 
HETATM   35  C   UNK N   1       6.006  11.265  -0.251  0.00  0.00     0.173 C 
HETATM   36  C   UNK N   1       5.190   9.978  -0.160  0.00  0.00     0.205 C 
HETATM   37  O   UNK N   1       3.916  10.042  -0.785  0.00  0.00    -0.355 OA
BRANCH  33  38
HETATM   38  O   UNK N   1       3.061  13.540  -0.071  0.00  0.00    -0.388 OA
HETATM   39  H   UNK N   1       3.415  14.388   0.238  0.00  0.00     0.210 HD
ENDBRANCH  33  38
BRANCH  34  40
HETATM   40  O   UNK N   1       5.874  13.633   0.139  0.00  0.00    -0.390 OA
HETATM   41  H   UNK N   1       6.839  13.625   0.044  0.00  0.00     0.210 HD
ENDBRANCH  34  40
BRANCH  35  42
HETATM   42  O   UNK N   1       6.388  11.481  -1.578  0.00  0.00    -0.391 OA
HETATM   43  H   UNK N   1       6.650  11.326  -2.499  0.00  0.00     0.210 HD
ENDBRANCH  35  42
ENDBRANCH  31  32
ENDBRANCH  27  31
ENDBRANCH  26  27
ENDBRANCH   2  26
TORSDOF 16
