REMARK  5 active torsions:
REMARK  status: ('A' for Active; 'I' for Inactive)
REMARK    1  A    between atoms: C_2  and  C_1 
REMARK    2  A    between atoms: O_7  and  C_1 
REMARK    3  A    between atoms: C_3  and  O_8 
REMARK    4  A    between atoms: C_5  and  S_11 
REMARK    5  A    between atoms: C_6  and  S_12 
ROOT
HETATM    1  C   UNK N   1       2.213   0.562   0.085  0.00  0.00     0.162 C 
HETATM    2  C   UNK N   1      -0.267   0.876  -0.452  0.00  0.00     0.166 C 
HETATM    3  C   UNK N   1      -0.290  -0.540   0.122  0.00  0.00     0.186 C 
HETATM    4  C   UNK N   1       1.048   1.592  -0.042  0.00  0.00     0.107 C 
HETATM    5  C   UNK N   1       0.909  -1.300  -0.533  0.00  0.00     0.211 C 
HETATM    6  O   UNK N   1      -0.175  -0.487   1.515  0.00  0.00    -0.390 OA
HETATM    7  O   UNK N   1       2.051  -0.495  -0.837  0.00  0.00    -0.364 OA
HETATM    8  H   UNK N   1      -0.103  -0.538   2.481  0.00  0.00     0.210 HD
ENDROOT
BRANCH   2   9
HETATM    9  O   UNK N   1      -1.396   1.611  -0.077  0.00  0.00    -0.392 OA
HETATM   10  H   UNK N   1      -1.346   2.544   0.184  0.00  0.00     0.210 HD
ENDBRANCH   2   9
BRANCH   5  11
HETATM   11  S   UNK N   1       1.389  -2.779   0.417  0.00  0.00    -0.148 SA
HETATM   12  H   UNK N   1       0.612  -3.641   1.127  0.00  0.00     0.104 HD
ENDBRANCH   5  11
BRANCH   4  13
HETATM   13  S   UNK N   1       0.879   2.481   1.553  0.00  0.00    -0.172 SA
HETATM   14  H   UNK N   1       1.387   2.920   2.736  0.00  0.00     0.102 HD
ENDBRANCH   4  13
BRANCH   1  15
HETATM   15  C   UNK N   1       3.577   1.207  -0.146  0.00  0.00     0.197 C 
BRANCH  15  16
HETATM   16  O   UNK N   1       3.875   2.133   0.855  0.00  0.00    -0.398 OA
HETATM   17  H   UNK N   1       4.536   2.275   1.551  0.00  0.00     0.209 HD
ENDBRANCH  15  16
ENDBRANCH   1  15
TORSDOF 5
