MODEL 1
REMARK VINA RESULT:      -8.3      0.000      0.000
REMARK  15 active torsions:
REMARK  status: ('A' for Active; 'I' for Inactive)
REMARK    1  A    between atoms: C_23  and  C_18 
REMARK    2  A    between atoms: C_28  and  C_18 
REMARK    3  A    between atoms: C_22  and  C_19 
REMARK    4  A    between atoms: N_36  and  C_19 
REMARK    5  A    between atoms: C_26  and  C_20 
REMARK    6  A    between atoms: O_38  and  C_21 
REMARK    7  A    between atoms: C_25  and  C_24 
REMARK    8  A    between atoms: C_27  and  N_34 
REMARK    9  A    between atoms: C_30  and  C_28 
REMARK   10  A    between atoms: C_28  and  N_32 
REMARK   11  A    between atoms: O_44  and  C_29 
REMARK   12  A    between atoms: C_30  and  O_39 
REMARK   13  A    between atoms: P_45  and  O_41 
REMARK   14  A    between atoms: P_45  and  O_42 
REMARK   15  A    between atoms: P_45  and  O_44 
ROOT
HETATM    1  C   UNK N   1      29.265  27.981  -4.882  0.00  0.00     0.135 C 
HETATM    2  N   UNK N   1      28.017  27.663  -4.951  0.00  0.00    -0.359 N 
ATOM      3  HN  UNK N   1      27.527  27.843  -5.828  1.00  0.00     0.162 HD
ENDROOT
BRANCH   1   4
HETATM    4  C   UNK N   1      30.074  27.888  -3.602  0.00  0.00     0.162 C 
BRANCH   4   5
HETATM    5  C   UNK N   1      31.467  27.376  -4.044  0.00  0.00     0.072 C 
BRANCH   5   6
HETATM    6  C   UNK N   1      31.639  25.912  -4.273  0.00  0.00    -0.055 A 
HETATM    7  C   UNK N   1      32.563  25.409  -5.189  0.00  0.00     0.010 A 
HETATM    8  C   UNK N   1      32.768  24.024  -5.271  0.00  0.00     0.039 A 
HETATM    9  C   UNK N   1      32.051  23.130  -4.450  0.00  0.00     0.094 A 
HETATM   10  C   UNK N   1      31.103  23.670  -3.531  0.00  0.00     0.036 A 
HETATM   11  C   UNK N   1      30.952  25.040  -3.454  0.00  0.00     0.024 A 
BRANCH   9  12
HETATM   12  O   UNK N   1      32.320  21.803  -4.598  0.00  0.00    -0.254 OA
BRANCH  12  13
HETATM   13  P   UNK N   1      33.313  20.791  -3.614  0.00  0.00     0.396 P 
HETATM   14  O   UNK N   1      34.792  21.190  -3.872  0.00  0.00    -0.631 OA
BRANCH  13  15
HETATM   15  O   UNK N   1      33.003  21.068  -1.932  0.00  0.00    -0.307 OA
HETATM   16  H   UNK N   1      32.123  21.337  -1.625  0.00  0.00     0.222 HD
ENDBRANCH  13  15
BRANCH  13  17
HETATM   17  O   UNK N   1      33.124  19.108  -4.005  0.00  0.00    -0.307 OA
HETATM   18  H   UNK N   1      32.704  18.236  -4.063  0.00  0.00     0.222 HD
ENDBRANCH  13  17
ENDBRANCH  12  13
ENDBRANCH   9  12
BRANCH  10  19
HETATM   19  C   UNK N   1      30.243  22.879  -2.641  0.00  0.00     0.272 C 
HETATM   20  O   UNK N   1      30.421  22.870  -1.432  0.00  0.00    -0.301 OA
ENDBRANCH  10  19
ENDBRANCH   5   6
ENDBRANCH   4   5
BRANCH   4  21
HETATM   21  N   UNK N   1      30.118  29.202  -2.974  0.00  0.00    -0.362 N 
HETATM   22  C   UNK N   1      30.787  29.495  -1.910  0.00  0.00     0.107 C 
HETATM   23  C   UNK N   1      30.730  30.885  -1.375  0.00  0.00     0.097 C 
ATOM     24  HN  UNK N   1      29.578  29.949  -3.409  1.00  0.00     0.162 HD
BRANCH  22  25
HETATM   25  O   UNK N   1      31.514  28.563  -1.262  0.00  0.00    -0.350 OA
HETATM   26  H   UNK N   1      32.183  28.081  -1.705  0.00  0.00     0.219 HD
ENDBRANCH  22  25
ENDBRANCH   4  21
ENDBRANCH   1   4
BRANCH   1  27
HETATM   27  O   UNK N   1      29.888  28.400  -6.002  0.00  0.00    -0.348 OA
HETATM   28  H   UNK N   1      29.956  28.460  -6.935  0.00  0.00     0.219 HD
ENDBRANCH   1  27
BRANCH   2  29
HETATM   29  C   UNK N   1      27.261  27.068  -3.867  0.00  0.00     0.175 C 
HETATM   30  C   UNK N   1      25.940  27.813  -3.661  0.00  0.00     0.035 C 
HETATM   31  C   UNK N   1      25.162  28.085  -4.942  0.00  0.00     0.004 C 
HETATM   32  C   UNK N   1      24.633  26.810  -5.570  0.00  0.00     0.020 C 
HETATM   33  C   UNK N   1      25.765  25.997  -6.190  0.00  0.00     0.126 C 
HETATM   34  N   UNK N   1      26.372  25.105  -5.212  0.00  0.00    -0.346 N 
HETATM   35  C   UNK N   1      27.051  25.586  -4.126  0.00  0.00     0.242 C 
HETATM   36  O   UNK N   1      27.506  24.787  -3.309  0.00  0.00    -0.271 OA
BRANCH  34  37
HETATM   37  C   UNK N   1      26.117  23.677  -5.311  0.00  0.00     0.164 C 
BRANCH  37  38
HETATM   38  C   UNK N   1      26.968  23.167  -6.421  0.00  0.00    -0.040 A 
HETATM   39  C   UNK N   1      28.351  23.118  -6.210  0.00  0.00     0.009 A 
HETATM   40  C   UNK N   1      29.142  22.302  -6.996  0.00  0.00     0.013 A 
HETATM   41  C   UNK N   1      28.569  21.555  -8.028  0.00  0.00    -0.026 A 
HETATM   42  C   UNK N   1      27.205  21.715  -8.330  0.00  0.00     0.013 A 
HETATM   43  C   UNK N   1      26.399  22.508  -7.511  0.00  0.00     0.009 A 
BRANCH  41  44
HETATM   44  C   UNK N   1      29.297  20.392  -8.561  0.00  0.00    -0.026 A 
HETATM   45  C   UNK N   1      29.547  20.276  -9.934  0.00  0.00     0.012 A 
HETATM   46  C   UNK N   1      30.023  19.075 -10.463  0.00  0.00     0.001 A 
HETATM   47  C   UNK N   1      30.216  17.971  -9.630  0.00  0.00     0.000 A 
HETATM   48  C   UNK N   1      29.969  18.075  -8.259  0.00  0.00     0.001 A 
HETATM   49  C   UNK N   1      29.513  19.280  -7.727  0.00  0.00     0.012 A 
ENDBRANCH  41  44
ENDBRANCH  37  38
ENDBRANCH  34  37
ENDBRANCH   2  29
TORSDOF 15
ENDMDL
MODEL 2
REMARK VINA RESULT:      -8.1     11.703     14.392
REMARK  15 active torsions:
REMARK  status: ('A' for Active; 'I' for Inactive)
REMARK    1  A    between atoms: C_23  and  C_18 
REMARK    2  A    between atoms: C_28  and  C_18 
REMARK    3  A    between atoms: C_22  and  C_19 
REMARK    4  A    between atoms: N_36  and  C_19 
REMARK    5  A    between atoms: C_26  and  C_20 
REMARK    6  A    between atoms: O_38  and  C_21 
REMARK    7  A    between atoms: C_25  and  C_24 
REMARK    8  A    between atoms: C_27  and  N_34 
REMARK    9  A    between atoms: C_30  and  C_28 
REMARK   10  A    between atoms: C_28  and  N_32 
REMARK   11  A    between atoms: O_44  and  C_29 
REMARK   12  A    between atoms: C_30  and  O_39 
REMARK   13  A    between atoms: P_45  and  O_41 
REMARK   14  A    between atoms: P_45  and  O_42 
REMARK   15  A    between atoms: P_45  and  O_44 
ROOT
HETATM    1  C   UNK N   1      28.381  17.462   7.565  0.00  0.00     0.135 C 
HETATM    2  N   UNK N   1      29.624  17.246   7.834  0.00  0.00    -0.359 N 
ATOM      3  HN  UNK N   1      29.843  16.675   8.650  1.00  0.00     0.162 HD
ENDROOT
BRANCH   1   4
HETATM    4  C   UNK N   1      27.922  18.398   6.463  0.00  0.00     0.162 C 
BRANCH   4   5
HETATM    5  C   UNK N   1      27.176  17.494   5.453  0.00  0.00     0.072 C 
BRANCH   5   6
HETATM    6  C   UNK N   1      25.879  17.981   4.897  0.00  0.00    -0.055 A 
HETATM    7  C   UNK N   1      25.805  18.675   3.689  0.00  0.00     0.010 A 
HETATM    8  C   UNK N   1      24.549  18.998   3.156  0.00  0.00     0.039 A 
HETATM    9  C   UNK N   1      23.360  18.641   3.822  0.00  0.00     0.094 A 
HETATM   10  C   UNK N   1      23.464  17.942   5.062  0.00  0.00     0.036 A 
HETATM   11  C   UNK N   1      24.715  17.611   5.539  0.00  0.00     0.024 A 
BRANCH   9  12
HETATM   12  O   UNK N   1      22.187  18.994   3.226  0.00  0.00    -0.254 OA
BRANCH  12  13
HETATM   13  P   UNK N   1      21.686  20.552   2.677  0.00  0.00     0.396 P 
HETATM   14  O   UNK N   1      22.860  21.537   2.925  0.00  0.00    -0.631 OA
BRANCH  13  15
HETATM   15  O   UNK N   1      21.390  20.541   0.970  0.00  0.00    -0.307 OA
HETATM   16  H   UNK N   1      20.551  20.868   0.608  0.00  0.00     0.222 HD
ENDBRANCH  13  15
BRANCH  13  17
HETATM   17  O   UNK N   1      20.293  21.133   3.538  0.00  0.00    -0.307 OA
HETATM   18  H   UNK N   1      19.366  21.199   3.819  0.00  0.00     0.222 HD
ENDBRANCH  13  17
ENDBRANCH  12  13
ENDBRANCH   9  12
BRANCH  10  19
HETATM   19  C   UNK N   1      22.329  17.540   5.903  0.00  0.00     0.272 C 
HETATM   20  O   UNK N   1      21.726  18.356   6.585  0.00  0.00    -0.301 OA
ENDBRANCH  10  19
ENDBRANCH   5   6
ENDBRANCH   4   5
BRANCH   4  21
HETATM   21  N   UNK N   1      27.074  19.432   7.043  0.00  0.00    -0.362 N 
HETATM   22  C   UNK N   1      27.025  20.660   6.651  0.00  0.00     0.107 C 
HETATM   23  C   UNK N   1      26.113  21.610   7.349  0.00  0.00     0.097 C 
ATOM     24  HN  UNK N   1      26.472  19.163   7.821  1.00  0.00     0.162 HD
BRANCH  22  25
HETATM   25  O   UNK N   1      27.801  21.103   5.642  0.00  0.00    -0.350 OA
HETATM   26  H   UNK N   1      27.431  21.573   4.922  0.00  0.00     0.219 HD
ENDBRANCH  22  25
ENDBRANCH   4  21
ENDBRANCH   1   4
BRANCH   1  27
HETATM   27  O   UNK N   1      27.443  16.813   8.284  0.00  0.00    -0.348 OA
HETATM   28  H   UNK N   1      27.002  16.029   8.548  0.00  0.00     0.219 HD
ENDBRANCH   1  27
BRANCH   2  29
HETATM   29  C   UNK N   1      30.733  17.764   7.056  0.00  0.00     0.175 C 
HETATM   30  C   UNK N   1      32.041  17.651   7.844  0.00  0.00     0.035 C 
HETATM   31  C   UNK N   1      32.266  16.297   8.504  0.00  0.00     0.004 C 
HETATM   32  C   UNK N   1      32.496  15.198   7.485  0.00  0.00     0.020 C 
HETATM   33  C   UNK N   1      31.201  14.853   6.754  0.00  0.00     0.126 C 
HETATM   34  N   UNK N   1      31.009  15.708   5.591  0.00  0.00    -0.346 N 
HETATM   35  C   UNK N   1      30.808  17.055   5.715  0.00  0.00     0.242 C 
HETATM   36  O   UNK N   1      30.694  17.734   4.696  0.00  0.00    -0.271 OA
BRANCH  34  37
HETATM   37  C   UNK N   1      31.187  15.139   4.264  0.00  0.00     0.164 C 
BRANCH  37  38
HETATM   38  C   UNK N   1      29.841  14.704   3.801  0.00  0.00    -0.040 A 
HETATM   39  C   UNK N   1      29.135  13.804   4.606  0.00  0.00     0.009 A 
HETATM   40  C   UNK N   1      27.766  13.679   4.469  0.00  0.00     0.013 A 
HETATM   41  C   UNK N   1      27.089  14.422   3.498  0.00  0.00    -0.026 A 
HETATM   42  C   UNK N   1      27.818  15.217   2.596  0.00  0.00     0.013 A 
HETATM   43  C   UNK N   1      29.195  15.374   2.761  0.00  0.00     0.009 A 
BRANCH  41  44
HETATM   44  C   UNK N   1      25.637  14.624   3.634  0.00  0.00    -0.026 A 
HETATM   45  C   UNK N   1      24.937  14.060   4.708  0.00  0.00     0.012 A 
HETATM   46  C   UNK N   1      23.541  14.052   4.709  0.00  0.00     0.001 A 
HETATM   47  C   UNK N   1      22.836  14.573   3.621  0.00  0.00     0.000 A 
HETATM   48  C   UNK N   1      23.525  15.136   2.544  0.00  0.00     0.001 A 
HETATM   49  C   UNK N   1      24.919  15.163   2.552  0.00  0.00     0.012 A 
ENDBRANCH  41  44
ENDBRANCH  37  38
ENDBRANCH  34  37
ENDBRANCH   2  29
TORSDOF 15
ENDMDL
MODEL 3
REMARK VINA RESULT:      -7.9     17.518     21.194
REMARK  15 active torsions:
REMARK  status: ('A' for Active; 'I' for Inactive)
REMARK    1  A    between atoms: C_23  and  C_18 
REMARK    2  A    between atoms: C_28  and  C_18 
REMARK    3  A    between atoms: C_22  and  C_19 
REMARK    4  A    between atoms: N_36  and  C_19 
REMARK    5  A    between atoms: C_26  and  C_20 
REMARK    6  A    between atoms: O_38  and  C_21 
REMARK    7  A    between atoms: C_25  and  C_24 
REMARK    8  A    between atoms: C_27  and  N_34 
REMARK    9  A    between atoms: C_30  and  C_28 
REMARK   10  A    between atoms: C_28  and  N_32 
REMARK   11  A    between atoms: O_44  and  C_29 
REMARK   12  A    between atoms: C_30  and  O_39 
REMARK   13  A    between atoms: P_45  and  O_41 
REMARK   14  A    between atoms: P_45  and  O_42 
REMARK   15  A    between atoms: P_45  and  O_44 
ROOT
HETATM    1  C   UNK N   1      33.594  14.502  10.074  0.00  0.00     0.135 C 
HETATM    2  N   UNK N   1      34.250  13.460  10.461  0.00  0.00    -0.359 N 
ATOM      3  HN  UNK N   1      34.195  13.201  11.445  1.00  0.00     0.162 HD
ENDROOT
BRANCH   1   4
HETATM    4  C   UNK N   1      33.694  15.071   8.672  0.00  0.00     0.162 C 
BRANCH   4   5
HETATM    5  C   UNK N   1      32.353  14.703   7.992  0.00  0.00     0.072 C 
BRANCH   5   6
HETATM    6  C   UNK N   1      31.426  15.811   7.618  0.00  0.00    -0.055 A 
HETATM    7  C   UNK N   1      31.268  16.229   6.296  0.00  0.00     0.010 A 
HETATM    8  C   UNK N   1      30.292  17.189   5.990  0.00  0.00     0.039 A 
HETATM    9  C   UNK N   1      29.474  17.745   6.994  0.00  0.00     0.094 A 
HETATM   10  C   UNK N   1      29.665  17.308   8.339  0.00  0.00     0.036 A 
HETATM   11  C   UNK N   1      30.611  16.338   8.598  0.00  0.00     0.024 A 
BRANCH   9  12
HETATM   12  O   UNK N   1      28.552  18.667   6.600  0.00  0.00    -0.254 OA
BRANCH  12  13
HETATM   13  P   UNK N   1      27.341  18.523   5.380  0.00  0.00     0.396 P 
HETATM   14  O   UNK N   1      26.891  17.037   5.336  0.00  0.00    -0.631 OA
BRANCH  13  15
HETATM   15  O   UNK N   1      25.940  19.461   5.783  0.00  0.00    -0.307 OA
HETATM   16  H   UNK N   1      25.194  19.531   5.168  0.00  0.00     0.222 HD
ENDBRANCH  13  15
BRANCH  13  17
HETATM   17  O   UNK N   1      27.940  18.960   3.808  0.00  0.00    -0.307 OA
HETATM   18  H   UNK N   1      28.295  18.845   2.912  0.00  0.00     0.222 HD
ENDBRANCH  13  17
ENDBRANCH  12  13
ENDBRANCH   9  12
BRANCH  10  19
HETATM   19  C   UNK N   1      28.932  17.819   9.505  0.00  0.00     0.272 C 
HETATM   20  O   UNK N   1      27.710  17.856   9.518  0.00  0.00    -0.301 OA
ENDBRANCH  10  19
ENDBRANCH   5   6
ENDBRANCH   4   5
BRANCH   4  21
HETATM   21  N   UNK N   1      33.917  16.508   8.759  0.00  0.00    -0.362 N 
HETATM   22  C   UNK N   1      34.456  17.234   7.838  0.00  0.00     0.107 C 
HETATM   23  C   UNK N   1      34.629  18.696   8.073  0.00  0.00     0.097 C 
ATOM     24  HN  UNK N   1      33.624  16.978   9.615  1.00  0.00     0.162 HD
BRANCH  22  25
HETATM   25  O   UNK N   1      34.889  16.691   6.683  0.00  0.00    -0.350 OA
HETATM   26  H   UNK N   1      35.474  15.960   6.684  0.00  0.00     0.219 HD
ENDBRANCH  22  25
ENDBRANCH   4  21
ENDBRANCH   1   4
BRANCH   1  27
HETATM   27  O   UNK N   1      32.768  15.107  10.952  0.00  0.00    -0.348 OA
HETATM   28  H   UNK N   1      32.607  15.699  11.660  0.00  0.00     0.219 HD
ENDBRANCH   1  27
BRANCH   2  29
HETATM   29  C   UNK N   1      35.062  12.633   9.590  0.00  0.00     0.175 C 
HETATM   30  C   UNK N   1      36.353  13.361   9.208  0.00  0.00     0.035 C 
HETATM   31  C   UNK N   1      37.082  14.010  10.378  0.00  0.00     0.004 C 
HETATM   32  C   UNK N   1      37.651  12.982  11.336  0.00  0.00     0.020 C 
HETATM   33  C   UNK N   1      36.540  12.310  12.138  0.00  0.00     0.126 C 
HETATM   34  N   UNK N   1      36.002  11.157  11.431  0.00  0.00    -0.346 N 
HETATM   35  C   UNK N   1      35.332  11.290  10.245  0.00  0.00     0.242 C 
HETATM   36  O   UNK N   1      34.936  10.277   9.671  0.00  0.00    -0.271 OA
BRANCH  34  37
HETATM   37  C   UNK N   1      36.318   9.824  11.918  0.00  0.00     0.164 C 
BRANCH  37  38
HETATM   38  C   UNK N   1      35.901   9.781  13.347  0.00  0.00    -0.040 A 
HETATM   39  C   UNK N   1      36.908   9.723  14.316  0.00  0.00     0.009 A 
HETATM   40  C   UNK N   1      36.635  10.088  15.621  0.00  0.00     0.013 A 
HETATM   41  C   UNK N   1      35.343  10.477  15.982  0.00  0.00    -0.026 A 
HETATM   42  C   UNK N   1      34.302  10.397  15.040  0.00  0.00     0.013 A 
HETATM   43  C   UNK N   1      34.586  10.067  13.714  0.00  0.00     0.009 A 
BRANCH  41  44
HETATM   44  C   UNK N   1      35.149  11.262  17.212  0.00  0.00    -0.026 A 
HETATM   45  C   UNK N   1      35.091  12.661  17.163  0.00  0.00     0.012 A 
HETATM   46  C   UNK N   1      35.144  13.409  18.340  0.00  0.00     0.001 A 
HETATM   47  C   UNK N   1      35.293  12.765  19.572  0.00  0.00     0.000 A 
HETATM   48  C   UNK N   1      35.353  11.371  19.632  0.00  0.00     0.001 A 
HETATM   49  C   UNK N   1      35.280  10.623  18.458  0.00  0.00     0.012 A 
ENDBRANCH  41  44
ENDBRANCH  37  38
ENDBRANCH  34  37
ENDBRANCH   2  29
TORSDOF 15
ENDMDL
MODEL 4
REMARK VINA RESULT:      -7.8     16.490     20.407
REMARK  15 active torsions:
REMARK  status: ('A' for Active; 'I' for Inactive)
REMARK    1  A    between atoms: C_23  and  C_18 
REMARK    2  A    between atoms: C_28  and  C_18 
REMARK    3  A    between atoms: C_22  and  C_19 
REMARK    4  A    between atoms: N_36  and  C_19 
REMARK    5  A    between atoms: C_26  and  C_20 
REMARK    6  A    between atoms: O_38  and  C_21 
REMARK    7  A    between atoms: C_25  and  C_24 
REMARK    8  A    between atoms: C_27  and  N_34 
REMARK    9  A    between atoms: C_30  and  C_28 
REMARK   10  A    between atoms: C_28  and  N_32 
REMARK   11  A    between atoms: O_44  and  C_29 
REMARK   12  A    between atoms: C_30  and  O_39 
REMARK   13  A    between atoms: P_45  and  O_41 
REMARK   14  A    between atoms: P_45  and  O_42 
REMARK   15  A    between atoms: P_45  and  O_44 
ROOT
HETATM    1  C   UNK N   1      35.060  14.852   6.792  0.00  0.00     0.135 C 
HETATM    2  N   UNK N   1      35.479  14.169   7.804  0.00  0.00    -0.359 N 
ATOM      3  HN  UNK N   1      36.485  14.050   7.915  1.00  0.00     0.162 HD
ENDROOT
BRANCH   1   4
HETATM    4  C   UNK N   1      33.592  14.994   6.439  0.00  0.00     0.162 C 
BRANCH   4   5
HETATM    5  C   UNK N   1      33.318  16.518   6.466  0.00  0.00     0.072 C 
BRANCH   5   6
HETATM    6  C   UNK N   1      31.900  16.979   6.394  0.00  0.00    -0.055 A 
HETATM    7  C   UNK N   1      31.256  17.205   5.177  0.00  0.00     0.010 A 
HETATM    8  C   UNK N   1      29.889  17.517   5.169  0.00  0.00     0.039 A 
HETATM    9  C   UNK N   1      29.156  17.614   6.368  0.00  0.00     0.094 A 
HETATM   10  C   UNK N   1      29.841  17.390   7.599  0.00  0.00     0.036 A 
HETATM   11  C   UNK N   1      31.179  17.052   7.567  0.00  0.00     0.024 A 
BRANCH   9  12
HETATM   12  O   UNK N   1      27.832  17.918   6.260  0.00  0.00    -0.254 OA
BRANCH  12  13
HETATM   13  P   UNK N   1      27.080  19.471   6.285  0.00  0.00     0.396 P 
HETATM   14  O   UNK N   1      27.962  20.434   5.445  0.00  0.00    -0.631 OA
BRANCH  13  15
HETATM   15  O   UNK N   1      25.525  19.418   5.522  0.00  0.00    -0.307 OA
HETATM   16  H   UNK N   1      24.805  18.885   5.895  0.00  0.00     0.222 HD
ENDBRANCH  13  15
BRANCH  13  17
HETATM   17  O   UNK N   1      26.952  20.111   7.896  0.00  0.00    -0.307 OA
HETATM   18  H   UNK N   1      27.192  20.291   8.818  0.00  0.00     0.222 HD
ENDBRANCH  13  17
ENDBRANCH  12  13
ENDBRANCH   9  12
BRANCH  10  19
HETATM   19  C   UNK N   1      29.239  17.499   8.934  0.00  0.00     0.272 C 
HETATM   20  O   UNK N   1      29.023  18.589   9.445  0.00  0.00    -0.301 OA
ENDBRANCH  10  19
ENDBRANCH   5   6
ENDBRANCH   4   5
BRANCH   4  21
HETATM   21  N   UNK N   1      33.359  14.393   5.132  0.00  0.00    -0.362 N 
HETATM   22  C   UNK N   1      33.222  13.130   4.909  0.00  0.00     0.107 C 
HETATM   23  C   UNK N   1      32.997  12.658   3.513  0.00  0.00     0.097 C 
ATOM     24  HN  UNK N   1      33.300  15.020   4.330  1.00  0.00     0.162 HD
BRANCH  22  25
HETATM   25  O   UNK N   1      33.303  12.230   5.909  0.00  0.00    -0.350 OA
HETATM   26  H   UNK N   1      34.025  12.238   6.506  0.00  0.00     0.219 HD
ENDBRANCH  22  25
ENDBRANCH   4  21
ENDBRANCH   1   4
BRANCH   1  27
HETATM   27  O   UNK N   1      35.967  15.484   6.021  0.00  0.00    -0.348 OA
HETATM   28  H   UNK N   1      36.208  16.153   5.410  0.00  0.00     0.219 HD
ENDBRANCH   1  27
BRANCH   2  29
HETATM   29  C   UNK N   1      34.614  13.558   8.794  0.00  0.00     0.175 C 
HETATM   30  C   UNK N   1      35.020  12.102   9.035  0.00  0.00     0.035 C 
HETATM   31  C   UNK N   1      36.515  11.887   9.235  0.00  0.00     0.004 C 
HETATM   32  C   UNK N   1      37.011  12.501  10.530  0.00  0.00     0.020 C 
HETATM   33  C   UNK N   1      37.037  14.024  10.437  0.00  0.00     0.126 C 
HETATM   34  N   UNK N   1      35.752  14.596  10.814  0.00  0.00    -0.346 N 
HETATM   35  C   UNK N   1      34.623  14.376  10.074  0.00  0.00     0.242 C 
HETATM   36  O   UNK N   1      33.557  14.850  10.463  0.00  0.00    -0.271 OA
BRANCH  34  37
HETATM   37  C   UNK N   1      35.639  15.290  12.088  0.00  0.00     0.164 C 
BRANCH  37  38
HETATM   38  C   UNK N   1      35.837  14.266  13.150  0.00  0.00    -0.040 A 
HETATM   39  C   UNK N   1      36.760  14.550  14.163  0.00  0.00     0.009 A 
HETATM   40  C   UNK N   1      36.702  13.869  15.364  0.00  0.00     0.013 A 
HETATM   41  C   UNK N   1      35.747  12.868  15.554  0.00  0.00    -0.026 A 
HETATM   42  C   UNK N   1      34.916  12.485  14.486  0.00  0.00     0.013 A 
HETATM   43  C   UNK N   1      34.948  13.200  13.288  0.00  0.00     0.009 A 
BRANCH  41  44
HETATM   44  C   UNK N   1      35.399  12.461  16.925  0.00  0.00    -0.026 A 
HETATM   45  C   UNK N   1      35.233  13.420  17.932  0.00  0.00     0.012 A 
HETATM   46  C   UNK N   1      35.137  13.027  19.268  0.00  0.00     0.001 A 
HETATM   47  C   UNK N   1      35.246  11.676  19.611  0.00  0.00     0.000 A 
HETATM   48  C   UNK N   1      35.414  10.712  18.614  0.00  0.00     0.001 A 
HETATM   49  C   UNK N   1      35.488  11.102  17.278  0.00  0.00     0.012 A 
ENDBRANCH  41  44
ENDBRANCH  37  38
ENDBRANCH  34  37
ENDBRANCH   2  29
TORSDOF 15
ENDMDL
MODEL 5
REMARK VINA RESULT:      -7.6     13.219     15.603
REMARK  15 active torsions:
REMARK  status: ('A' for Active; 'I' for Inactive)
REMARK    1  A    between atoms: C_23  and  C_18 
REMARK    2  A    between atoms: C_28  and  C_18 
REMARK    3  A    between atoms: C_22  and  C_19 
REMARK    4  A    between atoms: N_36  and  C_19 
REMARK    5  A    between atoms: C_26  and  C_20 
REMARK    6  A    between atoms: O_38  and  C_21 
REMARK    7  A    between atoms: C_25  and  C_24 
REMARK    8  A    between atoms: C_27  and  N_34 
REMARK    9  A    between atoms: C_30  and  C_28 
REMARK   10  A    between atoms: C_28  and  N_32 
REMARK   11  A    between atoms: O_44  and  C_29 
REMARK   12  A    between atoms: C_30  and  O_39 
REMARK   13  A    between atoms: P_45  and  O_41 
REMARK   14  A    between atoms: P_45  and  O_42 
REMARK   15  A    between atoms: P_45  and  O_44 
ROOT
HETATM    1  C   UNK N   1      24.195  16.496   4.060  0.00  0.00     0.135 C 
HETATM    2  N   UNK N   1      23.090  17.022   3.651  0.00  0.00    -0.359 N 
ATOM      3  HN  UNK N   1      22.580  16.543   2.909  1.00  0.00     0.162 HD
ENDROOT
BRANCH   1   4
HETATM    4  C   UNK N   1      25.114  17.172   5.061  0.00  0.00     0.162 C 
BRANCH   4   5
HETATM    5  C   UNK N   1      25.881  16.015   5.746  0.00  0.00     0.072 C 
BRANCH   5   6
HETATM    6  C   UNK N   1      27.348  16.176   5.964  0.00  0.00    -0.055 A 
HETATM    7  C   UNK N   1      28.289  15.678   5.062  0.00  0.00     0.010 A 
HETATM    8  C   UNK N   1      29.648  15.967   5.254  0.00  0.00     0.039 A 
HETATM    9  C   UNK N   1      30.081  16.744   6.347  0.00  0.00     0.094 A 
HETATM   10  C   UNK N   1      29.099  17.231   7.261  0.00  0.00     0.036 A 
HETATM   11  C   UNK N   1      27.769  16.956   7.021  0.00  0.00     0.024 A 
BRANCH   9  12
HETATM   12  O   UNK N   1      31.420  16.976   6.449  0.00  0.00    -0.254 OA
BRANCH  12  13
HETATM   13  P   UNK N   1      32.586  17.120   5.185  0.00  0.00     0.396 P 
HETATM   14  O   UNK N   1      33.824  17.853   5.770  0.00  0.00    -0.631 OA
BRANCH  13  15
HETATM   15  O   UNK N   1      33.126  15.560   4.660  0.00  0.00    -0.307 OA
HETATM   16  H   UNK N   1      33.162  15.338   3.716  0.00  0.00     0.222 HD
ENDBRANCH  13  15
BRANCH  13  17
HETATM   17  O   UNK N   1      31.985  18.047   3.843  0.00  0.00    -0.307 OA
HETATM   18  H   UNK N   1      31.948  18.425   2.951  0.00  0.00     0.222 HD
ENDBRANCH  13  17
ENDBRANCH  12  13
ENDBRANCH   9  12
BRANCH  10  19
HETATM   19  C   UNK N   1      29.385  18.013   8.471  0.00  0.00     0.272 C 
HETATM   20  O   UNK N   1      28.484  18.513   9.129  0.00  0.00    -0.301 OA
ENDBRANCH  10  19
ENDBRANCH   5   6
ENDBRANCH   4   5
BRANCH   4  21
HETATM   21  N   UNK N   1      25.986  18.098   4.352  0.00  0.00    -0.362 N 
HETATM   22  C   UNK N   1      26.216  19.319   4.701  0.00  0.00     0.107 C 
HETATM   23  C   UNK N   1      27.129  20.154   3.869  0.00  0.00     0.097 C 
ATOM     24  HN  UNK N   1      26.453  17.755   3.512  1.00  0.00     0.162 HD
BRANCH  22  25
HETATM   25  O   UNK N   1      25.626  19.858   5.786  0.00  0.00    -0.350 OA
HETATM   26  H   UNK N   1      25.641  19.416   6.611  0.00  0.00     0.219 HD
ENDBRANCH  22  25
ENDBRANCH   4  21
ENDBRANCH   1   4
BRANCH   1  27
HETATM   27  O   UNK N   1      24.544  15.282   3.591  0.00  0.00    -0.348 OA
HETATM   28  H   UNK N   1      24.696  14.364   3.708  0.00  0.00     0.219 HD
ENDBRANCH   1  27
BRANCH   2  29
HETATM   29  C   UNK N   1      22.524  18.251   4.173  0.00  0.00     0.175 C 
HETATM   30  C   UNK N   1      21.617  18.909   3.131  0.00  0.00     0.035 C 
HETATM   31  C   UNK N   1      20.636  17.959   2.455  0.00  0.00     0.004 C 
HETATM   32  C   UNK N   1      19.580  17.453   3.418  0.00  0.00     0.020 C 
HETATM   33  C   UNK N   1      20.176  16.456   4.407  0.00  0.00     0.126 C 
HETATM   34  N   UNK N   1      20.723  17.135   5.574  0.00  0.00    -0.346 N 
HETATM   35  C   UNK N   1      21.795  17.978   5.478  0.00  0.00     0.242 C 
HETATM   36  O   UNK N   1      22.188  18.557   6.489  0.00  0.00    -0.271 OA
BRANCH  34  37
HETATM   37  C   UNK N   1      20.016  17.032   6.841  0.00  0.00     0.164 C 
BRANCH  37  38
HETATM   38  C   UNK N   1      20.458  15.759   7.475  0.00  0.00    -0.040 A 
HETATM   39  C   UNK N   1      21.656  15.192   7.029  0.00  0.00     0.009 A 
HETATM   40  C   UNK N   1      22.325  14.275   7.817  0.00  0.00     0.013 A 
HETATM   41  C   UNK N   1      21.784  13.883   9.044  0.00  0.00    -0.026 A 
HETATM   42  C   UNK N   1      20.511  14.343   9.424  0.00  0.00     0.013 A 
HETATM   43  C   UNK N   1      19.856  15.300   8.647  0.00  0.00     0.009 A 
BRANCH  41  44
HETATM   44  C   UNK N   1      22.666  13.273  10.053  0.00  0.00    -0.026 A 
HETATM   45  C   UNK N   1      24.032  13.103   9.796  0.00  0.00     0.012 A 
HETATM   46  C   UNK N   1      24.815  12.320  10.645  0.00  0.00     0.001 A 
HETATM   47  C   UNK N   1      24.230  11.670  11.736  0.00  0.00     0.000 A 
HETATM   48  C   UNK N   1      22.868  11.832  12.000  0.00  0.00     0.001 A 
HETATM   49  C   UNK N   1      22.090  12.631  11.164  0.00  0.00     0.012 A 
ENDBRANCH  41  44
ENDBRANCH  37  38
ENDBRANCH  34  37
ENDBRANCH   2  29
TORSDOF 15
ENDMDL
MODEL 6
REMARK VINA RESULT:      -7.6      2.708      5.892
REMARK  15 active torsions:
REMARK  status: ('A' for Active; 'I' for Inactive)
REMARK    1  A    between atoms: C_23  and  C_18 
REMARK    2  A    between atoms: C_28  and  C_18 
REMARK    3  A    between atoms: C_22  and  C_19 
REMARK    4  A    between atoms: N_36  and  C_19 
REMARK    5  A    between atoms: C_26  and  C_20 
REMARK    6  A    between atoms: O_38  and  C_21 
REMARK    7  A    between atoms: C_25  and  C_24 
REMARK    8  A    between atoms: C_27  and  N_34 
REMARK    9  A    between atoms: C_30  and  C_28 
REMARK   10  A    between atoms: C_28  and  N_32 
REMARK   11  A    between atoms: O_44  and  C_29 
REMARK   12  A    between atoms: C_30  and  O_39 
REMARK   13  A    between atoms: P_45  and  O_41 
REMARK   14  A    between atoms: P_45  and  O_42 
REMARK   15  A    between atoms: P_45  and  O_44 
ROOT
HETATM    1  C   UNK N   1      26.513  24.697  -4.383  0.00  0.00     0.135 C 
HETATM    2  N   UNK N   1      26.364  25.977  -4.321  0.00  0.00    -0.359 N 
ATOM      3  HN  UNK N   1      26.059  26.379  -3.434  1.00  0.00     0.162 HD
ENDROOT
BRANCH   1   4
HETATM    4  C   UNK N   1      26.833  23.962  -5.671  0.00  0.00     0.162 C 
BRANCH   4   5
HETATM    5  C   UNK N   1      28.289  23.467  -5.499  0.00  0.00     0.072 C 
BRANCH   5   6
HETATM    6  C   UNK N   1      28.977  22.876  -6.684  0.00  0.00    -0.055 A 
HETATM    7  C   UNK N   1      29.862  23.615  -7.471  0.00  0.00     0.010 A 
HETATM    8  C   UNK N   1      30.572  22.973  -8.496  0.00  0.00     0.039 A 
HETATM    9  C   UNK N   1      30.402  21.598  -8.751  0.00  0.00     0.094 A 
HETATM   10  C   UNK N   1      29.481  20.869  -7.940  0.00  0.00     0.036 A 
HETATM   11  C   UNK N   1      28.826  21.525  -6.919  0.00  0.00     0.024 A 
BRANCH   9  12
HETATM   12  O   UNK N   1      31.137  21.061  -9.765  0.00  0.00    -0.254 OA
BRANCH  12  13
HETATM   13  P   UNK N   1      32.694  20.320  -9.688  0.00  0.00     0.396 P 
HETATM   14  O   UNK N   1      33.108  19.946 -11.138  0.00  0.00    -0.631 OA
BRANCH  13  15
HETATM   15  O   UNK N   1      33.882  21.434  -9.097  0.00  0.00    -0.307 OA
HETATM   16  H   UNK N   1      33.622  22.201  -8.562  0.00  0.00     0.222 HD
ENDBRANCH  13  15
BRANCH  13  17
HETATM   17  O   UNK N   1      32.682  18.870  -8.731  0.00  0.00    -0.307 OA
HETATM   18  H   UNK N   1      32.389  18.004  -8.405  0.00  0.00     0.222 HD
ENDBRANCH  13  17
ENDBRANCH  12  13
ENDBRANCH   9  12
BRANCH  10  19
HETATM   19  C   UNK N   1      29.153  19.447  -8.104  0.00  0.00     0.272 C 
HETATM   20  O   UNK N   1      29.950  18.573  -7.793  0.00  0.00    -0.301 OA
ENDBRANCH  10  19
ENDBRANCH   5   6
ENDBRANCH   4   5
BRANCH   4  21
HETATM   21  N   UNK N   1      25.875  22.878  -5.848  0.00  0.00    -0.362 N 
HETATM   22  C   UNK N   1      25.383  22.498  -6.978  0.00  0.00     0.107 C 
HETATM   23  C   UNK N   1      24.402  21.376  -7.004  0.00  0.00     0.097 C 
ATOM     24  HN  UNK N   1      25.570  22.380  -5.012  1.00  0.00     0.162 HD
BRANCH  22  25
HETATM   25  O   UNK N   1      25.718  23.114  -8.129  0.00  0.00    -0.350 OA
HETATM   26  H   UNK N   1      25.060  23.423  -8.719  0.00  0.00     0.219 HD
ENDBRANCH  22  25
ENDBRANCH   4  21
ENDBRANCH   1   4
BRANCH   1  27
HETATM   27  O   UNK N   1      26.395  23.978  -3.249  0.00  0.00    -0.348 OA
HETATM   28  H   UNK N   1      26.650  23.269  -2.691  0.00  0.00     0.219 HD
ENDBRANCH   1  27
BRANCH   2  29
HETATM   29  C   UNK N   1      26.599  26.885  -5.427  0.00  0.00     0.175 C 
HETATM   30  C   UNK N   1      25.800  28.177  -5.240  0.00  0.00     0.035 C 
HETATM   31  C   UNK N   1      25.901  28.786  -3.847  0.00  0.00     0.004 C 
HETATM   32  C   UNK N   1      27.293  29.311  -3.553  0.00  0.00     0.020 C 
HETATM   33  C   UNK N   1      28.275  28.162  -3.342  0.00  0.00     0.126 C 
HETATM   34  N   UNK N   1      28.852  27.722  -4.604  0.00  0.00    -0.346 N 
HETATM   35  C   UNK N   1      28.087  27.147  -5.582  0.00  0.00     0.242 C 
HETATM   36  O   UNK N   1      28.620  26.834  -6.645  0.00  0.00    -0.271 OA
BRANCH  34  37
HETATM   37  C   UNK N   1      30.241  28.043  -4.891  0.00  0.00     0.164 C 
BRANCH  37  38
HETATM   38  C   UNK N   1      31.035  26.823  -4.580  0.00  0.00    -0.040 A 
HETATM   39  C   UNK N   1      30.639  26.051  -3.482  0.00  0.00     0.009 A 
HETATM   40  C   UNK N   1      31.044  24.735  -3.378  0.00  0.00     0.013 A 
HETATM   41  C   UNK N   1      31.884  24.183  -4.349  0.00  0.00    -0.026 A 
HETATM   42  C   UNK N   1      32.397  24.999  -5.373  0.00  0.00     0.013 A 
HETATM   43  C   UNK N   1      31.954  26.317  -5.500  0.00  0.00     0.009 A 
BRANCH  41  44
HETATM   44  C   UNK N   1      31.958  22.719  -4.484  0.00  0.00    -0.026 A 
HETATM   45  C   UNK N   1      32.674  22.136  -5.537  0.00  0.00     0.012 A 
HETATM   46  C   UNK N   1      32.551  20.771  -5.799  0.00  0.00     0.001 A 
HETATM   47  C   UNK N   1      31.683  19.986  -5.036  0.00  0.00     0.000 A 
HETATM   48  C   UNK N   1      30.963  20.558  -3.984  0.00  0.00     0.001 A 
HETATM   49  C   UNK N   1      31.102  21.917  -3.708  0.00  0.00     0.012 A 
ENDBRANCH  41  44
ENDBRANCH  37  38
ENDBRANCH  34  37
ENDBRANCH   2  29
TORSDOF 15
ENDMDL
MODEL 7
REMARK VINA RESULT:      -7.6     17.097     20.901
REMARK  15 active torsions:
REMARK  status: ('A' for Active; 'I' for Inactive)
REMARK    1  A    between atoms: C_23  and  C_18 
REMARK    2  A    between atoms: C_28  and  C_18 
REMARK    3  A    between atoms: C_22  and  C_19 
REMARK    4  A    between atoms: N_36  and  C_19 
REMARK    5  A    between atoms: C_26  and  C_20 
REMARK    6  A    between atoms: O_38  and  C_21 
REMARK    7  A    between atoms: C_25  and  C_24 
REMARK    8  A    between atoms: C_27  and  N_34 
REMARK    9  A    between atoms: C_30  and  C_28 
REMARK   10  A    between atoms: C_28  and  N_32 
REMARK   11  A    between atoms: O_44  and  C_29 
REMARK   12  A    between atoms: C_30  and  O_39 
REMARK   13  A    between atoms: P_45  and  O_41 
REMARK   14  A    between atoms: P_45  and  O_42 
REMARK   15  A    between atoms: P_45  and  O_44 
ROOT
HETATM    1  C   UNK N   1      34.887  16.288   9.462  0.00  0.00     0.135 C 
HETATM    2  N   UNK N   1      35.742  15.350   9.693  0.00  0.00    -0.359 N 
ATOM      3  HN  UNK N   1      36.472  15.530  10.383  1.00  0.00     0.162 HD
ENDROOT
BRANCH   1   4
HETATM    4  C   UNK N   1      33.835  16.201   8.373  0.00  0.00     0.162 C 
BRANCH   4   5
HETATM    5  C   UNK N   1      33.064  17.541   8.450  0.00  0.00     0.072 C 
BRANCH   5   6
HETATM    6  C   UNK N   1      31.632  17.553   8.031  0.00  0.00    -0.055 A 
HETATM    7  C   UNK N   1      30.640  18.160   8.803  0.00  0.00     0.010 A 
HETATM    8  C   UNK N   1      29.334  18.250   8.300  0.00  0.00     0.039 A 
HETATM    9  C   UNK N   1      29.003  17.731   7.033  0.00  0.00     0.094 A 
HETATM   10  C   UNK N   1      30.034  17.105   6.269  0.00  0.00     0.036 A 
HETATM   11  C   UNK N   1      31.314  17.065   6.781  0.00  0.00     0.024 A 
BRANCH   9  12
HETATM   12  O   UNK N   1      27.710  17.868   6.626  0.00  0.00    -0.254 OA
BRANCH  12  13
HETATM   13  P   UNK N   1      27.028  19.078   5.602  0.00  0.00     0.396 P 
HETATM   14  O   UNK N   1      25.795  18.453   4.894  0.00  0.00    -0.631 OA
BRANCH  13  15
HETATM   15  O   UNK N   1      26.447  20.420   6.531  0.00  0.00    -0.307 OA
HETATM   16  H   UNK N   1      26.825  20.623   7.401  0.00  0.00     0.222 HD
ENDBRANCH  13  15
BRANCH  13  17
HETATM   17  O   UNK N   1      28.146  19.612   4.384  0.00  0.00    -0.307 OA
HETATM   18  H   UNK N   1      28.458  19.978   3.542  0.00  0.00     0.222 HD
ENDBRANCH  13  17
ENDBRANCH  12  13
ENDBRANCH   9  12
BRANCH  10  19
HETATM   19  C   UNK N   1      29.848  16.473   4.956  0.00  0.00     0.272 C 
HETATM   20  O   UNK N   1      29.882  17.132   3.926  0.00  0.00    -0.301 OA
ENDBRANCH  10  19
ENDBRANCH   5   6
ENDBRANCH   4   5
BRANCH   4  21
HETATM   21  N   UNK N   1      34.497  15.993   7.092  0.00  0.00    -0.362 N 
HETATM   22  C   UNK N   1      34.210  15.059   6.249  0.00  0.00     0.107 C 
HETATM   23  C   UNK N   1      34.982  14.964   4.977  0.00  0.00     0.097 C 
ATOM     24  HN  UNK N   1      35.247  16.637   6.840  1.00  0.00     0.162 HD
BRANCH  22  25
HETATM   25  O   UNK N   1      33.245  14.155   6.510  0.00  0.00    -0.350 OA
HETATM   26  H   UNK N   1      32.622  14.300   7.193  0.00  0.00     0.219 HD
ENDBRANCH  22  25
ENDBRANCH   4  21
ENDBRANCH   1   4
BRANCH   1  27
HETATM   27  O   UNK N   1      34.916  17.393  10.235  0.00  0.00    -0.348 OA
HETATM   28  H   UNK N   1      35.200  17.859  10.997  0.00  0.00     0.219 HD
ENDBRANCH   1  27
BRANCH   2  29
HETATM   29  C   UNK N   1      35.738  14.057   9.038  0.00  0.00     0.175 C 
HETATM   30  C   UNK N   1      37.119  13.745   8.457  0.00  0.00     0.035 C 
HETATM   31  C   UNK N   1      38.279  14.003   9.410  0.00  0.00     0.004 C 
HETATM   32  C   UNK N   1      38.280  13.040  10.581  0.00  0.00     0.020 C 
HETATM   33  C   UNK N   1      37.147  13.360  11.551  0.00  0.00     0.126 C 
HETATM   34  N   UNK N   1      35.916  12.683  11.167  0.00  0.00    -0.346 N 
HETATM   35  C   UNK N   1      35.265  12.983  10.002  0.00  0.00     0.242 C 
HETATM   36  O   UNK N   1      34.253  12.349   9.708  0.00  0.00    -0.271 OA
BRANCH  34  37
HETATM   37  C   UNK N   1      35.456  11.557  11.964  0.00  0.00     0.164 C 
BRANCH  37  38
HETATM   38  C   UNK N   1      35.795  11.869  13.380  0.00  0.00    -0.040 A 
HETATM   39  C   UNK N   1      34.917  12.692  14.093  0.00  0.00     0.009 A 
HETATM   40  C   UNK N   1      34.934  12.691  15.475  0.00  0.00     0.013 A 
HETATM   41  C   UNK N   1      35.857  11.898  16.162  0.00  0.00    -0.026 A 
HETATM   42  C   UNK N   1      36.832  11.184  15.444  0.00  0.00     0.013 A 
HETATM   43  C   UNK N   1      36.788  11.153  14.049  0.00  0.00     0.009 A 
BRANCH  41  44
HETATM   44  C   UNK N   1      35.602  11.561  17.572  0.00  0.00    -0.026 A 
HETATM   45  C   UNK N   1      35.222  12.554  18.484  0.00  0.00     0.012 A 
HETATM   46  C   UNK N   1      35.210  12.283  19.853  0.00  0.00     0.001 A 
HETATM   47  C   UNK N   1      35.615  11.030  20.323  0.00  0.00     0.000 A 
HETATM   48  C   UNK N   1      35.997  10.034  19.421  0.00  0.00     0.001 A 
HETATM   49  C   UNK N   1      35.989  10.298  18.053  0.00  0.00     0.012 A 
ENDBRANCH  41  44
ENDBRANCH  37  38
ENDBRANCH  34  37
ENDBRANCH   2  29
TORSDOF 15
ENDMDL
MODEL 8
REMARK VINA RESULT:      -7.6     14.964     17.896
REMARK  15 active torsions:
REMARK  status: ('A' for Active; 'I' for Inactive)
REMARK    1  A    between atoms: C_23  and  C_18 
REMARK    2  A    between atoms: C_28  and  C_18 
REMARK    3  A    between atoms: C_22  and  C_19 
REMARK    4  A    between atoms: N_36  and  C_19 
REMARK    5  A    between atoms: C_26  and  C_20 
REMARK    6  A    between atoms: O_38  and  C_21 
REMARK    7  A    between atoms: C_25  and  C_24 
REMARK    8  A    between atoms: C_27  and  N_34 
REMARK    9  A    between atoms: C_30  and  C_28 
REMARK   10  A    between atoms: C_28  and  N_32 
REMARK   11  A    between atoms: O_44  and  C_29 
REMARK   12  A    between atoms: C_30  and  O_39 
REMARK   13  A    between atoms: P_45  and  O_41 
REMARK   14  A    between atoms: P_45  and  O_42 
REMARK   15  A    between atoms: P_45  and  O_44 
ROOT
HETATM    1  C   UNK N   1      33.465  17.477   7.233  0.00  0.00     0.135 C 
HETATM    2  N   UNK N   1      32.941  17.329   6.063  0.00  0.00    -0.359 N 
ATOM      3  HN  UNK N   1      33.366  17.832   5.284  1.00  0.00     0.162 HD
ENDROOT
BRANCH   1   4
HETATM    4  C   UNK N   1      32.856  16.894   8.493  0.00  0.00     0.162 C 
BRANCH   4   5
HETATM    5  C   UNK N   1      34.060  16.581   9.414  0.00  0.00     0.072 C 
BRANCH   5   6
HETATM    6  C   UNK N   1      34.247  15.175   9.876  0.00  0.00    -0.055 A 
HETATM    7  C   UNK N   1      34.018  14.084   9.036  0.00  0.00     0.010 A 
HETATM    8  C   UNK N   1      34.329  12.792   9.485  0.00  0.00     0.039 A 
HETATM    9  C   UNK N   1      34.860  12.575  10.772  0.00  0.00     0.094 A 
HETATM   10  C   UNK N   1      35.073  13.707  11.615  0.00  0.00     0.036 A 
HETATM   11  C   UNK N   1      34.788  14.966  11.127  0.00  0.00     0.024 A 
BRANCH   9  12
HETATM   12  O   UNK N   1      35.135  11.287  11.119  0.00  0.00    -0.254 OA
BRANCH  12  13
HETATM   13  P   UNK N   1      34.051  10.076  11.702  0.00  0.00     0.396 P 
HETATM   14  O   UNK N   1      33.655  10.459  13.154  0.00  0.00    -0.631 OA
BRANCH  13  15
HETATM   15  O   UNK N   1      32.590  10.054  10.771  0.00  0.00    -0.307 OA
HETATM   16  H   UNK N   1      32.301  10.838  10.278  0.00  0.00     0.222 HD
ENDBRANCH  13  15
BRANCH  13  17
HETATM   17  O   UNK N   1      34.784   8.501  11.732  0.00  0.00    -0.307 OA
HETATM   18  H   UNK N   1      35.212   7.710  12.096  0.00  0.00     0.222 HD
ENDBRANCH  13  17
ENDBRANCH  12  13
ENDBRANCH   9  12
BRANCH  10  19
HETATM   19  C   UNK N   1      35.573  13.652  12.995  0.00  0.00     0.272 C 
HETATM   20  O   UNK N   1      34.811  13.501  13.939  0.00  0.00    -0.301 OA
ENDBRANCH  10  19
ENDBRANCH   5   6
ENDBRANCH   4   5
BRANCH   4  21
HETATM   21  N   UNK N   1      31.933  17.865   9.066  0.00  0.00    -0.362 N 
HETATM   22  C   UNK N   1      30.646  17.778   9.031  0.00  0.00     0.107 C 
HETATM   23  C   UNK N   1      29.827  18.856   9.654  0.00  0.00     0.097 C 
ATOM     24  HN  UNK N   1      32.335  18.678   9.532  1.00  0.00     0.162 HD
BRANCH  22  25
HETATM   25  O   UNK N   1      30.031  16.746   8.419  0.00  0.00    -0.350 OA
HETATM   26  H   UNK N   1      29.396  16.228   8.872  0.00  0.00     0.219 HD
ENDBRANCH  22  25
ENDBRANCH   4  21
ENDBRANCH   1   4
BRANCH   1  27
HETATM   27  O   UNK N   1      34.617  18.169   7.341  0.00  0.00    -0.348 OA
HETATM   28  H   UNK N   1      35.182  18.766   7.792  0.00  0.00     0.219 HD
ENDBRANCH   1  27
BRANCH   2  29
HETATM   29  C   UNK N   1      31.788  16.497   5.780  0.00  0.00     0.175 C 
HETATM   30  C   UNK N   1      31.006  17.050   4.587  0.00  0.00     0.035 C 
HETATM   31  C   UNK N   1      31.866  17.424   3.386  0.00  0.00     0.004 C 
HETATM   32  C   UNK N   1      32.490  16.206   2.731  0.00  0.00     0.020 C 
HETATM   33  C   UNK N   1      33.601  15.628   3.603  0.00  0.00     0.126 C 
HETATM   34  N   UNK N   1      33.072  14.672   4.566  0.00  0.00    -0.346 N 
HETATM   35  C   UNK N   1      32.221  15.057   5.566  0.00  0.00     0.242 C 
HETATM   36  O   UNK N   1      31.771  14.200   6.325  0.00  0.00    -0.271 OA
BRANCH  34  37
HETATM   37  C   UNK N   1      33.332  13.255   4.366  0.00  0.00     0.164 C 
BRANCH  37  38
HETATM   38  C   UNK N   1      34.660  12.974   4.978  0.00  0.00    -0.040 A 
HETATM   39  C   UNK N   1      35.526  14.054   5.177  0.00  0.00     0.009 A 
HETATM   40  C   UNK N   1      36.564  13.952   6.083  0.00  0.00     0.013 A 
HETATM   41  C   UNK N   1      36.774  12.756   6.773  0.00  0.00    -0.026 A 
HETATM   42  C   UNK N   1      35.993  11.628   6.467  0.00  0.00     0.013 A 
HETATM   43  C   UNK N   1      34.920  11.743   5.582  0.00  0.00     0.009 A 
BRANCH  41  44
HETATM   44  C   UNK N   1      37.565  12.775   8.015  0.00  0.00    -0.026 A 
HETATM   45  C   UNK N   1      37.892  11.580   8.669  0.00  0.00     0.012 A 
HETATM   46  C   UNK N   1      38.432  11.608   9.956  0.00  0.00     0.001 A 
HETATM   47  C   UNK N   1      38.612  12.829  10.613  0.00  0.00     0.000 A 
HETATM   48  C   UNK N   1      38.288  14.025   9.970  0.00  0.00     0.001 A 
HETATM   49  C   UNK N   1      37.768  13.999   8.677  0.00  0.00     0.012 A 
ENDBRANCH  41  44
ENDBRANCH  37  38
ENDBRANCH  34  37
ENDBRANCH   2  29
TORSDOF 15
ENDMDL
MODEL 9
REMARK VINA RESULT:      -7.5     19.888     23.552
REMARK  15 active torsions:
REMARK  status: ('A' for Active; 'I' for Inactive)
REMARK    1  A    between atoms: C_23  and  C_18 
REMARK    2  A    between atoms: C_28  and  C_18 
REMARK    3  A    between atoms: C_22  and  C_19 
REMARK    4  A    between atoms: N_36  and  C_19 
REMARK    5  A    between atoms: C_26  and  C_20 
REMARK    6  A    between atoms: O_38  and  C_21 
REMARK    7  A    between atoms: C_25  and  C_24 
REMARK    8  A    between atoms: C_27  and  N_34 
REMARK    9  A    between atoms: C_30  and  C_28 
REMARK   10  A    between atoms: C_28  and  N_32 
REMARK   11  A    between atoms: O_44  and  C_29 
REMARK   12  A    between atoms: C_30  and  O_39 
REMARK   13  A    between atoms: P_45  and  O_41 
REMARK   14  A    between atoms: P_45  and  O_42 
REMARK   15  A    between atoms: P_45  and  O_44 
ROOT
HETATM    1  C   UNK N   1      37.609  13.065  10.987  0.00  0.00     0.135 C 
HETATM    2  N   UNK N   1      37.567  12.167  11.912  0.00  0.00    -0.359 N 
ATOM      3  HN  UNK N   1      38.424  11.976  12.431  1.00  0.00     0.162 HD
ENDROOT
BRANCH   1   4
HETATM    4  C   UNK N   1      36.446  13.352  10.056  0.00  0.00     0.162 C 
BRANCH   4   5
HETATM    5  C   UNK N   1      35.813  14.658  10.595  0.00  0.00     0.072 C 
BRANCH   5   6
HETATM    6  C   UNK N   1      34.655  15.237   9.853  0.00  0.00    -0.055 A 
HETATM    7  C   UNK N   1      33.395  14.637   9.862  0.00  0.00     0.010 A 
HETATM    8  C   UNK N   1      32.316  15.292   9.250  0.00  0.00     0.039 A 
HETATM    9  C   UNK N   1      32.483  16.540   8.619  0.00  0.00     0.094 A 
HETATM   10  C   UNK N   1      33.785  17.126   8.614  0.00  0.00     0.036 A 
HETATM   11  C   UNK N   1      34.815  16.469   9.255  0.00  0.00     0.024 A 
BRANCH   9  12
HETATM   12  O   UNK N   1      31.378  17.102   8.056  0.00  0.00    -0.254 OA
BRANCH  12  13
HETATM   13  P   UNK N   1      30.773  16.908   6.451  0.00  0.00     0.396 P 
HETATM   14  O   UNK N   1      30.466  15.400   6.242  0.00  0.00    -0.631 OA
BRANCH  13  15
HETATM   15  O   UNK N   1      29.278  17.760   6.245  0.00  0.00    -0.307 OA
HETATM   16  H   UNK N   1      28.827  18.164   7.003  0.00  0.00     0.222 HD
ENDBRANCH  13  15
BRANCH  13  17
HETATM   17  O   UNK N   1      31.931  17.402   5.251  0.00  0.00    -0.307 OA
HETATM   18  H   UNK N   1      32.507  17.991   4.740  0.00  0.00     0.222 HD
ENDBRANCH  13  17
ENDBRANCH  12  13
ENDBRANCH   9  12
BRANCH  10  19
HETATM   19  C   UNK N   1      34.139  18.393   7.962  0.00  0.00     0.272 C 
HETATM   20  O   UNK N   1      35.025  19.109   8.408  0.00  0.00    -0.301 OA
ENDBRANCH  10  19
ENDBRANCH   5   6
ENDBRANCH   4   5
BRANCH   4  21
HETATM   21  N   UNK N   1      36.949  13.478   8.695  0.00  0.00    -0.362 N 
HETATM   22  C   UNK N   1      36.362  13.024   7.640  0.00  0.00     0.107 C 
HETATM   23  C   UNK N   1      37.003  13.220   6.309  0.00  0.00     0.097 C 
ATOM     24  HN  UNK N   1      37.836  13.964   8.565  1.00  0.00     0.162 HD
BRANCH  22  25
HETATM   25  O   UNK N   1      35.195  12.353   7.723  0.00  0.00    -0.350 OA
HETATM   26  H   UNK N   1      34.519  12.484   7.089  0.00  0.00     0.219 HD
ENDBRANCH  22  25
ENDBRANCH   4  21
ENDBRANCH   1   4
BRANCH   1  27
HETATM   27  O   UNK N   1      38.733  13.797  10.849  0.00  0.00    -0.348 OA
HETATM   28  H   UNK N   1      39.410  14.343  11.198  0.00  0.00     0.219 HD
ENDBRANCH   1  27
BRANCH   2  29
HETATM   29  C   UNK N   1      36.383  11.407  12.264  0.00  0.00     0.175 C 
HETATM   30  C   UNK N   1      36.740   9.940  12.512  0.00  0.00     0.035 C 
HETATM   31  C   UNK N   1      37.955   9.728  13.406  0.00  0.00     0.004 C 
HETATM   32  C   UNK N   1      37.695  10.165  14.834  0.00  0.00     0.020 C 
HETATM   33  C   UNK N   1      37.633  11.686  14.936  0.00  0.00     0.126 C 
HETATM   34  N   UNK N   1      36.286  12.177  14.682  0.00  0.00    -0.346 N 
HETATM   35  C   UNK N   1      35.690  12.040  13.458  0.00  0.00     0.242 C 
HETATM   36  O   UNK N   1      34.535  12.435  13.313  0.00  0.00    -0.271 OA
BRANCH  34  37
HETATM   37  C   UNK N   1      35.501  12.685  15.797  0.00  0.00     0.164 C 
BRANCH  37  38
HETATM   38  C   UNK N   1      35.430  11.589  16.803  0.00  0.00    -0.040 A 
HETATM   39  C   UNK N   1      35.702  11.912  18.137  0.00  0.00     0.009 A 
HETATM   40  C   UNK N   1      35.269  11.083  19.153  0.00  0.00     0.013 A 
HETATM   41  C   UNK N   1      34.592   9.900  18.849  0.00  0.00    -0.026 A 
HETATM   42  C   UNK N   1      34.446   9.505  17.507  0.00  0.00     0.013 A 
HETATM   43  C   UNK N   1      34.848  10.363  16.481  0.00  0.00     0.009 A 
BRANCH  41  44
HETATM   44  C   UNK N   1      33.767   9.258  19.886  0.00  0.00    -0.026 A 
HETATM   45  C   UNK N   1      32.844   8.261  19.547  0.00  0.00     0.012 A 
HETATM   46  C   UNK N   1      31.906   7.824  20.483  0.00  0.00     0.001 A 
HETATM   47  C   UNK N   1      31.858   8.408  21.752  0.00  0.00     0.000 A 
HETATM   48  C   UNK N   1      32.773   9.404  22.100  0.00  0.00     0.001 A 
HETATM   49  C   UNK N   1      33.724   9.826  21.172  0.00  0.00     0.012 A 
ENDBRANCH  41  44
ENDBRANCH  37  38
ENDBRANCH  34  37
ENDBRANCH   2  29
TORSDOF 15
ENDMDL
