REMARK  7 active torsions:
REMARK  status: ('A' for Active; 'I' for Inactive)
REMARK    1  A    between atoms: C_3  and  C_1 
REMARK    2  A    between atoms: S_7  and  C_1 
REMARK    3  A    between atoms: C_4  and  C_2 
REMARK    4  A    between atoms: S_8  and  C_2 
REMARK    5  A    between atoms: C_4  and  C_3 
REMARK    6  A    between atoms: C_3  and  O_5 
REMARK    7  A    between atoms: C_4  and  O_6 
ROOT
HETATM    1  C   UNK N   1       0.434   0.034  -0.069  0.00  0.00     0.156 C 
ENDROOT
BRANCH   1   2
HETATM    2  C   UNK N   1      -0.398   1.315  -0.060  0.00  0.00     0.105 C 
BRANCH   2   3
HETATM    3  S   UNK N   1      -2.178   0.953   0.049  0.00  0.00    -0.180 SA
HETATM    4  H   UNK N   1      -3.078   1.969   0.131  0.00  0.00     0.101 HD
ENDBRANCH   2   3
ENDBRANCH   1   2
BRANCH   1   5
HETATM    5  C   UNK N   1       1.930   0.379  -0.069  0.00  0.00     0.156 C 
BRANCH   5   6
HETATM    6  C   UNK N   1       2.762  -0.902  -0.059  0.00  0.00     0.105 C 
BRANCH   6   7
HETATM    7  S   UNK N   1       4.543  -0.540   0.049  0.00  0.00    -0.180 SA
HETATM    8  H   UNK N   1       5.442  -1.557   0.131  0.00  0.00     0.101 HD
ENDBRANCH   6   7
ENDBRANCH   5   6
BRANCH   5   9
HETATM    9  O   UNK N   1       2.237   1.142   1.061  0.00  0.00    -0.392 OA
HETATM   10  H   UNK N   1       2.802   1.223   1.845  0.00  0.00     0.210 HD
ENDBRANCH   5   9
ENDBRANCH   1   5
BRANCH   1  11
HETATM   11  O   UNK N   1       0.128  -0.730   1.061  0.00  0.00    -0.392 OA
HETATM   12  H   UNK N   1      -0.438  -0.811   1.845  0.00  0.00     0.210 HD
ENDBRANCH   1  11
TORSDOF 7
