MODEL 1
REMARK VINA RESULT:      -5.0      0.000      0.000
REMARK  9 active torsions:
REMARK  status: ('A' for Active; 'I' for Inactive)
REMARK    1  A    between atoms: C_2  and  O_1 
REMARK    2  A    between atoms: C_2  and  C_3 
REMARK    3  A    between atoms: C_2  and  C_11 
REMARK    4  A    between atoms: C_3  and  C_4 
REMARK    5  A    between atoms: C_3  and  C_8 
REMARK    6  A    between atoms: C_4  and  C_5 
REMARK    7  A    between atoms: C_5  and  O_6 
REMARK    8  A    between atoms: C_8  and  O_9 
REMARK    9  A    between atoms: C_11  and  O_12 
ROOT
HETATM    1  C   UNK N   1      33.811  15.727   8.550  0.00  0.00     0.132 C 
ENDROOT
BRANCH   1   2
HETATM    2  C   UNK N   1      35.110  15.488   9.344  0.00  0.00     0.230 C 
BRANCH   2   3
HETATM    3  O   UNK N   1      35.192  14.144   9.720  0.00  0.00    -0.384 OA
HETATM    4  H   UNK N   1      35.656  13.840  10.516  0.00  0.00     0.210 HD
ENDBRANCH   2   3
BRANCH   2   5
HETATM    5  C   UNK N   1      35.304  16.343  10.569  0.00  0.00     0.170 C 
HETATM    6  O   UNK N   1      36.028  17.329  10.545  0.00  0.00    -0.648 OA
BRANCH   5   7
HETATM    7  O   UNK N   1      34.670  16.015  11.709  0.00  0.00    -0.774 OA
HETATM    8  H   UNK N   1      34.815  15.253  12.237  0.00  0.00     0.167 HD
ENDBRANCH   5   7
ENDBRANCH   2   5
ENDBRANCH   1   2
BRANCH   1   9
HETATM    9  C   UNK N   1      33.466  17.224   8.638  0.00  0.00     0.128 C 
BRANCH   9  10
HETATM   10  C   UNK N   1      34.271  18.159   7.777  0.00  0.00     0.140 C 
HETATM   11  O   UNK N   1      34.267  18.063   6.560  0.00  0.00    -0.650 OA
BRANCH  10  12
HETATM   12  O   UNK N   1      34.997  19.128   8.363  0.00  0.00    -0.776 OA
HETATM   13  H   UNK N   1      35.934  19.093   8.370  0.00  0.00     0.167 HD
ENDBRANCH  10  12
ENDBRANCH   9  10
ENDBRANCH   1   9
BRANCH   1  14
HETATM   14  C   UNK N   1      32.681  14.875   9.069  0.00  0.00     0.147 C 
HETATM   15  O   UNK N   1      32.250  13.945   8.407  0.00  0.00    -0.650 OA
BRANCH  14  16
HETATM   16  O   UNK N   1      32.146  15.146  10.274  0.00  0.00    -0.776 OA
HETATM   17  H   UNK N   1      31.788  15.886  10.722  0.00  0.00     0.167 HD
ENDBRANCH  14  16
ENDBRANCH   1  14
TORSDOF 9
ENDMDL
MODEL 2
REMARK VINA RESULT:      -5.0      1.855      3.391
REMARK  9 active torsions:
REMARK  status: ('A' for Active; 'I' for Inactive)
REMARK    1  A    between atoms: C_2  and  O_1 
REMARK    2  A    between atoms: C_2  and  C_3 
REMARK    3  A    between atoms: C_2  and  C_11 
REMARK    4  A    between atoms: C_3  and  C_4 
REMARK    5  A    between atoms: C_3  and  C_8 
REMARK    6  A    between atoms: C_4  and  C_5 
REMARK    7  A    between atoms: C_5  and  O_6 
REMARK    8  A    between atoms: C_8  and  O_9 
REMARK    9  A    between atoms: C_11  and  O_12 
ROOT
HETATM    1  C   UNK N   1      33.262  17.466   8.616  0.00  0.00     0.132 C 
ENDROOT
BRANCH   1   2
HETATM    2  C   UNK N   1      33.803  16.128   9.156  0.00  0.00     0.230 C 
BRANCH   2   3
HETATM    3  O   UNK N   1      32.802  15.472   9.879  0.00  0.00    -0.384 OA
HETATM    4  H   UNK N   1      32.965  15.011  10.718  0.00  0.00     0.210 HD
ENDBRANCH   2   3
BRANCH   2   5
HETATM    5  C   UNK N   1      35.040  16.211  10.013  0.00  0.00     0.170 C 
HETATM    6  O   UNK N   1      35.967  15.428   9.865  0.00  0.00    -0.648 OA
BRANCH   5   7
HETATM    7  O   UNK N   1      35.124  17.165  10.958  0.00  0.00    -0.774 OA
HETATM    8  H   UNK N   1      34.608  17.235  11.738  0.00  0.00     0.167 HD
ENDBRANCH   5   7
ENDBRANCH   2   5
ENDBRANCH   1   2
BRANCH   1   9
HETATM    9  C   UNK N   1      32.018  17.168   7.761  0.00  0.00     0.128 C 
BRANCH   9  10
HETATM   10  C   UNK N   1      30.685  17.555   8.343  0.00  0.00     0.140 C 
HETATM   11  O   UNK N   1      29.773  17.948   7.634  0.00  0.00    -0.650 OA
BRANCH  10  12
HETATM   12  O   UNK N   1      30.495  17.450   9.671  0.00  0.00    -0.776 OA
HETATM   13  H   UNK N   1      31.034  17.923  10.275  0.00  0.00     0.167 HD
ENDBRANCH  10  12
ENDBRANCH   9  10
ENDBRANCH   1   9
BRANCH   1  14
HETATM   14  C   UNK N   1      34.307  18.204   7.821  0.00  0.00     0.147 C 
HETATM   15  O   UNK N   1      34.486  17.947   6.641  0.00  0.00    -0.650 OA
BRANCH  14  16
HETATM   16  O   UNK N   1      35.047  19.156   8.420  0.00  0.00    -0.776 OA
HETATM   17  H   UNK N   1      35.852  19.210   8.896  0.00  0.00     0.167 HD
ENDBRANCH  14  16
ENDBRANCH   1  14
TORSDOF 9
ENDMDL
MODEL 3
REMARK VINA RESULT:      -4.8     14.153     15.758
REMARK  9 active torsions:
REMARK  status: ('A' for Active; 'I' for Inactive)
REMARK    1  A    between atoms: C_2  and  O_1 
REMARK    2  A    between atoms: C_2  and  C_3 
REMARK    3  A    between atoms: C_2  and  C_11 
REMARK    4  A    between atoms: C_3  and  C_4 
REMARK    5  A    between atoms: C_3  and  C_8 
REMARK    6  A    between atoms: C_4  and  C_5 
REMARK    7  A    between atoms: C_5  and  O_6 
REMARK    8  A    between atoms: C_8  and  O_9 
REMARK    9  A    between atoms: C_11  and  O_12 
ROOT
HETATM    1  C   UNK N   1      21.501  19.199   2.544  0.00  0.00     0.132 C 
ENDROOT
BRANCH   1   2
HETATM    2  C   UNK N   1      21.330  20.723   2.394  0.00  0.00     0.230 C 
BRANCH   2   3
HETATM    3  O   UNK N   1      20.402  21.189   3.330  0.00  0.00    -0.384 OA
HETATM    4  H   UNK N   1      19.497  21.451   3.100  0.00  0.00     0.210 HD
ENDBRANCH   2   3
BRANCH   2   5
HETATM    5  C   UNK N   1      20.923  21.213   1.028  0.00  0.00     0.170 C 
HETATM    6  O   UNK N   1      21.159  20.557   0.023  0.00  0.00    -0.648 OA
BRANCH   5   7
HETATM    7  O   UNK N   1      20.288  22.394   0.913  0.00  0.00    -0.774 OA
HETATM    8  H   UNK N   1      20.562  23.218   1.267  0.00  0.00     0.167 HD
ENDBRANCH   5   7
ENDBRANCH   2   5
ENDBRANCH   1   2
BRANCH   1   9
HETATM    9  C   UNK N   1      20.133  18.539   2.295  0.00  0.00     0.128 C 
BRANCH   9  10
HETATM   10  C   UNK N   1      20.088  17.431   1.278  0.00  0.00     0.140 C 
HETATM   11  O   UNK N   1      19.851  16.279   1.603  0.00  0.00    -0.650 OA
BRANCH  10  12
HETATM   12  O   UNK N   1      20.300  17.724  -0.019  0.00  0.00    -0.776 OA
HETATM   13  H   UNK N   1      19.788  18.376  -0.456  0.00  0.00     0.167 HD
ENDBRANCH  10  12
ENDBRANCH   9  10
ENDBRANCH   1   9
BRANCH   1  14
HETATM   14  C   UNK N   1      22.043  18.834   3.901  0.00  0.00     0.147 C 
HETATM   15  O   UNK N   1      23.210  18.501   4.035  0.00  0.00    -0.650 OA
BRANCH  14  16
HETATM   16  O   UNK N   1      21.231  18.879   4.974  0.00  0.00    -0.776 OA
HETATM   17  H   UNK N   1      20.790  18.271   5.534  0.00  0.00     0.167 HD
ENDBRANCH  14  16
ENDBRANCH   1  14
TORSDOF 9
ENDMDL
MODEL 4
REMARK VINA RESULT:      -4.8      1.310      4.328
REMARK  9 active torsions:
REMARK  status: ('A' for Active; 'I' for Inactive)
REMARK    1  A    between atoms: C_2  and  O_1 
REMARK    2  A    between atoms: C_2  and  C_3 
REMARK    3  A    between atoms: C_2  and  C_11 
REMARK    4  A    between atoms: C_3  and  C_4 
REMARK    5  A    between atoms: C_3  and  C_8 
REMARK    6  A    between atoms: C_4  and  C_5 
REMARK    7  A    between atoms: C_5  and  O_6 
REMARK    8  A    between atoms: C_8  and  O_9 
REMARK    9  A    between atoms: C_11  and  O_12 
ROOT
HETATM    1  C   UNK N   1      35.260  16.086   9.227  0.00  0.00     0.132 C 
ENDROOT
BRANCH   1   2
HETATM    2  C   UNK N   1      34.140  17.085   8.876  0.00  0.00     0.230 C 
BRANCH   2   3
HETATM    3  O   UNK N   1      33.062  16.403   8.304  0.00  0.00    -0.384 OA
HETATM    4  H   UNK N   1      32.794  15.509   8.570  0.00  0.00     0.210 HD
ENDBRANCH   2   3
BRANCH   2   5
HETATM    5  C   UNK N   1      34.529  18.222   7.966  0.00  0.00     0.170 C 
HETATM    6  O   UNK N   1      35.055  19.234   8.406  0.00  0.00    -0.648 OA
BRANCH   5   7
HETATM    7  O   UNK N   1      34.290  18.119   6.645  0.00  0.00    -0.774 OA
HETATM    8  H   UNK N   1      34.919  17.959   5.969  0.00  0.00     0.167 HD
ENDBRANCH   5   7
ENDBRANCH   2   5
ENDBRANCH   1   2
BRANCH   1   9
HETATM    9  C   UNK N   1      34.654  14.672   9.232  0.00  0.00     0.128 C 
BRANCH   9  10
HETATM   10  C   UNK N   1      34.150  14.153  10.552  0.00  0.00     0.140 C 
HETATM   11  O   UNK N   1      34.629  13.156  11.067  0.00  0.00    -0.650 OA
BRANCH  10  12
HETATM   12  O   UNK N   1      33.161  14.813  11.180  0.00  0.00    -0.776 OA
HETATM   13  H   UNK N   1      32.354  15.006  10.742  0.00  0.00     0.167 HD
ENDBRANCH  10  12
ENDBRANCH   9  10
ENDBRANCH   1   9
BRANCH   1  14
HETATM   14  C   UNK N   1      35.895  16.412  10.554  0.00  0.00     0.147 C 
HETATM   15  O   UNK N   1      35.304  17.094  11.376  0.00  0.00    -0.650 OA
BRANCH  14  16
HETATM   16  O   UNK N   1      37.127  15.944  10.832  0.00  0.00    -0.776 OA
HETATM   17  H   UNK N   1      37.999  16.053  10.507  0.00  0.00     0.167 HD
ENDBRANCH  14  16
ENDBRANCH   1  14
TORSDOF 9
ENDMDL
MODEL 5
REMARK VINA RESULT:      -4.7      1.972      3.927
REMARK  9 active torsions:
REMARK  status: ('A' for Active; 'I' for Inactive)
REMARK    1  A    between atoms: C_2  and  O_1 
REMARK    2  A    between atoms: C_2  and  C_3 
REMARK    3  A    between atoms: C_2  and  C_11 
REMARK    4  A    between atoms: C_3  and  C_4 
REMARK    5  A    between atoms: C_3  and  C_8 
REMARK    6  A    between atoms: C_4  and  C_5 
REMARK    7  A    between atoms: C_5  and  O_6 
REMARK    8  A    between atoms: C_8  and  O_9 
REMARK    9  A    between atoms: C_11  and  O_12 
ROOT
HETATM    1  C   UNK N   1      33.166  17.362   8.498  0.00  0.00     0.132 C 
ENDROOT
BRANCH   1   2
HETATM    2  C   UNK N   1      33.636  15.913   8.734  0.00  0.00     0.230 C 
BRANCH   2   3
HETATM    3  O   UNK N   1      34.144  15.382   7.545  0.00  0.00    -0.384 OA
HETATM    4  H   UNK N   1      35.086  15.194   7.404  0.00  0.00     0.210 HD
ENDBRANCH   2   3
BRANCH   2   5
HETATM    5  C   UNK N   1      32.602  14.963   9.283  0.00  0.00     0.170 C 
HETATM    6  O   UNK N   1      32.297  13.943   8.682  0.00  0.00    -0.648 OA
BRANCH   5   7
HETATM    7  O   UNK N   1      32.004  15.246  10.455  0.00  0.00    -0.774 OA
HETATM    8  H   UNK N   1      31.097  15.138  10.667  0.00  0.00     0.167 HD
ENDBRANCH   5   7
ENDBRANCH   2   5
ENDBRANCH   1   2
BRANCH   1   9
HETATM    9  C   UNK N   1      31.856  17.314   7.692  0.00  0.00     0.128 C 
BRANCH   9  10
HETATM   10  C   UNK N   1      30.613  17.796   8.388  0.00  0.00     0.140 C 
HETATM   11  O   UNK N   1      29.605  18.082   7.763  0.00  0.00    -0.650 OA
BRANCH  10  12
HETATM   12  O   UNK N   1      30.611  17.900   9.730  0.00  0.00    -0.776 OA
HETATM   13  H   UNK N   1      30.242  18.649  10.156  0.00  0.00     0.167 HD
ENDBRANCH  10  12
ENDBRANCH   9  10
ENDBRANCH   1   9
BRANCH   1  14
HETATM   14  C   UNK N   1      34.216  18.173   7.785  0.00  0.00     0.147 C 
HETATM   15  O   UNK N   1      34.870  19.011   8.386  0.00  0.00    -0.650 OA
BRANCH  14  16
HETATM   16  O   UNK N   1      34.433  17.970   6.471  0.00  0.00    -0.776 OA
HETATM   17  H   UNK N   1      34.358  17.266   5.858  0.00  0.00     0.167 HD
ENDBRANCH  14  16
ENDBRANCH   1  14
TORSDOF 9
ENDMDL
MODEL 6
REMARK VINA RESULT:      -4.7     13.583     15.320
REMARK  9 active torsions:
REMARK  status: ('A' for Active; 'I' for Inactive)
REMARK    1  A    between atoms: C_2  and  O_1 
REMARK    2  A    between atoms: C_2  and  C_3 
REMARK    3  A    between atoms: C_2  and  C_11 
REMARK    4  A    between atoms: C_3  and  C_4 
REMARK    5  A    between atoms: C_3  and  C_8 
REMARK    6  A    between atoms: C_4  and  C_5 
REMARK    7  A    between atoms: C_5  and  O_6 
REMARK    8  A    between atoms: C_8  and  O_9 
REMARK    9  A    between atoms: C_11  and  O_12 
ROOT
HETATM    1  C   UNK N   1      21.101  18.547   3.108  0.00  0.00     0.132 C 
ENDROOT
BRANCH   1   2
HETATM    2  C   UNK N   1      19.888  18.240   2.208  0.00  0.00     0.230 C 
BRANCH   2   3
HETATM    3  O   UNK N   1      18.795  17.873   2.999  0.00  0.00    -0.384 OA
HETATM    4  H   UNK N   1      17.918  18.282   2.921  0.00  0.00     0.210 HD
ENDBRANCH   2   3
BRANCH   2   5
HETATM    5  C   UNK N   1      20.096  17.183   1.154  0.00  0.00     0.170 C 
HETATM    6  O   UNK N   1      20.097  15.994   1.440  0.00  0.00    -0.648 OA
BRANCH   5   7
HETATM    7  O   UNK N   1      20.285  17.556  -0.125  0.00  0.00    -0.774 OA
HETATM    8  H   UNK N   1      19.626  17.808  -0.743  0.00  0.00     0.167 HD
ENDBRANCH   5   7
ENDBRANCH   2   5
ENDBRANCH   1   2
BRANCH   1   9
HETATM    9  C   UNK N   1      20.927  17.771   4.426  0.00  0.00     0.128 C 
BRANCH   9  10
HETATM   10  C   UNK N   1      21.866  18.119   5.548  0.00  0.00     0.140 C 
HETATM   11  O   UNK N   1      23.075  18.020   5.419  0.00  0.00    -0.650 OA
BRANCH  10  12
HETATM   12  O   UNK N   1      21.358  18.563   6.713  0.00  0.00    -0.776 OA
HETATM   13  H   UNK N   1      21.614  18.179   7.529  0.00  0.00     0.167 HD
ENDBRANCH  10  12
ENDBRANCH   9  10
ENDBRANCH   1   9
BRANCH   1  14
HETATM   14  C   UNK N   1      21.242  20.026   3.360  0.00  0.00     0.147 C 
HETATM   15  O   UNK N   1      20.301  20.676   3.786  0.00  0.00    -0.650 OA
BRANCH  14  16
HETATM   16  O   UNK N   1      22.419  20.631   3.112  0.00  0.00    -0.776 OA
HETATM   17  H   UNK N   1      22.718  21.439   2.744  0.00  0.00     0.167 HD
ENDBRANCH  14  16
ENDBRANCH   1  14
TORSDOF 9
ENDMDL
MODEL 7
REMARK VINA RESULT:      -4.6      1.552      3.515
REMARK  9 active torsions:
REMARK  status: ('A' for Active; 'I' for Inactive)
REMARK    1  A    between atoms: C_2  and  O_1 
REMARK    2  A    between atoms: C_2  and  C_3 
REMARK    3  A    between atoms: C_2  and  C_11 
REMARK    4  A    between atoms: C_3  and  C_4 
REMARK    5  A    between atoms: C_3  and  C_8 
REMARK    6  A    between atoms: C_4  and  C_5 
REMARK    7  A    between atoms: C_5  and  O_6 
REMARK    8  A    between atoms: C_8  and  O_9 
REMARK    9  A    between atoms: C_11  and  O_12 
ROOT
HETATM    1  C   UNK N   1      33.837  15.813   8.881  0.00  0.00     0.132 C 
ENDROOT
BRANCH   1   2
HETATM    2  C   UNK N   1      33.699  17.342   9.020  0.00  0.00     0.230 C 
BRANCH   2   3
HETATM    3  O   UNK N   1      32.355  17.706   8.906  0.00  0.00    -0.384 OA
HETATM    4  H   UNK N   1      31.826  17.554   8.106  0.00  0.00     0.210 HD
ENDBRANCH   2   3
BRANCH   2   5
HETATM    5  C   UNK N   1      34.507  18.169   8.053  0.00  0.00     0.170 C 
HETATM    6  O   UNK N   1      35.194  19.104   8.439  0.00  0.00    -0.648 OA
BRANCH   5   7
HETATM    7  O   UNK N   1      34.468  17.874   6.741  0.00  0.00    -0.774 OA
HETATM    8  H   UNK N   1      34.337  17.029   6.356  0.00  0.00     0.167 HD
ENDBRANCH   5   7
ENDBRANCH   2   5
ENDBRANCH   1   2
BRANCH   1   9
HETATM    9  C   UNK N   1      32.496  15.257   8.370  0.00  0.00     0.128 C 
BRANCH   9  10
HETATM   10  C   UNK N   1      32.454  14.796   6.938  0.00  0.00     0.140 C 
HETATM   11  O   UNK N   1      31.545  14.095   6.523  0.00  0.00    -0.650 OA
BRANCH  10  12
HETATM   12  O   UNK N   1      33.432  15.179   6.098  0.00  0.00    -0.776 OA
HETATM   13  H   UNK N   1      33.300  15.883   5.492  0.00  0.00     0.167 HD
ENDBRANCH  10  12
ENDBRANCH   9  10
ENDBRANCH   1   9
BRANCH   1  14
HETATM   14  C   UNK N   1      34.230  15.173  10.187  0.00  0.00     0.147 C 
HETATM   15  O   UNK N   1      35.379  14.806  10.379  0.00  0.00    -0.650 OA
BRANCH  14  16
HETATM   16  O   UNK N   1      33.304  15.007  11.150  0.00  0.00    -0.776 OA
HETATM   17  H   UNK N   1      33.273  14.988  12.086  0.00  0.00     0.167 HD
ENDBRANCH  14  16
ENDBRANCH   1  14
TORSDOF 9
ENDMDL
MODEL 8
REMARK VINA RESULT:      -4.6      1.540      2.030
REMARK  9 active torsions:
REMARK  status: ('A' for Active; 'I' for Inactive)
REMARK    1  A    between atoms: C_2  and  O_1 
REMARK    2  A    between atoms: C_2  and  C_3 
REMARK    3  A    between atoms: C_2  and  C_11 
REMARK    4  A    between atoms: C_3  and  C_4 
REMARK    5  A    between atoms: C_3  and  C_8 
REMARK    6  A    between atoms: C_4  and  C_5 
REMARK    7  A    between atoms: C_5  and  O_6 
REMARK    8  A    between atoms: C_8  and  O_9 
REMARK    9  A    between atoms: C_11  and  O_12 
ROOT
HETATM    1  C   UNK N   1      33.988  15.276   8.814  0.00  0.00     0.132 C 
ENDROOT
BRANCH   1   2
HETATM    2  C   UNK N   1      34.613  15.166  10.218  0.00  0.00     0.230 C 
BRANCH   2   3
HETATM    3  O   UNK N   1      33.601  15.107  11.181  0.00  0.00    -0.384 OA
HETATM    4  H   UNK N   1      32.708  14.773  10.998  0.00  0.00     0.210 HD
ENDBRANCH   2   3
BRANCH   2   5
HETATM    5  C   UNK N   1      35.578  16.259  10.601  0.00  0.00     0.170 C 
HETATM    6  O   UNK N   1      35.204  17.414  10.744  0.00  0.00    -0.648 OA
BRANCH   5   7
HETATM    7  O   UNK N   1      36.876  15.955  10.787  0.00  0.00    -0.774 OA
HETATM    8  H   UNK N   1      37.533  15.857  10.126  0.00  0.00     0.167 HD
ENDBRANCH   5   7
ENDBRANCH   2   5
ENDBRANCH   1   2
BRANCH   1   9
HETATM    9  C   UNK N   1      35.019  15.939   7.883  0.00  0.00     0.128 C 
BRANCH   9  10
HETATM   10  C   UNK N   1      34.499  16.520   6.597  0.00  0.00     0.140 C 
HETATM   11  O   UNK N   1      34.397  17.726   6.440  0.00  0.00    -0.650 OA
BRANCH  10  12
HETATM   12  O   UNK N   1      34.153  15.690   5.596  0.00  0.00    -0.776 OA
HETATM   13  H   UNK N   1      34.178  14.760   5.710  0.00  0.00     0.167 HD
ENDBRANCH  10  12
ENDBRANCH   9  10
ENDBRANCH   1   9
BRANCH   1  14
HETATM   14  C   UNK N   1      32.698  16.054   8.841  0.00  0.00     0.147 C 
HETATM   15  O   UNK N   1      31.633  15.501   8.618  0.00  0.00    -0.650 OA
BRANCH  14  16
HETATM   16  O   UNK N   1      32.725  17.372   9.117  0.00  0.00    -0.776 OA
HETATM   17  H   UNK N   1      33.338  17.998   9.448  0.00  0.00     0.167 HD
ENDBRANCH  14  16
ENDBRANCH   1  14
TORSDOF 9
ENDMDL
MODEL 9
REMARK VINA RESULT:      -4.5      1.158      3.541
REMARK  9 active torsions:
REMARK  status: ('A' for Active; 'I' for Inactive)
REMARK    1  A    between atoms: C_2  and  O_1 
REMARK    2  A    between atoms: C_2  and  C_3 
REMARK    3  A    between atoms: C_2  and  C_11 
REMARK    4  A    between atoms: C_3  and  C_4 
REMARK    5  A    between atoms: C_3  and  C_8 
REMARK    6  A    between atoms: C_4  and  C_5 
REMARK    7  A    between atoms: C_5  and  O_6 
REMARK    8  A    between atoms: C_8  and  O_9 
REMARK    9  A    between atoms: C_11  and  O_12 
ROOT
HETATM    1  C   UNK N   1      33.277  16.028   8.804  0.00  0.00     0.132 C 
ENDROOT
BRANCH   1   2
HETATM    2  C   UNK N   1      33.046  17.503   8.421  0.00  0.00     0.230 C 
BRANCH   2   3
HETATM    3  O   UNK N   1      31.886  17.613   7.649  0.00  0.00    -0.384 OA
HETATM    4  H   UNK N   1      31.411  18.449   7.517  0.00  0.00     0.210 HD
ENDBRANCH   2   3
BRANCH   2   5
HETATM    5  C   UNK N   1      34.177  18.182   7.692  0.00  0.00     0.170 C 
HETATM    6  O   UNK N   1      34.408  17.942   6.516  0.00  0.00    -0.648 OA
BRANCH   5   7
HETATM    7  O   UNK N   1      34.946  19.069   8.350  0.00  0.00    -0.774 OA
HETATM    8  H   UNK N   1      35.385  18.939   9.168  0.00  0.00     0.167 HD
ENDBRANCH   5   7
ENDBRANCH   2   5
ENDBRANCH   1   2
BRANCH   1   9
HETATM    9  C   UNK N   1      34.775  15.841   9.102  0.00  0.00     0.128 C 
BRANCH   9  10
HETATM   10  C   UNK N   1      35.254  16.254  10.467  0.00  0.00     0.140 C 
HETATM   11  O   UNK N   1      35.052  15.558  11.449  0.00  0.00    -0.650 OA
BRANCH  10  12
HETATM   12  O   UNK N   1      35.931  17.409  10.602  0.00  0.00    -0.776 OA
HETATM   13  H   UNK N   1      35.681  18.174  10.120  0.00  0.00     0.167 HD
ENDBRANCH  10  12
ENDBRANCH   9  10
ENDBRANCH   1   9
BRANCH   1  14
HETATM   14  C   UNK N   1      32.817  15.095   7.714  0.00  0.00     0.147 C 
HETATM   15  O   UNK N   1      32.098  14.143   7.972  0.00  0.00    -0.650 OA
BRANCH  14  16
HETATM   16  O   UNK N   1      33.204  15.318   6.443  0.00  0.00    -0.776 OA
HETATM   17  H   UNK N   1      32.956  15.873   5.731  0.00  0.00     0.167 HD
ENDBRANCH  14  16
ENDBRANCH   1  14
TORSDOF 9
ENDMDL
