MODEL 1
REMARK VINA RESULT:      -7.1      0.000      0.000
REMARK  9 active torsions:
REMARK  status: ('A' for Active; 'I' for Inactive)
REMARK    1  A    between atoms: C_8  and  C_5 
REMARK    2  A    between atoms: C_9  and  C_5 
REMARK    3  A    between atoms: C_14  and  C_9 
REMARK    4  A    between atoms: C_9  and  N_15 
REMARK    5  A    between atoms: N_18  and  C_10 
REMARK    6  A    between atoms: O_21  and  C_12 
REMARK    7  A    between atoms: N_19  and  C_13 
REMARK    8  A    between atoms: O_23  and  C_14 
REMARK    9  A    between atoms: N_19  and  N_18 
ROOT
HETATM    1  C   UNK N   1      31.189  16.678   6.560  0.00  0.00     0.020 C 
HETATM    2  C   UNK N   1      33.160  17.636   4.706  0.00  0.00     0.089 C 
HETATM    3  C   UNK N   1      32.633  16.650   7.027  0.00  0.00     0.087 C 
HETATM    4  C   UNK N   1      30.866  16.966   5.276  0.00  0.00     0.078 C 
HETATM    5  C   UNK N   1      33.525  17.477   6.121  0.00  0.00     0.159 C 
HETATM    6  C   UNK N   1      31.915  17.371   4.304  0.00  0.00     0.097 C 
HETATM    7  O   UNK N   1      34.542  18.007   6.538  0.00  0.00    -0.292 OA
ENDROOT
BRANCH   4   8
HETATM    8  N   UNK N   1      29.528  16.859   4.811  0.00  0.00    -0.297 N 
HETATM    9  H   UNK N   1      29.053  16.005   4.932  0.00  0.00     0.187 HD
BRANCH   8  10
HETATM   10  N   UNK N   1      28.866  17.897   4.202  0.00  0.00    -0.285 N 
HETATM   11  H   UNK N   1      28.823  17.941   3.219  0.00  0.00     0.188 HD
BRANCH  10  12
HETATM   12  C   UNK N   1      28.245  18.906   4.981  0.00  0.00     0.119 A 
HETATM   13  C   UNK N   1      27.625  20.002   4.360  0.00  0.00     0.050 A 
HETATM   14  C   UNK N   1      27.006  20.976   5.143  0.00  0.00     0.005 A 
HETATM   15  C   UNK N   1      27.007  20.851   6.532  0.00  0.00     0.017 A 
HETATM   16  C   UNK N   1      27.633  19.747   7.118  0.00  0.00     0.089 A 
HETATM   17  N   UNK N   1      28.233  18.806   6.337  0.00  0.00    -0.351 N 
ATOM     18  HN  UNK N   1      28.685  18.006   6.780  1.00  0.00     0.166 HD
ENDBRANCH  10  12
ENDBRANCH   8  10
ENDBRANCH   4   8
BRANCH   6  19
HETATM   19  O   UNK N   1      31.596  17.528   3.005  0.00  0.00    -0.358 OA
HETATM   20  H   UNK N   1      31.960  16.959   2.356  0.00  0.00     0.217 HD
ENDBRANCH   6  19
BRANCH   3  21
HETATM   21  C   UNK N   1      32.780  16.952   8.531  0.00  0.00     0.052 C 
BRANCH  21  22
HETATM   22  C   UNK N   1      33.946  16.194   9.201  0.00  0.00     0.174 C 
BRANCH  22  23
HETATM   23  C   UNK N   1      33.449  14.948   9.883  0.00  0.00     0.163 C 
HETATM   24  O   UNK N   1      33.186  13.945   9.236  0.00  0.00    -0.648 OA
BRANCH  23  25
HETATM   25  O   UNK N   1      33.259  14.945  11.216  0.00  0.00    -0.775 OA
HETATM   26  H   UNK N   1      32.660  14.341  11.610  0.00  0.00     0.167 HD
ENDBRANCH  23  25
ENDBRANCH  22  23
BRANCH  22  27
HETATM   27  N   UNK N   1      34.643  17.043  10.155  0.00  0.00    -0.418 N 
HETATM   28  H   UNK N   1      34.841  16.704  11.096  0.00  0.00     0.150 HD
HETATM   29  H   UNK N   1      34.934  17.982   9.882  0.00  0.00     0.150 HD
ENDBRANCH  22  27
ENDBRANCH  21  22
ENDBRANCH   3  21
TORSDOF 9
ENDMDL
MODEL 2
REMARK VINA RESULT:      -6.7      8.728     10.076
REMARK  9 active torsions:
REMARK  status: ('A' for Active; 'I' for Inactive)
REMARK    1  A    between atoms: C_8  and  C_5 
REMARK    2  A    between atoms: C_9  and  C_5 
REMARK    3  A    between atoms: C_14  and  C_9 
REMARK    4  A    between atoms: C_9  and  N_15 
REMARK    5  A    between atoms: N_18  and  C_10 
REMARK    6  A    between atoms: O_21  and  C_12 
REMARK    7  A    between atoms: N_19  and  C_13 
REMARK    8  A    between atoms: O_23  and  C_14 
REMARK    9  A    between atoms: N_19  and  N_18 
ROOT
HETATM    1  C   UNK N   1      22.626  14.221   7.847  0.00  0.00     0.020 C 
HETATM    2  C   UNK N   1      20.196  15.319   8.911  0.00  0.00     0.089 C 
HETATM    3  C   UNK N   1      22.192  13.720   9.213  0.00  0.00     0.087 C 
HETATM    4  C   UNK N   1      22.002  15.261   7.245  0.00  0.00     0.078 C 
HETATM    5  C   UNK N   1      20.755  14.101   9.514  0.00  0.00     0.159 C 
HETATM    6  C   UNK N   1      20.797  15.880   7.858  0.00  0.00     0.097 C 
HETATM    7  O   UNK N   1      20.056  13.426  10.251  0.00  0.00    -0.292 OA
ENDROOT
BRANCH   4   8
HETATM    8  N   UNK N   1      22.493  15.813   6.032  0.00  0.00    -0.297 N 
HETATM    9  H   UNK N   1      22.358  15.310   5.196  0.00  0.00     0.187 HD
BRANCH   8  10
HETATM   10  N   UNK N   1      23.149  17.018   5.973  0.00  0.00    -0.285 N 
HETATM   11  H   UNK N   1      23.898  17.199   6.586  0.00  0.00     0.188 HD
BRANCH  10  12
HETATM   12  C   UNK N   1      22.751  18.004   5.035  0.00  0.00     0.119 A 
HETATM   13  C   UNK N   1      23.713  18.700   4.285  0.00  0.00     0.050 A 
HETATM   14  C   UNK N   1      23.301  19.656   3.357  0.00  0.00     0.005 A 
HETATM   15  C   UNK N   1      21.941  19.907   3.180  0.00  0.00     0.017 A 
HETATM   16  C   UNK N   1      21.010  19.195   3.942  0.00  0.00     0.089 A 
HETATM   17  N   UNK N   1      21.430  18.267   4.845  0.00  0.00    -0.351 N 
ATOM     18  HN  UNK N   1      20.738  17.756   5.393  1.00  0.00     0.166 HD
ENDBRANCH  10  12
ENDBRANCH   8  10
ENDBRANCH   4   8
BRANCH   6  19
HETATM   19  O   UNK N   1      20.267  16.991   7.313  0.00  0.00    -0.358 OA
HETATM   20  H   UNK N   1      19.380  17.233   7.499  0.00  0.00     0.217 HD
ENDBRANCH   6  19
BRANCH   3  21
HETATM   21  C   UNK N   1      22.526  12.232   9.437  0.00  0.00     0.052 C 
BRANCH  21  22
HETATM   22  C   UNK N   1      23.632  12.000  10.488  0.00  0.00     0.174 C 
BRANCH  22  23
HETATM   23  C   UNK N   1      23.046  11.929  11.872  0.00  0.00     0.163 C 
HETATM   24  O   UNK N   1      23.753  12.079  12.857  0.00  0.00    -0.648 OA
BRANCH  23  25
HETATM   25  O   UNK N   1      21.735  11.662  12.031  0.00  0.00    -0.775 OA
HETATM   26  H   UNK N   1      21.419  10.782  11.976  0.00  0.00     0.167 HD
ENDBRANCH  23  25
ENDBRANCH  22  23
BRANCH  22  27
HETATM   27  N   UNK N   1      24.642  13.046  10.425  0.00  0.00    -0.418 N 
HETATM   28  H   UNK N   1      24.862  13.495   9.536  0.00  0.00     0.150 HD
HETATM   29  H   UNK N   1      25.132  13.330  11.273  0.00  0.00     0.150 HD
ENDBRANCH  22  27
ENDBRANCH  21  22
ENDBRANCH   3  21
TORSDOF 9
ENDMDL
MODEL 3
REMARK VINA RESULT:      -6.6      2.492      4.292
REMARK  9 active torsions:
REMARK  status: ('A' for Active; 'I' for Inactive)
REMARK    1  A    between atoms: C_8  and  C_5 
REMARK    2  A    between atoms: C_9  and  C_5 
REMARK    3  A    between atoms: C_14  and  C_9 
REMARK    4  A    between atoms: C_9  and  N_15 
REMARK    5  A    between atoms: N_18  and  C_10 
REMARK    6  A    between atoms: O_21  and  C_12 
REMARK    7  A    between atoms: N_19  and  C_13 
REMARK    8  A    between atoms: O_23  and  C_14 
REMARK    9  A    between atoms: N_19  and  N_18 
ROOT
HETATM    1  C   UNK N   1      31.248  17.092   5.824  0.00  0.00     0.020 C 
HETATM    2  C   UNK N   1      32.761  17.932   8.115  0.00  0.00     0.089 C 
HETATM    3  C   UNK N   1      32.665  17.572   5.567  0.00  0.00     0.087 C 
HETATM    4  C   UNK N   1      30.667  17.225   7.041  0.00  0.00     0.078 C 
HETATM    5  C   UNK N   1      33.463  17.662   6.853  0.00  0.00     0.159 C 
HETATM    6  C   UNK N   1      31.440  17.750   8.197  0.00  0.00     0.097 C 
HETATM    7  O   UNK N   1      34.675  17.524   6.862  0.00  0.00    -0.292 OA
ENDROOT
BRANCH   4   8
HETATM    8  N   UNK N   1      29.299  16.900   7.244  0.00  0.00    -0.297 N 
HETATM    9  H   UNK N   1      28.996  15.986   7.036  0.00  0.00     0.187 HD
BRANCH   8  10
HETATM   10  N   UNK N   1      28.381  17.803   7.719  0.00  0.00    -0.285 N 
HETATM   11  H   UNK N   1      28.037  17.717   8.637  0.00  0.00     0.188 HD
BRANCH  10  12
HETATM   12  C   UNK N   1      27.924  18.861   6.892  0.00  0.00     0.119 A 
HETATM   13  C   UNK N   1      28.126  18.816   5.503  0.00  0.00     0.050 A 
HETATM   14  C   UNK N   1      27.656  19.858   4.705  0.00  0.00     0.005 A 
HETATM   15  C   UNK N   1      26.987  20.931   5.293  0.00  0.00     0.017 A 
HETATM   16  C   UNK N   1      26.801  20.944   6.678  0.00  0.00     0.089 A 
HETATM   17  N   UNK N   1      27.269  19.918   7.441  0.00  0.00    -0.351 N 
ATOM     18  HN  UNK N   1      27.124  19.942   8.451  1.00  0.00     0.166 HD
ENDBRANCH  10  12
ENDBRANCH   8  10
ENDBRANCH   4   8
BRANCH   6  19
HETATM   19  O   UNK N   1      30.813  17.996   9.363  0.00  0.00    -0.358 OA
HETATM   20  H   UNK N   1      29.880  17.933   9.421  0.00  0.00     0.217 HD
ENDBRANCH   6  19
BRANCH   3  21
HETATM   21  C   UNK N   1      33.358  16.799   4.427  0.00  0.00     0.052 C 
BRANCH  21  22
HETATM   22  C   UNK N   1      32.372  16.157   3.429  0.00  0.00     0.174 C 
BRANCH  22  23
HETATM   23  C   UNK N   1      32.968  14.920   2.813  0.00  0.00     0.163 C 
HETATM   24  O   UNK N   1      32.483  13.819   3.030  0.00  0.00    -0.648 OA
BRANCH  23  25
HETATM   25  O   UNK N   1      34.067  15.019   2.041  0.00  0.00    -0.775 OA
HETATM   26  H   UNK N   1      33.990  15.190   1.123  0.00  0.00     0.167 HD
ENDBRANCH  23  25
ENDBRANCH  22  23
BRANCH  22  27
HETATM   27  N   UNK N   1      31.991  17.100   2.389  0.00  0.00    -0.418 N 
HETATM   28  H   UNK N   1      31.021  17.162   2.081  0.00  0.00     0.150 HD
HETATM   29  H   UNK N   1      32.698  17.702   1.965  0.00  0.00     0.150 HD
ENDBRANCH  22  27
ENDBRANCH  21  22
ENDBRANCH   3  21
TORSDOF 9
ENDMDL
MODEL 4
REMARK VINA RESULT:      -6.5     11.307     14.286
REMARK  9 active torsions:
REMARK  status: ('A' for Active; 'I' for Inactive)
REMARK    1  A    between atoms: C_8  and  C_5 
REMARK    2  A    between atoms: C_9  and  C_5 
REMARK    3  A    between atoms: C_14  and  C_9 
REMARK    4  A    between atoms: C_9  and  N_15 
REMARK    5  A    between atoms: N_18  and  C_10 
REMARK    6  A    between atoms: O_21  and  C_12 
REMARK    7  A    between atoms: N_19  and  C_13 
REMARK    8  A    between atoms: O_23  and  C_14 
REMARK    9  A    between atoms: N_19  and  N_18 
ROOT
HETATM    1  C   UNK N   1      28.032  24.770  -3.816  0.00  0.00     0.020 C 
HETATM    2  C   UNK N   1      26.639  23.885  -6.165  0.00  0.00     0.089 C 
HETATM    3  C   UNK N   1      28.579  23.535  -4.508  0.00  0.00     0.087 C 
HETATM    4  C   UNK N   1      26.847  25.318  -4.179  0.00  0.00     0.078 C 
HETATM    5  C   UNK N   1      27.986  23.366  -5.894  0.00  0.00     0.159 C 
HETATM    6  C   UNK N   1      26.092  24.786  -5.344  0.00  0.00     0.097 C 
HETATM    7  O   UNK N   1      28.599  22.802  -6.785  0.00  0.00    -0.292 OA
ENDROOT
BRANCH   4   8
HETATM    8  N   UNK N   1      26.275  26.390  -3.444  0.00  0.00    -0.297 N 
HETATM    9  H   UNK N   1      26.341  26.377  -2.461  0.00  0.00     0.187 HD
BRANCH   8  10
HETATM   10  N   UNK N   1      25.634  27.446  -4.043  0.00  0.00    -0.285 N 
HETATM   11  H   UNK N   1      24.684  27.367  -4.290  0.00  0.00     0.188 HD
BRANCH  10  12
HETATM   12  C   UNK N   1      26.334  28.650  -4.310  0.00  0.00     0.119 A 
HETATM   13  C   UNK N   1      27.299  28.701  -5.329  0.00  0.00     0.050 A 
HETATM   14  C   UNK N   1      27.965  29.899  -5.586  0.00  0.00     0.005 A 
HETATM   15  C   UNK N   1      27.666  31.032  -4.831  0.00  0.00     0.017 A 
HETATM   16  C   UNK N   1      26.699  30.948  -3.825  0.00  0.00     0.089 A 
HETATM   17  N   UNK N   1      26.060  29.769  -3.587  0.00  0.00    -0.351 N 
ATOM     18  HN  UNK N   1      25.357  29.724  -2.850  1.00  0.00     0.166 HD
ENDBRANCH  10  12
ENDBRANCH   8  10
ENDBRANCH   4   8
BRANCH   6  19
HETATM   19  O   UNK N   1      24.859  25.257  -5.611  0.00  0.00    -0.358 OA
HETATM   20  H   UNK N   1      24.109  24.705  -5.505  0.00  0.00     0.217 HD
ENDBRANCH   6  19
BRANCH   3  21
HETATM   21  C   UNK N   1      30.117  23.448  -4.447  0.00  0.00     0.052 C 
BRANCH  21  22
HETATM   22  C   UNK N   1      30.638  22.082  -3.952  0.00  0.00     0.174 C 
BRANCH  22  23
HETATM   23  C   UNK N   1      31.211  22.201  -2.566  0.00  0.00     0.163 C 
HETATM   24  O   UNK N   1      30.751  23.003  -1.767  0.00  0.00    -0.648 OA
BRANCH  23  25
HETATM   25  O   UNK N   1      32.265  21.440  -2.210  0.00  0.00    -0.775 OA
HETATM   26  H   UNK N   1      32.528  20.714  -2.740  0.00  0.00     0.167 HD
ENDBRANCH  23  25
ENDBRANCH  22  23
BRANCH  22  27
HETATM   27  N   UNK N   1      31.636  21.541  -4.862  0.00  0.00    -0.418 N 
HETATM   28  H   UNK N   1      31.691  21.877  -5.824  0.00  0.00     0.150 HD
HETATM   29  H   UNK N   1      32.283  20.822  -4.538  0.00  0.00     0.150 HD
ENDBRANCH  22  27
ENDBRANCH  21  22
ENDBRANCH   3  21
TORSDOF 9
ENDMDL
MODEL 5
REMARK VINA RESULT:      -6.5      2.903      8.301
REMARK  9 active torsions:
REMARK  status: ('A' for Active; 'I' for Inactive)
REMARK    1  A    between atoms: C_8  and  C_5 
REMARK    2  A    between atoms: C_9  and  C_5 
REMARK    3  A    between atoms: C_14  and  C_9 
REMARK    4  A    between atoms: C_9  and  N_15 
REMARK    5  A    between atoms: N_18  and  C_10 
REMARK    6  A    between atoms: O_21  and  C_12 
REMARK    7  A    between atoms: N_19  and  C_13 
REMARK    8  A    between atoms: O_23  and  C_14 
REMARK    9  A    between atoms: N_19  and  N_18 
ROOT
HETATM    1  C   UNK N   1      32.617  15.514   8.446  0.00  0.00     0.020 C 
HETATM    2  C   UNK N   1      34.504  17.678   8.436  0.00  0.00     0.089 C 
HETATM    3  C   UNK N   1      32.515  16.502   7.298  0.00  0.00     0.087 C 
HETATM    4  C   UNK N   1      33.432  15.742   9.504  0.00  0.00     0.078 C 
HETATM    5  C   UNK N   1      33.747  17.382   7.211  0.00  0.00     0.159 C 
HETATM    6  C   UNK N   1      34.337  16.921   9.524  0.00  0.00     0.097 C 
HETATM    7  O   UNK N   1      34.120  17.856   6.151  0.00  0.00    -0.292 OA
ENDROOT
BRANCH   4   8
HETATM    8  N   UNK N   1      33.424  14.886  10.638  0.00  0.00    -0.297 N 
HETATM    9  H   UNK N   1      32.714  14.999  11.310  0.00  0.00     0.187 HD
BRANCH   8  10
HETATM   10  N   UNK N   1      34.364  13.905  10.837  0.00  0.00    -0.285 N 
HETATM   11  H   UNK N   1      34.582  13.280  10.108  0.00  0.00     0.188 HD
BRANCH  10  12
HETATM   12  C   UNK N   1      35.023  13.788  12.087  0.00  0.00     0.119 A 
HETATM   13  C   UNK N   1      34.923  12.604  12.835  0.00  0.00     0.050 A 
HETATM   14  C   UNK N   1      35.590  12.502  14.055  0.00  0.00     0.005 A 
HETATM   15  C   UNK N   1      36.352  13.574  14.517  0.00  0.00     0.017 A 
HETATM   16  C   UNK N   1      36.433  14.738  13.747  0.00  0.00     0.089 A 
HETATM   17  N   UNK N   1      35.773  14.820  12.559  0.00  0.00    -0.351 N 
ATOM     18  HN  UNK N   1      35.842  15.676  12.009  1.00  0.00     0.166 HD
ENDBRANCH  10  12
ENDBRANCH   8  10
ENDBRANCH   4   8
BRANCH   6  19
HETATM   19  O   UNK N   1      35.044  17.202  10.635  0.00  0.00    -0.358 OA
HETATM   20  H   UNK N   1      35.904  16.849  10.751  0.00  0.00     0.217 HD
ENDBRANCH   6  19
BRANCH   3  21
HETATM   21  C   UNK N   1      32.103  15.833   5.971  0.00  0.00     0.052 C 
BRANCH  21  22
HETATM   22  C   UNK N   1      30.781  16.378   5.392  0.00  0.00     0.174 C 
BRANCH  22  23
HETATM   23  C   UNK N   1      31.015  17.041   4.061  0.00  0.00     0.163 C 
HETATM   24  O   UNK N   1      30.346  16.734   3.085  0.00  0.00    -0.648 OA
BRANCH  23  25
HETATM   25  O   UNK N   1      31.993  17.957   3.933  0.00  0.00    -0.775 OA
HETATM   26  H   UNK N   1      31.785  18.855   3.762  0.00  0.00     0.167 HD
ENDBRANCH  23  25
ENDBRANCH  22  23
BRANCH  22  27
HETATM   27  N   UNK N   1      30.151  17.312   6.312  0.00  0.00    -0.418 N 
HETATM   28  H   UNK N   1      29.734  18.175   5.964  0.00  0.00     0.150 HD
HETATM   29  H   UNK N   1      30.126  17.103   7.311  0.00  0.00     0.150 HD
ENDBRANCH  22  27
ENDBRANCH  21  22
ENDBRANCH   3  21
TORSDOF 9
ENDMDL
MODEL 6
REMARK VINA RESULT:      -6.5      1.973      2.607
REMARK  9 active torsions:
REMARK  status: ('A' for Active; 'I' for Inactive)
REMARK    1  A    between atoms: C_8  and  C_5 
REMARK    2  A    between atoms: C_9  and  C_5 
REMARK    3  A    between atoms: C_14  and  C_9 
REMARK    4  A    between atoms: C_9  and  N_15 
REMARK    5  A    between atoms: N_18  and  C_10 
REMARK    6  A    between atoms: O_21  and  C_12 
REMARK    7  A    between atoms: N_19  and  C_13 
REMARK    8  A    between atoms: O_23  and  C_14 
REMARK    9  A    between atoms: N_19  and  N_18 
ROOT
HETATM    1  C   UNK N   1      30.374  17.288   6.916  0.00  0.00     0.020 C 
HETATM    2  C   UNK N   1      31.408  17.326   4.238  0.00  0.00     0.089 C 
HETATM    3  C   UNK N   1      31.877  17.139   6.763  0.00  0.00     0.087 C 
HETATM    4  C   UNK N   1      29.548  17.256   5.843  0.00  0.00     0.078 C 
HETATM    5  C   UNK N   1      32.333  17.509   5.365  0.00  0.00     0.159 C 
HETATM    6  C   UNK N   1      30.099  17.182   4.464  0.00  0.00     0.097 C 
HETATM    7  O   UNK N   1      33.452  17.947   5.153  0.00  0.00    -0.292 OA
ENDROOT
BRANCH   4   8
HETATM    8  N   UNK N   1      28.136  17.261   6.000  0.00  0.00    -0.297 N 
HETATM    9  H   UNK N   1      27.650  16.408   5.920  0.00  0.00     0.187 HD
BRANCH   8  10
HETATM   10  N   UNK N   1      27.419  18.402   6.259  0.00  0.00    -0.285 N 
HETATM   11  H   UNK N   1      27.459  18.813   7.153  0.00  0.00     0.188 HD
BRANCH  10  12
HETATM   12  C   UNK N   1      26.621  18.992   5.247  0.00  0.00     0.119 A 
HETATM   13  C   UNK N   1      27.188  19.884   4.323  0.00  0.00     0.050 A 
HETATM   14  C   UNK N   1      26.389  20.442   3.325  0.00  0.00     0.005 A 
HETATM   15  C   UNK N   1      25.038  20.105   3.252  0.00  0.00     0.017 A 
HETATM   16  C   UNK N   1      24.505  19.212   4.186  0.00  0.00     0.089 A 
HETATM   17  N   UNK N   1      25.300  18.679   5.155  0.00  0.00    -0.351 N 
ATOM     18  HN  UNK N   1      24.896  18.028   5.828  1.00  0.00     0.166 HD
ENDBRANCH  10  12
ENDBRANCH   8  10
ENDBRANCH   4   8
BRANCH   6  19
HETATM   19  O   UNK N   1      29.265  17.022   3.419  0.00  0.00    -0.358 OA
HETATM   20  H   UNK N   1      28.540  17.604   3.300  0.00  0.00     0.217 HD
ENDBRANCH   6  19
BRANCH   3  21
HETATM   21  C   UNK N   1      32.663  17.820   7.901  0.00  0.00     0.052 C 
BRANCH  21  22
HETATM   22  C   UNK N   1      33.784  16.937   8.490  0.00  0.00     0.174 C 
BRANCH  22  23
HETATM   23  C   UNK N   1      34.881  17.787   9.072  0.00  0.00     0.163 C 
HETATM   24  O   UNK N   1      35.465  17.442  10.089  0.00  0.00    -0.648 OA
BRANCH  23  25
HETATM   25  O   UNK N   1      35.203  18.958   8.489  0.00  0.00    -0.775 OA
HETATM   26  H   UNK N   1      34.543  19.602   8.321  0.00  0.00     0.167 HD
ENDBRANCH  23  25
ENDBRANCH  22  23
BRANCH  22  27
HETATM   27  N   UNK N   1      34.327  16.039   7.483  0.00  0.00    -0.418 N 
HETATM   28  H   UNK N   1      35.289  15.706   7.556  0.00  0.00     0.150 HD
HETATM   29  H   UNK N   1      33.745  15.741   6.700  0.00  0.00     0.150 HD
ENDBRANCH  22  27
ENDBRANCH  21  22
ENDBRANCH   3  21
TORSDOF 9
ENDMDL
MODEL 7
REMARK VINA RESULT:      -6.5      2.789      4.185
REMARK  9 active torsions:
REMARK  status: ('A' for Active; 'I' for Inactive)
REMARK    1  A    between atoms: C_8  and  C_5 
REMARK    2  A    between atoms: C_9  and  C_5 
REMARK    3  A    between atoms: C_14  and  C_9 
REMARK    4  A    between atoms: C_9  and  N_15 
REMARK    5  A    between atoms: N_18  and  C_10 
REMARK    6  A    between atoms: O_21  and  C_12 
REMARK    7  A    between atoms: N_19  and  C_13 
REMARK    8  A    between atoms: O_23  and  C_14 
REMARK    9  A    between atoms: N_19  and  N_18 
ROOT
HETATM    1  C   UNK N   1      29.513  17.255   6.116  0.00  0.00     0.020 C 
HETATM    2  C   UNK N   1      29.879  17.735   8.922  0.00  0.00     0.089 C 
HETATM    3  C   UNK N   1      30.930  17.143   6.647  0.00  0.00     0.087 C 
HETATM    4  C   UNK N   1      28.506  17.734   6.885  0.00  0.00     0.078 C 
HETATM    5  C   UNK N   1      30.952  17.079   8.163  0.00  0.00     0.159 C 
HETATM    6  C   UNK N   1      28.736  18.066   8.315  0.00  0.00     0.097 C 
HETATM    7  O   UNK N   1      31.844  16.504   8.764  0.00  0.00    -0.292 OA
ENDROOT
BRANCH   4   8
HETATM    8  N   UNK N   1      27.212  17.964   6.345  0.00  0.00    -0.297 N 
HETATM    9  H   UNK N   1      26.614  17.194   6.208  0.00  0.00     0.187 HD
BRANCH   8  10
HETATM   10  N   UNK N   1      26.757  19.215   6.007  0.00  0.00    -0.285 N 
HETATM   11  H   UNK N   1      27.198  20.014   6.378  0.00  0.00     0.188 HD
BRANCH  10  12
HETATM   12  C   UNK N   1      25.655  19.363   5.128  0.00  0.00     0.119 A 
HETATM   13  C   UNK N   1      25.709  20.282   4.068  0.00  0.00     0.050 A 
HETATM   14  C   UNK N   1      24.620  20.402   3.205  0.00  0.00     0.005 A 
HETATM   15  C   UNK N   1      23.492  19.606   3.401  0.00  0.00     0.017 A 
HETATM   16  C   UNK N   1      23.471  18.700   4.464  0.00  0.00     0.089 A 
HETATM   17  N   UNK N   1      24.543  18.598   5.298  0.00  0.00    -0.351 N 
ATOM     18  HN  UNK N   1      24.513  17.931   6.070  1.00  0.00     0.166 HD
ENDBRANCH  10  12
ENDBRANCH   8  10
ENDBRANCH   4   8
BRANCH   6  19
HETATM   19  O   UNK N   1      27.761  18.660   9.029  0.00  0.00    -0.358 OA
HETATM   20  H   UNK N   1      27.926  18.956   9.903  0.00  0.00     0.217 HD
ENDBRANCH   6  19
BRANCH   3  21
HETATM   21  C   UNK N   1      31.746  16.041   5.942  0.00  0.00     0.052 C 
BRANCH  21  22
HETATM   22  C   UNK N   1      32.922  16.586   5.104  0.00  0.00     0.174 C 
BRANCH  22  23
HETATM   23  C   UNK N   1      34.104  16.897   5.982  0.00  0.00     0.163 C 
HETATM   24  O   UNK N   1      34.937  16.039   6.233  0.00  0.00    -0.648 OA
BRANCH  23  25
HETATM   25  O   UNK N   1      34.230  18.122   6.528  0.00  0.00    -0.775 OA
HETATM   26  H   UNK N   1      33.831  18.866   6.122  0.00  0.00     0.167 HD
ENDBRANCH  23  25
ENDBRANCH  22  23
BRANCH  22  27
HETATM   27  N   UNK N   1      32.528  17.772   4.358  0.00  0.00    -0.418 N 
HETATM   28  H   UNK N   1      33.059  18.638   4.451  0.00  0.00     0.150 HD
HETATM   29  H   UNK N   1      31.717  17.737   3.739  0.00  0.00     0.150 HD
ENDBRANCH  22  27
ENDBRANCH  21  22
ENDBRANCH   3  21
TORSDOF 9
ENDMDL
MODEL 8
REMARK VINA RESULT:      -6.3      5.710     10.603
REMARK  9 active torsions:
REMARK  status: ('A' for Active; 'I' for Inactive)
REMARK    1  A    between atoms: C_8  and  C_5 
REMARK    2  A    between atoms: C_9  and  C_5 
REMARK    3  A    between atoms: C_14  and  C_9 
REMARK    4  A    between atoms: C_9  and  N_15 
REMARK    5  A    between atoms: N_18  and  C_10 
REMARK    6  A    between atoms: O_21  and  C_12 
REMARK    7  A    between atoms: N_19  and  C_13 
REMARK    8  A    between atoms: O_23  and  C_14 
REMARK    9  A    between atoms: N_19  and  N_18 
ROOT
HETATM    1  C   UNK N   1      35.453  14.563  11.301  0.00  0.00     0.020 C 
HETATM    2  C   UNK N   1      37.879  13.170  10.657  0.00  0.00     0.089 C 
HETATM    3  C   UNK N   1      36.226  15.063  10.094  0.00  0.00     0.087 C 
HETATM    4  C   UNK N   1      35.971  13.631  12.136  0.00  0.00     0.078 C 
HETATM    5  C   UNK N   1      37.280  14.064   9.656  0.00  0.00     0.159 C 
HETATM    6  C   UNK N   1      37.276  12.985  11.835  0.00  0.00     0.097 C 
HETATM    7  O   UNK N   1      37.647  13.990   8.495  0.00  0.00    -0.292 OA
ENDROOT
BRANCH   4   8
HETATM    8  N   UNK N   1      35.305  13.264  13.336  0.00  0.00    -0.297 N 
HETATM    9  H   UNK N   1      34.484  12.723  13.273  0.00  0.00     0.187 HD
BRANCH   8  10
HETATM   10  N   UNK N   1      35.755  13.630  14.580  0.00  0.00    -0.285 N 
HETATM   11  H   UNK N   1      36.040  14.558  14.745  0.00  0.00     0.188 HD
BRANCH  10  12
HETATM   12  C   UNK N   1      35.814  12.678  15.629  0.00  0.00     0.119 A 
HETATM   13  C   UNK N   1      35.190  12.937  16.860  0.00  0.00     0.050 A 
HETATM   14  C   UNK N   1      35.246  11.981  17.874  0.00  0.00     0.005 A 
HETATM   15  C   UNK N   1      35.916  10.778  17.654  0.00  0.00     0.017 A 
HETATM   16  C   UNK N   1      36.524  10.551  16.416  0.00  0.00     0.089 A 
HETATM   17  N   UNK N   1      36.461  11.497  15.438  0.00  0.00    -0.351 N 
ATOM     18  HN  UNK N   1      36.910  11.316  14.540  1.00  0.00     0.166 HD
ENDBRANCH  10  12
ENDBRANCH   8  10
ENDBRANCH   4   8
BRANCH   6  19
HETATM   19  O   UNK N   1      37.836  12.158  12.738  0.00  0.00    -0.358 OA
HETATM   20  H   UNK N   1      37.375  11.932  13.522  0.00  0.00     0.217 HD
ENDBRANCH   6  19
BRANCH   3  21
HETATM   21  C   UNK N   1      35.307  15.570   8.965  0.00  0.00     0.052 C 
BRANCH  21  22
HETATM   22  C   UNK N   1      34.579  16.887   9.307  0.00  0.00     0.174 C 
BRANCH  22  23
HETATM   23  C   UNK N   1      34.780  17.906   8.218  0.00  0.00     0.163 C 
HETATM   24  O   UNK N   1      34.568  17.620   7.049  0.00  0.00    -0.648 OA
BRANCH  23  25
HETATM   25  O   UNK N   1      35.233  19.136   8.528  0.00  0.00    -0.775 OA
HETATM   26  H   UNK N   1      35.446  19.749   7.852  0.00  0.00     0.167 HD
ENDBRANCH  23  25
ENDBRANCH  22  23
BRANCH  22  27
HETATM   27  N   UNK N   1      35.033  17.420  10.582  0.00  0.00    -0.418 N 
HETATM   28  H   UNK N   1      36.017  17.653  10.721  0.00  0.00     0.150 HD
HETATM   29  H   UNK N   1      34.366  17.561  11.341  0.00  0.00     0.150 HD
ENDBRANCH  22  27
ENDBRANCH  21  22
ENDBRANCH   3  21
TORSDOF 9
ENDMDL
MODEL 9
REMARK VINA RESULT:      -6.3     11.509     13.271
REMARK  9 active torsions:
REMARK  status: ('A' for Active; 'I' for Inactive)
REMARK    1  A    between atoms: C_8  and  C_5 
REMARK    2  A    between atoms: C_9  and  C_5 
REMARK    3  A    between atoms: C_14  and  C_9 
REMARK    4  A    between atoms: C_9  and  N_15 
REMARK    5  A    between atoms: N_18  and  C_10 
REMARK    6  A    between atoms: O_21  and  C_12 
REMARK    7  A    between atoms: N_19  and  C_13 
REMARK    8  A    between atoms: O_23  and  C_14 
REMARK    9  A    between atoms: N_19  and  N_18 
ROOT
HETATM    1  C   UNK N   1      29.511  23.947  -4.823  0.00  0.00     0.020 C 
HETATM    2  C   UNK N   1      28.421  23.554  -2.197  0.00  0.00     0.089 C 
HETATM    3  C   UNK N   1      30.496  23.951  -3.669  0.00  0.00     0.087 C 
HETATM    4  C   UNK N   1      28.173  23.942  -4.611  0.00  0.00     0.078 C 
HETATM    5  C   UNK N   1      29.869  23.406  -2.400  0.00  0.00     0.159 C 
HETATM    6  C   UNK N   1      27.625  23.831  -3.233  0.00  0.00     0.097 C 
HETATM    7  O   UNK N   1      30.539  22.855  -1.542  0.00  0.00    -0.292 OA
ENDROOT
BRANCH   4   8
HETATM    8  N   UNK N   1      27.255  24.073  -5.687  0.00  0.00    -0.297 N 
HETATM    9  H   UNK N   1      27.383  23.513  -6.487  0.00  0.00     0.187 HD
BRANCH   8  10
HETATM   10  N   UNK N   1      26.196  24.946  -5.660  0.00  0.00    -0.285 N 
HETATM   11  H   UNK N   1      25.282  24.613  -5.813  0.00  0.00     0.188 HD
BRANCH  10  12
HETATM   12  C   UNK N   1      26.412  26.326  -5.415  0.00  0.00     0.119 A 
HETATM   13  C   UNK N   1      27.112  27.113  -6.344  0.00  0.00     0.050 A 
HETATM   14  C   UNK N   1      27.301  28.471  -6.091  0.00  0.00     0.005 A 
HETATM   15  C   UNK N   1      26.790  29.034  -4.922  0.00  0.00     0.017 A 
HETATM   16  C   UNK N   1      26.097  28.224  -4.019  0.00  0.00     0.089 A 
HETATM   17  N   UNK N   1      25.924  26.899  -4.282  0.00  0.00    -0.351 N 
ATOM     18  HN  UNK N   1      25.415  26.321  -3.613  1.00  0.00     0.166 HD
ENDBRANCH  10  12
ENDBRANCH   8  10
ENDBRANCH   4   8
BRANCH   6  19
HETATM   19  O   UNK N   1      26.300  23.956  -3.030  0.00  0.00    -0.358 OA
HETATM   20  H   UNK N   1      25.936  24.780  -2.772  0.00  0.00     0.217 HD
ENDBRANCH   6  19
BRANCH   3  21
HETATM   21  C   UNK N   1      31.854  23.323  -4.041  0.00  0.00     0.052 C 
BRANCH  21  22
HETATM   22  C   UNK N   1      31.730  21.933  -4.700  0.00  0.00     0.174 C 
BRANCH  22  23
HETATM   23  C   UNK N   1      32.395  20.881  -3.855  0.00  0.00     0.163 C 
HETATM   24  O   UNK N   1      32.800  19.842  -4.356  0.00  0.00    -0.648 OA
BRANCH  23  25
HETATM   25  O   UNK N   1      32.517  21.067  -2.527  0.00  0.00    -0.775 OA
HETATM   26  H   UNK N   1      32.113  21.803  -2.111  0.00  0.00     0.167 HD
ENDBRANCH  23  25
ENDBRANCH  22  23
BRANCH  22  27
HETATM   27  N   UNK N   1      32.301  21.936  -6.038  0.00  0.00    -0.418 N 
HETATM   28  H   UNK N   1      32.578  22.814  -6.478  0.00  0.00     0.150 HD
HETATM   29  H   UNK N   1      32.424  21.056  -6.540  0.00  0.00     0.150 HD
ENDBRANCH  22  27
ENDBRANCH  21  22
ENDBRANCH   3  21
TORSDOF 9
ENDMDL
