REMARK  4 active torsions:
REMARK  status: ('A' for Active; 'I' for Inactive)
REMARK    1  A    between atoms: C_2  and  C_4 
REMARK    2  A    between atoms: C_4  and  N_5 
REMARK    3  A    between atoms: C_4  and  C_9 
REMARK       I    between atoms: N_5  and  C_6 
REMARK       I    between atoms: C_6  and  N_7 
REMARK    4  A    between atoms: C_9  and  O_10 
ROOT
HETATM    1  C   UNK N   1       1.940  -1.223   0.000  0.00  0.00     0.187 C 
ENDROOT
BRANCH   1   2
HETATM    2  C   UNK N   1       1.533  -2.709  -0.000  0.00  0.00     0.010 C 
HETATM    3  C   UNK N   1       2.536  -3.848   0.000  0.00  0.00     0.012 C 
HETATM    4  C   UNK N   1       0.060  -3.082   0.000  0.00  0.00     0.012 C 
ENDBRANCH   1   2
BRANCH   1   5
HETATM    5  N   UNK N   1       0.788  -0.323   0.000  0.00  0.00    -0.329 N 
HETATM    6  C   UNK N   1       0.690   1.032  -0.000  0.00  0.00     0.314 C 
HETATM    7  N   UNK N   1      -0.534   1.593  -0.000  0.00  0.00    -0.352 N 
HETATM    8  O   UNK N   1       1.670   1.748   0.000  0.00  0.00    -0.248 OA
HETATM    9  H   UNK N   1      -0.627   2.573  -0.000  0.00  0.00     0.160 HD
HETATM   10  H   UNK N   1      -1.337   1.023  -0.000  0.00  0.00     0.160 HD
HETATM   11  H   UNK N   1      -0.081  -0.786  -0.000  0.00  0.00     0.165 HD
ENDBRANCH   1   5
BRANCH   1  12
HETATM   12  C   UNK N   1       3.405  -0.788  -0.000  0.00  0.00     0.164 C 
HETATM   13  O   UNK N   1       4.284  -1.635  -0.000  0.00  0.00    -0.648 OA
BRANCH  12  14
HETATM   14  O   UNK N   1       3.768   0.504   0.000  0.00  0.00    -0.775 OA
HETATM   15  H   UNK N   1       4.676   0.736   0.000  0.00  0.00     0.167 HD
ENDBRANCH  12  14
ENDBRANCH   1  12
TORSDOF 4
