MODEL 1
REMARK VINA RESULT:      -3.7      0.000      0.000
REMARK  5 active torsions:
REMARK  status: ('A' for Active; 'I' for Inactive)
REMARK    1  A    between atoms: C_4  and  C_2 
REMARK    2  A    between atoms: O_6  and  C_2 
REMARK    3  A    between atoms: C_4  and  C_3 
REMARK    4  A    between atoms: C_3  and  O_7 
REMARK    5  A    between atoms: C_4  and  N_5 
ROOT
HETATM    1  C   UNK N   1      23.423  11.720  11.288  0.00  0.00     0.126 C 
ENDROOT
BRANCH   1   2
HETATM    2  C   UNK N   1      24.529  12.375  10.459  0.00  0.00     0.191 C 
BRANCH   2   3
HETATM    3  O   UNK N   1      25.508  12.940  11.279  0.00  0.00    -0.399 OA
HETATM    4  H   UNK N   1      25.956  13.077  12.128  0.00  0.00     0.209 HD
ENDBRANCH   2   3
ENDBRANCH   1   2
BRANCH   1   5
HETATM    5  C   UNK N   1      22.031  11.990  10.691  0.00  0.00     0.138 C 
HETATM    6  C   UNK N   1      21.970  13.385  10.088  0.00  0.00     0.041 C 
BRANCH   5   7
HETATM    7  O   UNK N   1      21.055  11.890  11.681  0.00  0.00    -0.394 OA
HETATM    8  H   UNK N   1      21.014  12.151  12.614  0.00  0.00     0.210 HD
ENDBRANCH   5   7
ENDBRANCH   1   5
BRANCH   1   9
HETATM    9  N   UNK N   1      23.491  12.206  12.656  0.00  0.00    -0.422 N 
HETATM   10  H   UNK N   1      22.976  12.019  13.516  0.00  0.00     0.150 HD
HETATM   11  H   UNK N   1      24.229  12.898  12.787  0.00  0.00     0.150 HD
ENDBRANCH   1   9
TORSDOF 5
ENDMDL
MODEL 2
REMARK VINA RESULT:      -3.7     11.706     12.006
REMARK  5 active torsions:
REMARK  status: ('A' for Active; 'I' for Inactive)
REMARK    1  A    between atoms: C_4  and  C_2 
REMARK    2  A    between atoms: O_6  and  C_2 
REMARK    3  A    between atoms: C_4  and  C_3 
REMARK    4  A    between atoms: C_3  and  O_7 
REMARK    5  A    between atoms: C_4  and  N_5 
ROOT
HETATM    1  C   UNK N   1      20.354  20.083   2.154  0.00  0.00     0.126 C 
ENDROOT
BRANCH   1   2
HETATM    2  C   UNK N   1      21.734  20.287   2.781  0.00  0.00     0.191 C 
BRANCH   2   3
HETATM    3  O   UNK N   1      22.076  21.640   2.822  0.00  0.00    -0.399 OA
HETATM    4  H   UNK N   1      22.615  22.407   2.574  0.00  0.00     0.209 HD
ENDBRANCH   2   3
ENDBRANCH   1   2
BRANCH   1   5
HETATM    5  C   UNK N   1      19.689  18.790   2.657  0.00  0.00     0.138 C 
HETATM    6  C   UNK N   1      20.290  17.575   1.965  0.00  0.00     0.041 C 
BRANCH   5   7
HETATM    7  O   UNK N   1      18.320  18.819   2.394  0.00  0.00    -0.394 OA
HETATM    8  H   UNK N   1      17.572  19.305   2.776  0.00  0.00     0.210 HD
ENDBRANCH   5   7
ENDBRANCH   1   5
BRANCH   1   9
HETATM    9  N   UNK N   1      20.478  20.059   0.707  0.00  0.00    -0.422 N 
HETATM   10  H   UNK N   1      20.593  20.764  -0.021  0.00  0.00     0.150 HD
HETATM   11  H   UNK N   1      20.441  19.112   0.328  0.00  0.00     0.150 HD
ENDBRANCH   1   9
TORSDOF 5
ENDMDL
MODEL 3
REMARK VINA RESULT:      -3.6     10.882     12.077
REMARK  5 active torsions:
REMARK  status: ('A' for Active; 'I' for Inactive)
REMARK    1  A    between atoms: C_4  and  C_2 
REMARK    2  A    between atoms: O_6  and  C_2 
REMARK    3  A    between atoms: C_4  and  C_3 
REMARK    4  A    between atoms: C_3  and  O_7 
REMARK    5  A    between atoms: C_4  and  N_5 
ROOT
HETATM    1  C   UNK N   1      34.437  17.067   8.786  0.00  0.00     0.126 C 
ENDROOT
BRANCH   1   2
HETATM    2  C   UNK N   1      34.465  18.421   8.075  0.00  0.00     0.191 C 
BRANCH   2   3
HETATM    3  O   UNK N   1      35.413  19.273   8.646  0.00  0.00    -0.399 OA
HETATM    4  H   UNK N   1      36.043  20.010   8.624  0.00  0.00     0.209 HD
ENDBRANCH   2   3
ENDBRANCH   1   2
BRANCH   1   5
HETATM    5  C   UNK N   1      33.058  16.396   8.674  0.00  0.00     0.138 C 
HETATM    6  C   UNK N   1      31.977  17.435   8.416  0.00  0.00     0.041 C 
BRANCH   5   7
HETATM    7  O   UNK N   1      32.753  15.721   9.854  0.00  0.00    -0.394 OA
HETATM    8  H   UNK N   1      32.396  14.841  10.054  0.00  0.00     0.210 HD
ENDBRANCH   5   7
ENDBRANCH   1   5
BRANCH   1   9
HETATM    9  N   UNK N   1      34.802  17.246  10.181  0.00  0.00    -0.422 N 
HETATM   10  H   UNK N   1      35.065  18.040  10.765  0.00  0.00     0.150 HD
HETATM   11  H   UNK N   1      34.792  16.368  10.701  0.00  0.00     0.150 HD
ENDBRANCH   1   9
TORSDOF 5
ENDMDL
MODEL 4
REMARK VINA RESULT:      -3.6     11.702     12.517
REMARK  5 active torsions:
REMARK  status: ('A' for Active; 'I' for Inactive)
REMARK    1  A    between atoms: C_4  and  C_2 
REMARK    2  A    between atoms: O_6  and  C_2 
REMARK    3  A    between atoms: C_4  and  C_3 
REMARK    4  A    between atoms: C_3  and  O_7 
REMARK    5  A    between atoms: C_4  and  N_5 
ROOT
HETATM    1  C   UNK N   1      20.699  20.089   2.162  0.00  0.00     0.126 C 
ENDROOT
BRANCH   1   2
HETATM    2  C   UNK N   1      20.592  21.184   1.100  0.00  0.00     0.191 C 
BRANCH   2   3
HETATM    3  O   UNK N   1      20.593  20.642  -0.188  0.00  0.00    -0.399 OA
HETATM    4  H   UNK N   1      20.709  19.921  -0.826  0.00  0.00     0.209 HD
ENDBRANCH   2   3
ENDBRANCH   1   2
BRANCH   1   5
HETATM    5  C   UNK N   1      22.140  19.941   2.680  0.00  0.00     0.138 C 
HETATM    6  C   UNK N   1      22.165  19.132   3.968  0.00  0.00     0.041 C 
BRANCH   5   7
HETATM    7  O   UNK N   1      22.692  21.196   2.931  0.00  0.00    -0.394 OA
HETATM    8  H   UNK N   1      22.530  21.882   3.598  0.00  0.00     0.210 HD
ENDBRANCH   5   7
ENDBRANCH   1   5
BRANCH   1   9
HETATM    9  N   UNK N   1      20.228  18.831   1.609  0.00  0.00    -0.422 N 
HETATM   10  H   UNK N   1      20.476  17.849   1.732  0.00  0.00     0.150 HD
HETATM   11  H   UNK N   1      19.468  18.960   0.940  0.00  0.00     0.150 HD
ENDBRANCH   1   9
TORSDOF 5
ENDMDL
MODEL 5
REMARK VINA RESULT:      -3.6     10.796     11.642
REMARK  5 active torsions:
REMARK  status: ('A' for Active; 'I' for Inactive)
REMARK    1  A    between atoms: C_4  and  C_2 
REMARK    2  A    between atoms: O_6  and  C_2 
REMARK    3  A    between atoms: C_4  and  C_3 
REMARK    4  A    between atoms: C_3  and  O_7 
REMARK    5  A    between atoms: C_4  and  N_5 
ROOT
HETATM    1  C   UNK N   1      20.778  19.105   2.137  0.00  0.00     0.126 C 
ENDROOT
BRANCH   1   2
HETATM    2  C   UNK N   1      19.626  18.122   2.356  0.00  0.00     0.191 C 
BRANCH   2   3
HETATM    3  O   UNK N   1      18.402  18.789   2.443  0.00  0.00    -0.399 OA
HETATM    4  H   UNK N   1      17.487  18.887   2.748  0.00  0.00     0.209 HD
ENDBRANCH   2   3
ENDBRANCH   1   2
BRANCH   1   5
HETATM    5  C   UNK N   1      21.204  19.780   3.452  0.00  0.00     0.138 C 
HETATM    6  C   UNK N   1      21.335  18.750   4.564  0.00  0.00     0.041 C 
BRANCH   5   7
HETATM    7  O   UNK N   1      20.259  20.730   3.834  0.00  0.00    -0.394 OA
HETATM    8  H   UNK N   1      20.171  21.686   3.695  0.00  0.00     0.210 HD
ENDBRANCH   5   7
ENDBRANCH   1   5
BRANCH   1   9
HETATM    9  N   UNK N   1      20.383  20.104   1.159  0.00  0.00    -0.422 N 
HETATM   10  H   UNK N   1      20.094  21.081   1.199  0.00  0.00     0.150 HD
HETATM   11  H   UNK N   1      20.399  19.742   0.205  0.00  0.00     0.150 HD
ENDBRANCH   1   9
TORSDOF 5
ENDMDL
MODEL 6
REMARK VINA RESULT:      -3.6     12.387     12.678
REMARK  5 active torsions:
REMARK  status: ('A' for Active; 'I' for Inactive)
REMARK    1  A    between atoms: C_4  and  C_2 
REMARK    2  A    between atoms: O_6  and  C_2 
REMARK    3  A    between atoms: C_4  and  C_3 
REMARK    4  A    between atoms: C_3  and  O_7 
REMARK    5  A    between atoms: C_4  and  N_5 
ROOT
HETATM    1  C   UNK N   1      34.683  15.656  10.198  0.00  0.00     0.126 C 
ENDROOT
BRANCH   1   2
HETATM    2  C   UNK N   1      35.644  16.020  11.330  0.00  0.00     0.191 C 
BRANCH   2   3
HETATM    3  O   UNK N   1      36.965  16.063  10.879  0.00  0.00    -0.399 OA
HETATM    4  H   UNK N   1      37.688  16.425  10.343  0.00  0.00     0.209 HD
ENDBRANCH   2   3
ENDBRANCH   1   2
BRANCH   1   5
HETATM    5  C   UNK N   1      34.366  16.871   9.310  0.00  0.00     0.138 C 
HETATM    6  C   UNK N   1      34.477  16.501   7.838  0.00  0.00     0.041 C 
BRANCH   5   7
HETATM    7  O   UNK N   1      35.258  17.908   9.577  0.00  0.00    -0.394 OA
HETATM    8  H   UNK N   1      35.974  18.031  10.220  0.00  0.00     0.210 HD
ENDBRANCH   5   7
ENDBRANCH   1   5
BRANCH   1   9
HETATM    9  N   UNK N   1      33.460  15.105  10.758  0.00  0.00    -0.422 N 
HETATM   10  H   UNK N   1      32.770  15.421  11.438  0.00  0.00     0.150 HD
HETATM   11  H   UNK N   1      33.240  14.183  10.380  0.00  0.00     0.150 HD
ENDBRANCH   1   9
TORSDOF 5
ENDMDL
MODEL 7
REMARK VINA RESULT:      -3.5     11.246     11.927
REMARK  5 active torsions:
REMARK  status: ('A' for Active; 'I' for Inactive)
REMARK    1  A    between atoms: C_4  and  C_2 
REMARK    2  A    between atoms: O_6  and  C_2 
REMARK    3  A    between atoms: C_4  and  C_3 
REMARK    4  A    between atoms: C_3  and  O_7 
REMARK    5  A    between atoms: C_4  and  N_5 
ROOT
HETATM    1  C   UNK N   1      20.982  19.414   2.153  0.00  0.00     0.126 C 
ENDROOT
BRANCH   1   2
HETATM    2  C   UNK N   1      20.658  20.676   1.352  0.00  0.00     0.191 C 
BRANCH   2   3
HETATM    3  O   UNK N   1      20.571  20.400  -0.014  0.00  0.00    -0.399 OA
HETATM    4  H   UNK N   1      20.649  19.823  -0.790  0.00  0.00     0.209 HD
ENDBRANCH   2   3
ENDBRANCH   1   2
BRANCH   1   5
HETATM    5  C   UNK N   1      19.705  18.665   2.572  0.00  0.00     0.138 C 
HETATM    6  C   UNK N   1      20.026  17.601   3.611  0.00  0.00     0.041 C 
BRANCH   5   7
HETATM    7  O   UNK N   1      19.124  18.047   1.466  0.00  0.00    -0.394 OA
HETATM    8  H   UNK N   1      19.057  18.275   0.525  0.00  0.00     0.210 HD
ENDBRANCH   5   7
ENDBRANCH   1   5
BRANCH   1   9
HETATM    9  N   UNK N   1      21.767  19.770   3.322  0.00  0.00    -0.422 N 
HETATM   10  H   UNK N   1      21.588  19.826   4.324  0.00  0.00     0.150 HD
HETATM   11  H   UNK N   1      22.726  20.025   3.083  0.00  0.00     0.150 HD
ENDBRANCH   1   9
TORSDOF 5
ENDMDL
MODEL 8
REMARK VINA RESULT:      -3.5     12.295     12.814
REMARK  5 active torsions:
REMARK  status: ('A' for Active; 'I' for Inactive)
REMARK    1  A    between atoms: C_4  and  C_2 
REMARK    2  A    between atoms: O_6  and  C_2 
REMARK    3  A    between atoms: C_4  and  C_3 
REMARK    4  A    between atoms: C_3  and  O_7 
REMARK    5  A    between atoms: C_4  and  N_5 
ROOT
HETATM    1  C   UNK N   1      33.228  17.935   8.091  0.00  0.00     0.126 C 
ENDROOT
BRANCH   1   2
HETATM    2  C   UNK N   1      32.971  17.564   6.631  0.00  0.00     0.191 C 
BRANCH   2   3
HETATM    3  O   UNK N   1      34.114  17.757   5.851  0.00  0.00    -0.399 OA
HETATM    4  H   UNK N   1      35.048  17.983   5.721  0.00  0.00     0.209 HD
ENDBRANCH   2   3
ENDBRANCH   1   2
BRANCH   1   5
HETATM    5  C   UNK N   1      34.724  17.865   8.440  0.00  0.00     0.138 C 
HETATM    6  C   UNK N   1      34.932  17.144   9.763  0.00  0.00     0.041 C 
BRANCH   5   7
HETATM    7  O   UNK N   1      35.254  19.150   8.545  0.00  0.00    -0.394 OA
HETATM    8  H   UNK N   1      34.878  20.018   8.758  0.00  0.00     0.210 HD
ENDBRANCH   5   7
ENDBRANCH   1   5
BRANCH   1   9
HETATM    9  N   UNK N   1      32.464  17.053   8.957  0.00  0.00    -0.422 N 
HETATM   10  H   UNK N   1      31.743  17.182   9.667  0.00  0.00     0.150 HD
HETATM   11  H   UNK N   1      32.706  16.071   8.822  0.00  0.00     0.150 HD
ENDBRANCH   1   9
TORSDOF 5
ENDMDL
MODEL 9
REMARK VINA RESULT:      -3.5     18.837     19.228
REMARK  5 active torsions:
REMARK  status: ('A' for Active; 'I' for Inactive)
REMARK    1  A    between atoms: C_4  and  C_2 
REMARK    2  A    between atoms: O_6  and  C_2 
REMARK    3  A    between atoms: C_4  and  C_3 
REMARK    4  A    between atoms: C_3  and  O_7 
REMARK    5  A    between atoms: C_4  and  N_5 
ROOT
HETATM    1  C   UNK N   1      30.895  21.647  -3.313  0.00  0.00     0.126 C 
ENDROOT
BRANCH   1   2
HETATM    2  C   UNK N   1      30.412  22.991  -2.767  0.00  0.00     0.191 C 
BRANCH   2   3
HETATM    3  O   UNK N   1      30.469  23.020  -1.371  0.00  0.00    -0.399 OA
HETATM    4  H   UNK N   1      30.911  22.893  -0.518  0.00  0.00     0.209 HD
ENDBRANCH   2   3
ENDBRANCH   1   2
BRANCH   1   5
HETATM    5  C   UNK N   1      32.425  21.515  -3.223  0.00  0.00     0.138 C 
HETATM    6  C   UNK N   1      32.933  20.490  -4.226  0.00  0.00     0.041 C 
BRANCH   5   7
HETATM    7  O   UNK N   1      32.799  21.109  -1.944  0.00  0.00    -0.394 OA
HETATM    8  H   UNK N   1      33.642  20.850  -1.539  0.00  0.00     0.210 HD
ENDBRANCH   5   7
ENDBRANCH   1   5
BRANCH   1   9
HETATM    9  N   UNK N   1      30.453  21.496  -4.689  0.00  0.00    -0.422 N 
HETATM   10  H   UNK N   1      30.146  22.132  -5.424  0.00  0.00     0.150 HD
HETATM   11  H   UNK N   1      30.450  20.521  -4.991  0.00  0.00     0.150 HD
ENDBRANCH   1   9
TORSDOF 5
ENDMDL
