REMARK  6 active torsions:
REMARK  status: ('A' for Active; 'I' for Inactive)
REMARK       I    between atoms: N_3  and  C_6 
REMARK    1  A    between atoms: N_4  and  C_14 
REMARK    2  A    between atoms: C_5  and  C_6 
REMARK    3  A    between atoms: C_5  and  C_7 
REMARK    4  A    between atoms: C_5  and  C_8 
REMARK    5  A    between atoms: C_5  and  C_9 
REMARK    6  A    between atoms: C_9  and  C_14 
ROOT
HETATM    1  C   UNK N   1      -0.611   0.259  -0.183  0.00  0.00     0.100 C 
ENDROOT
BRANCH   1   2
HETATM    2  C   UNK N   1      -0.771   1.594   0.644  0.00  0.00     0.238 C 
HETATM    3  O   UNK N   1      -0.362   1.659   1.799  0.00  0.00    -0.272 OA
HETATM    4  N   UNK N   1      -1.382   2.705   0.094  0.00  0.00    -0.351 N 
HETATM    5  C   UNK N   1      -1.962   2.733  -1.222  0.00  0.00     0.126 C 
HETATM    6  C   UNK N   1      -1.552   3.929   0.827  0.00  0.00     0.126 C 
HETATM    7  C   UNK N   1      -2.843   3.968  -1.232  0.00  0.00     0.021 C 
HETATM    8  C   UNK N   1      -2.299   4.857  -0.122  0.00  0.00     0.021 C 
ENDBRANCH   1   2
BRANCH   1   9
HETATM    9  C   UNK N   1      -2.162   0.056  -0.166  0.00  0.00    -0.035 A 
HETATM   10  C   UNK N   1      -2.861  -0.104  -1.375  0.00  0.00     0.009 A 
HETATM   11  C   UNK N   1      -4.238  -0.355  -1.371  0.00  0.00     0.001 A 
HETATM   12  C   UNK N   1      -4.938  -0.448  -0.164  0.00  0.00     0.000 A 
HETATM   13  C   UNK N   1      -4.268  -0.297   1.048  0.00  0.00     0.001 A 
HETATM   14  C   UNK N   1      -2.896  -0.061   1.054  0.00  0.00     0.009 A 
ENDBRANCH   1   9
BRANCH   1  15
HETATM   15  C   UNK N   1      -0.482  -1.274  -0.001  0.00  0.00    -0.035 A 
HETATM   16  C   UNK N   1      -0.247  -2.042  -1.166  0.00  0.00     0.009 A 
HETATM   17  C   UNK N   1      -0.150  -3.430  -1.104  0.00  0.00     0.001 A 
HETATM   18  C   UNK N   1      -0.291  -4.081   0.120  0.00  0.00     0.000 A 
HETATM   19  C   UNK N   1      -0.524  -3.343   1.285  0.00  0.00     0.001 A 
HETATM   20  C   UNK N   1      -0.621  -1.947   1.234  0.00  0.00     0.009 A 
ENDBRANCH   1  15
BRANCH   1  21
HETATM   21  C   UNK N   1       0.992   0.349  -0.153  0.00  0.00     0.037 C 
HETATM   22  C   UNK N   1       1.667  -0.015   1.205  0.00  0.00     0.014 C 
BRANCH  21  23
HETATM   23  C   UNK N   1       1.698   1.550  -0.820  0.00  0.00     0.278 C 
BRANCH  23  24
HETATM   24  N   UNK N   1       3.077   1.666  -0.334  0.00  0.00     0.092 N 
HETATM   25  C   UNK N   1       3.976   0.749  -1.038  0.00  0.00     0.298 C 
HETATM   26  C   UNK N   1       5.389   0.935  -0.472  0.00  0.00     0.198 C 
HETATM   27  O   UNK N   1       5.815   2.259  -0.697  0.00  0.00    -0.388 OA
HETATM   28  C   UNK N   1       4.985   3.102   0.069  0.00  0.00     0.198 C 
HETATM   29  C   UNK N   1       3.553   3.038  -0.471  0.00  0.00     0.298 C 
ENDBRANCH  23  24
ENDBRANCH  21  23
ENDBRANCH   1  21
TORSDOF 6
