REMARK  2 active torsions:
REMARK  status: ('A' for Active; 'I' for Inactive)
REMARK    1  A    between atoms: C_5  and  O_22 
REMARK    2  A    between atoms: C_18  and  O_20 
ROOT
HETATM    1  C   UNK N   1       0.815  -0.099   1.585  0.00  0.00     0.020 C 
HETATM    2  C   UNK N   1       1.353   0.000   0.161  0.00  0.00    -0.017 C 
HETATM    3  C   UNK N   1       2.506  -1.017   0.081  0.00  0.00     0.017 C 
HETATM    4  C   UNK N   1       3.550  -0.636  -0.958  0.00  0.00     0.037 C 
HETATM    5  C   UNK N   1       4.146   0.722  -0.595  0.00  0.00     0.141 C 
HETATM    6  C   UNK N   1       3.070   1.754  -0.412  0.00  0.00     0.008 C 
HETATM    7  C   UNK N   1       1.806   1.431  -0.080  0.00  0.00    -0.072 C 
HETATM    8  C   UNK N   1       0.769   2.505  -0.033  0.00  0.00     0.035 C 
HETATM    9  C   UNK N   1      -0.286   2.189  -1.094  0.00  0.00     0.010 C 
HETATM   10  C   UNK N   1      -0.879   0.776  -0.943  0.00  0.00    -0.004 C 
HETATM   11  C   UNK N   1       0.238  -0.315  -0.879  0.00  0.00     0.002 C 
HETATM   12  C   UNK N   1      -0.331  -1.736  -0.653  0.00  0.00     0.007 C 
HETATM   13  C   UNK N   1      -1.860  -1.793  -0.598  0.00  0.00     0.013 C 
HETATM   14  C   UNK N   1      -2.464  -0.745   0.360  0.00  0.00    -0.009 C 
HETATM   15  C   UNK N   1      -1.807   0.642   0.269  0.00  0.00     0.001 C 
HETATM   16  C   UNK N   1      -2.944   1.668   0.336  0.00  0.00     0.009 C 
HETATM   17  C   UNK N   1      -4.191   0.869   0.705  0.00  0.00     0.038 C 
HETATM   18  C   UNK N   1      -3.951  -0.478   0.056  0.00  0.00     0.062 C 
HETATM   19  C   UNK N   1      -4.240  -0.341  -1.440  0.00  0.00     0.046 C 
HETATM   20  C   UNK N   1      -2.284  -1.211   1.804  0.00  0.00     0.018 C 
ENDROOT
BRANCH  18  21
HETATM   21  O   UNK N   1      -4.784  -1.464   0.588  0.00  0.00    -0.389 OA
HETATM   22  H   UNK N   1      -5.667  -1.305   0.957  0.00  0.00     0.210 HD
ENDBRANCH  18  21
BRANCH   5  23
HETATM   23  O   UNK N   1       4.923   0.632   0.562  0.00  0.00    -0.392 OA
HETATM   24  H   UNK N   1       5.139   0.133   1.366  0.00  0.00     0.210 HD
ENDBRANCH   5  23
TORSDOF 2
