MODEL 1
REMARK VINA RESULT:      -4.9      0.000      0.000
REMARK  1 active torsions:
REMARK  status: ('A' for Active; 'I' for Inactive)
REMARK       I    between atoms: N_1  and  C_2 
REMARK    1  A    between atoms: C_2  and  C_4 
ROOT
HETATM    1  C   UNK N   1      33.466  17.795   7.686  0.00  0.00     0.048 A 
HETATM    2  C   UNK N   1      32.181  17.638   8.223  0.00  0.00     0.104 A 
HETATM    3  N   UNK N   1      31.134  17.311   7.421  0.00  0.00    -0.373 N 
ATOM      4  HN  UNK N   1      30.207  17.202   7.832  1.00  0.00     0.164 HD
HETATM    5  C   UNK N   1      31.294  17.125   6.086  0.00  0.00     0.106 A 
HETATM    6  C   UNK N   1      32.554  17.270   5.504  0.00  0.00     0.027 A 
HETATM    7 Br   UNK N   1      32.758  17.005   3.626  0.00  0.00    -0.050 Br
HETATM    8  C   UNK N   1      33.648  17.606   6.307  0.00  0.00     0.039 A 
ENDROOT
BRANCH   1   9
HETATM    9  C   UNK N   1      34.594  18.151   8.575  0.00  0.00     0.250 C 
HETATM   10  N   UNK N   1      34.915  17.363   9.623  0.00  0.00    -0.366 N 
HETATM   11  H   UNK N   1      35.666  17.608  10.210  0.00  0.00     0.159 HD
HETATM   12  H   UNK N   1      34.396  16.545   9.800  0.00  0.00     0.159 HD
HETATM   13  O   UNK N   1      35.243  19.163   8.366  0.00  0.00    -0.268 OA
ENDBRANCH   1   9
TORSDOF 1
ENDMDL
MODEL 2
REMARK VINA RESULT:      -4.8     11.379     12.508
REMARK  1 active torsions:
REMARK  status: ('A' for Active; 'I' for Inactive)
REMARK       I    between atoms: N_1  and  C_2 
REMARK    1  A    between atoms: C_2  and  C_4 
ROOT
HETATM    1  C   UNK N   1      22.165  12.545  10.740  0.00  0.00     0.048 A 
HETATM    2  C   UNK N   1      23.020  12.071  11.744  0.00  0.00     0.104 A 
HETATM    3  N   UNK N   1      24.368  12.084  11.564  0.00  0.00    -0.373 N 
ATOM      4  HN  UNK N   1      24.973  11.735  12.306  1.00  0.00     0.164 HD
HETATM    5  C   UNK N   1      24.925  12.552  10.417  0.00  0.00     0.106 A 
HETATM    6  C   UNK N   1      24.115  13.035   9.390  0.00  0.00     0.027 A 
HETATM    7 Br   UNK N   1      24.918  13.688   7.788  0.00  0.00    -0.050 Br
HETATM    8  C   UNK N   1      22.726  13.032   9.550  0.00  0.00     0.039 A 
ENDROOT
BRANCH   1   9
HETATM    9  C   UNK N   1      20.701  12.522  10.954  0.00  0.00     0.250 C 
HETATM   10  N   UNK N   1      20.166  11.785  11.952  0.00  0.00    -0.366 N 
HETATM   11  H   UNK N   1      19.192  11.776  12.088  0.00  0.00     0.159 HD
HETATM   12  H   UNK N   1      20.752  11.258  12.542  0.00  0.00     0.159 HD
HETATM   13  O   UNK N   1      19.964  13.171  10.229  0.00  0.00    -0.268 OA
ENDBRANCH   1   9
TORSDOF 1
ENDMDL
MODEL 3
REMARK VINA RESULT:      -4.7      1.965      2.322
REMARK  1 active torsions:
REMARK  status: ('A' for Active; 'I' for Inactive)
REMARK       I    between atoms: N_1  and  C_2 
REMARK    1  A    between atoms: C_2  and  C_4 
ROOT
HETATM    1  C   UNK N   1      33.494  17.822   7.757  0.00  0.00     0.048 A 
HETATM    2  C   UNK N   1      33.730  17.485   6.417  0.00  0.00     0.104 A 
HETATM    3  N   UNK N   1      32.697  17.149   5.599  0.00  0.00    -0.373 N 
ATOM      4  HN  UNK N   1      32.890  16.908   4.628  1.00  0.00     0.164 HD
HETATM    5  C   UNK N   1      31.415  17.128   6.048  0.00  0.00     0.106 A 
HETATM    6  C   UNK N   1      31.131  17.455   7.373  0.00  0.00     0.027 A 
HETATM    7 Br   UNK N   1      29.324  17.419   7.983  0.00  0.00    -0.050 Br
HETATM    8  C   UNK N   1      32.175  17.804   8.235  0.00  0.00     0.039 A 
ENDROOT
BRANCH   1   9
HETATM    9  C   UNK N   1      34.631  18.185   8.632  0.00  0.00     0.250 C 
HETATM   10  N   UNK N   1      34.968  17.400   9.678  0.00  0.00    -0.366 N 
HETATM   11  H   UNK N   1      35.725  17.649  10.255  0.00  0.00     0.159 HD
HETATM   12  H   UNK N   1      34.455  16.580   9.863  0.00  0.00     0.159 HD
HETATM   13  O   UNK N   1      35.274  19.198   8.413  0.00  0.00    -0.268 OA
ENDBRANCH   1   9
TORSDOF 1
ENDMDL
MODEL 4
REMARK VINA RESULT:      -4.5     12.901     13.538
REMARK  1 active torsions:
REMARK  status: ('A' for Active; 'I' for Inactive)
REMARK       I    between atoms: N_1  and  C_2 
REMARK    1  A    between atoms: C_2  and  C_4 
ROOT
HETATM    1  C   UNK N   1      20.681  19.405   2.799  0.00  0.00     0.048 A 
HETATM    2  C   UNK N   1      19.529  18.691   2.443  0.00  0.00     0.104 A 
HETATM    3  N   UNK N   1      19.198  17.546   3.098  0.00  0.00    -0.373 N 
ATOM      4  HN  UNK N   1      18.356  17.041   2.824  1.00  0.00     0.164 HD
HETATM    5  C   UNK N   1      19.964  17.060   4.109  0.00  0.00     0.106 A 
HETATM    6  C   UNK N   1      21.120  17.736   4.499  0.00  0.00     0.027 A 
HETATM    7 Br   UNK N   1      22.182  17.037   5.921  0.00  0.00    -0.050 Br
HETATM    8  C   UNK N   1      21.483  18.916   3.842  0.00  0.00     0.039 A 
ENDROOT
BRANCH   1   9
HETATM    9  C   UNK N   1      21.025  20.649   2.075  0.00  0.00     0.250 C 
HETATM   10  N   UNK N   1      20.416  20.952   0.908  0.00  0.00    -0.366 N 
HETATM   11  H   UNK N   1      20.650  21.781   0.433  0.00  0.00     0.159 HD
HETATM   12  H   UNK N   1      19.739  20.343   0.534  0.00  0.00     0.159 HD
HETATM   13  O   UNK N   1      21.862  21.411   2.529  0.00  0.00    -0.268 OA
ENDBRANCH   1   9
TORSDOF 1
ENDMDL
MODEL 5
REMARK VINA RESULT:      -4.5      9.747     10.557
REMARK  1 active torsions:
REMARK  status: ('A' for Active; 'I' for Inactive)
REMARK       I    between atoms: N_1  and  C_2 
REMARK    1  A    between atoms: C_2  and  C_4 
ROOT
HETATM    1  C   UNK N   1      35.791  13.761  16.613  0.00  0.00     0.048 A 
HETATM    2  C   UNK N   1      36.771  14.166  15.697  0.00  0.00     0.104 A 
HETATM    3  N   UNK N   1      36.850  13.585  14.470  0.00  0.00    -0.373 N 
ATOM      4  HN  UNK N   1      37.570  13.894  13.818  1.00  0.00     0.164 HD
HETATM    5  C   UNK N   1      35.991  12.602  14.095  0.00  0.00     0.106 A 
HETATM    6  C   UNK N   1      34.999  12.164  14.972  0.00  0.00     0.027 A 
HETATM    7 Br   UNK N   1      33.804  10.783  14.426  0.00  0.00    -0.050 Br
HETATM    8  C   UNK N   1      34.897  12.746  16.240  0.00  0.00     0.039 A 
ENDROOT
BRANCH   1   9
HETATM    9  C   UNK N   1      35.720  14.406  17.943  0.00  0.00     0.250 C 
HETATM   10  N   UNK N   1      36.283  15.616  18.148  0.00  0.00    -0.366 N 
HETATM   11  H   UNK N   1      36.232  16.038  19.035  0.00  0.00     0.159 HD
HETATM   12  H   UNK N   1      36.744  16.075  17.409  0.00  0.00     0.159 HD
HETATM   13  O   UNK N   1      35.152  13.846  18.867  0.00  0.00    -0.268 OA
ENDBRANCH   1   9
TORSDOF 1
ENDMDL
MODEL 6
REMARK VINA RESULT:      -4.4     10.944     12.077
REMARK  1 active torsions:
REMARK  status: ('A' for Active; 'I' for Inactive)
REMARK       I    between atoms: N_1  and  C_2 
REMARK    1  A    between atoms: C_2  and  C_4 
ROOT
HETATM    1  C   UNK N   1      35.554  12.995  16.731  0.00  0.00     0.048 A 
HETATM    2  C   UNK N   1      35.424  14.007  17.693  0.00  0.00     0.104 A 
HETATM    3  N   UNK N   1      35.252  13.692  19.004  0.00  0.00    -0.373 N 
ATOM      4  HN  UNK N   1      35.160  14.443  19.688  1.00  0.00     0.164 HD
HETATM    5  C   UNK N   1      35.200  12.402  19.423  0.00  0.00     0.106 A 
HETATM    6  C   UNK N   1      35.324  11.360  18.504  0.00  0.00     0.027 A 
HETATM    7 Br   UNK N   1      35.248   9.555  19.113  0.00  0.00    -0.050 Br
HETATM    8  C   UNK N   1      35.502  11.657  17.149  0.00  0.00     0.039 A 
ENDROOT
BRANCH   1   9
HETATM    9  C   UNK N   1      35.740  13.357  15.308  0.00  0.00     0.250 C 
HETATM   10  N   UNK N   1      36.959  13.708  14.846  0.00  0.00    -0.366 N 
HETATM   11  H   UNK N   1      37.075  13.948  13.898  0.00  0.00     0.159 HD
HETATM   12  H   UNK N   1      37.731  13.725  15.457  0.00  0.00     0.159 HD
HETATM   13  O   UNK N   1      34.791  13.340  14.541  0.00  0.00    -0.268 OA
ENDBRANCH   1   9
TORSDOF 1
ENDMDL
MODEL 7
REMARK VINA RESULT:      -4.4      3.753      4.820
REMARK  1 active torsions:
REMARK  status: ('A' for Active; 'I' for Inactive)
REMARK       I    between atoms: N_1  and  C_2 
REMARK    1  A    between atoms: C_2  and  C_4 
ROOT
HETATM    1  C   UNK N   1      29.406  17.491   8.088  0.00  0.00     0.048 A 
HETATM    2  C   UNK N   1      29.233  16.877   6.840  0.00  0.00     0.104 A 
HETATM    3  N   UNK N   1      30.307  16.606   6.051  0.00  0.00    -0.373 N 
ATOM      4  HN  UNK N   1      30.160  16.159   5.147  1.00  0.00     0.164 HD
HETATM    5  C   UNK N   1      31.570  16.916   6.441  0.00  0.00     0.106 A 
HETATM    6  C   UNK N   1      31.792  17.528   7.675  0.00  0.00     0.027 A 
HETATM    7 Br   UNK N   1      33.574  17.956   8.204  0.00  0.00    -0.050 Br
HETATM    8  C   UNK N   1      30.705  17.818   8.505  0.00  0.00     0.039 A 
ENDROOT
BRANCH   1   9
HETATM    9  C   UNK N   1      28.225  17.778   8.932  0.00  0.00     0.250 C 
HETATM   10  N   UNK N   1      27.538  18.931   8.779  0.00  0.00    -0.366 N 
HETATM   11  H   UNK N   1      26.754  19.114   9.344  0.00  0.00     0.159 HD
HETATM   12  H   UNK N   1      27.822  19.586   8.101  0.00  0.00     0.159 HD
HETATM   13  O   UNK N   1      27.863  16.973   9.775  0.00  0.00    -0.268 OA
ENDBRANCH   1   9
TORSDOF 1
ENDMDL
MODEL 8
REMARK VINA RESULT:      -4.3      4.336      5.117
REMARK  1 active torsions:
REMARK  status: ('A' for Active; 'I' for Inactive)
REMARK       I    between atoms: N_1  and  C_2 
REMARK    1  A    between atoms: C_2  and  C_4 
ROOT
HETATM    1  C   UNK N   1      34.984  15.064  11.314  0.00  0.00     0.048 A 
HETATM    2  C   UNK N   1      35.402  16.399  11.229  0.00  0.00     0.104 A 
HETATM    3  N   UNK N   1      34.957  17.198  10.224  0.00  0.00    -0.373 N 
ATOM      4  HN  UNK N   1      35.273  18.166  10.180  1.00  0.00     0.164 HD
HETATM    5  C   UNK N   1      34.100  16.736   9.277  0.00  0.00     0.106 A 
HETATM    6  C   UNK N   1      33.655  15.414   9.319  0.00  0.00     0.027 A 
HETATM    7 Br   UNK N   1      32.451  14.785   7.981  0.00  0.00    -0.050 Br
HETATM    8  C   UNK N   1      34.098  14.572  10.344  0.00  0.00     0.039 A 
ENDROOT
BRANCH   1   9
HETATM    9  C   UNK N   1      35.479  14.210  12.416  0.00  0.00     0.250 C 
HETATM   10  N   UNK N   1      36.799  14.152  12.696  0.00  0.00    -0.366 N 
HETATM   11  H   UNK N   1      37.121  13.581  13.431  0.00  0.00     0.159 HD
HETATM   12  H   UNK N   1      37.438  14.680  12.165  0.00  0.00     0.159 HD
HETATM   13  O   UNK N   1      34.697  13.551  13.081  0.00  0.00    -0.268 OA
ENDBRANCH   1   9
TORSDOF 1
ENDMDL
MODEL 9
REMARK VINA RESULT:      -4.2      2.435      2.974
REMARK  1 active torsions:
REMARK  status: ('A' for Active; 'I' for Inactive)
REMARK       I    between atoms: N_1  and  C_2 
REMARK    1  A    between atoms: C_2  and  C_4 
ROOT
HETATM    1  C   UNK N   1      32.326  17.390   7.064  0.00  0.00     0.048 A 
HETATM    2  C   UNK N   1      32.297  17.742   8.421  0.00  0.00     0.104 A 
HETATM    3  N   UNK N   1      31.119  17.772   9.099  0.00  0.00    -0.373 N 
ATOM      4  HN  UNK N   1      31.119  18.030  10.085  1.00  0.00     0.164 HD
HETATM    5  C   UNK N   1      29.943  17.466   8.493  0.00  0.00     0.106 A 
HETATM    6  C   UNK N   1      29.921  17.111   7.145  0.00  0.00     0.027 A 
HETATM    7 Br   UNK N   1      28.259  16.685   6.312  0.00  0.00    -0.050 Br
HETATM    8  C   UNK N   1      31.119  17.072   6.424  0.00  0.00     0.039 A 
ENDROOT
BRANCH   1   9
HETATM    9  C   UNK N   1      33.617  17.362   6.342  0.00  0.00     0.250 C 
HETATM   10  N   UNK N   1      33.787  16.555   5.273  0.00  0.00    -0.366 N 
HETATM   11  H   UNK N   1      34.649  16.543   4.799  0.00  0.00     0.159 HD
HETATM   12  H   UNK N   1      33.048  15.980   4.969  0.00  0.00     0.159 HD
HETATM   13  O   UNK N   1      34.541  18.071   6.710  0.00  0.00    -0.268 OA
ENDBRANCH   1   9
TORSDOF 1
ENDMDL
