MODEL 1
REMARK VINA RESULT:      -7.1      0.000      0.000
REMARK  23 active torsions:
REMARK  status: ('A' for Active; 'I' for Inactive)
REMARK    1  A    between atoms: C_7  and  C_4 
REMARK    2  A    between atoms: O_32  and  C_4 
REMARK    3  A    between atoms: C_8  and  C_5 
REMARK    4  A    between atoms: O_33  and  C_5 
REMARK    5  A    between atoms: C_14  and  C_6 
REMARK    6  A    between atoms: O_20  and  C_6 
REMARK    7  A    between atoms: C_14  and  C_8 
REMARK    8  A    between atoms: C_8  and  O_21 
REMARK    9  A    between atoms: N_15  and  C_9 
REMARK   10  A    between atoms: C_10  and  O_22 
REMARK   11  A    between atoms: C_11  and  O_23 
REMARK   12  A    between atoms: C_12  and  N_19 
REMARK   13  A    between atoms: O_24  and  C_13 
REMARK   14  A    between atoms: C_14  and  O_35 
REMARK   15  A    between atoms: P_37  and  O_25 
REMARK   16  A    between atoms: P_37  and  O_26 
REMARK   17  A    between atoms: P_38  and  O_28 
REMARK   18  A    between atoms: P_39  and  O_30 
REMARK   19  A    between atoms: P_38  and  O_32 
REMARK   20  A    between atoms: P_39  and  O_33 
REMARK   21  A    between atoms: P_37  and  O_35 
REMARK   22  A    between atoms: P_38  and  O_36 
REMARK   23  A    between atoms: P_39  and  O_36 
ROOT
HETATM    1  O   UNK N   1      35.190  19.052   8.394  0.00  0.00    -0.631 OA
HETATM    2  P   UNK N   1      34.172  17.880   8.351  0.00  0.00     0.401 P 
ENDROOT
BRANCH   2   3
HETATM    3  O   UNK N   1      34.726  16.386   7.634  0.00  0.00    -0.307 OA
HETATM    4  H   UNK N   1      35.148  15.514   7.645  0.00  0.00     0.222 HD
ENDBRANCH   2   3
BRANCH   2   5
HETATM    5  O   UNK N   1      35.280  17.095   9.516  0.00  0.00    -0.294 OA
BRANCH   5   6
HETATM    6  C   UNK N   1      34.689  16.051  10.276  0.00  0.00     0.215 C 
BRANCH   6   7
HETATM    7  C   UNK N   1      35.661  15.463  11.281  0.00  0.00     0.180 C 
HETATM    8  C   UNK N   1      36.680  14.562  10.593  0.00  0.00     0.182 C 
HETATM    9  C   UNK N   1      37.060  13.572  11.692  0.00  0.00     0.198 C 
HETATM   10  C   UNK N   1      36.146  14.018  12.844  0.00  0.00     0.262 C 
HETATM   11  O   UNK N   1      35.033  14.629  12.225  0.00  0.00    -0.353 OA
BRANCH   8  12
HETATM   12  O   UNK N   1      37.768  15.282  10.093  0.00  0.00    -0.390 OA
HETATM   13  H   UNK N   1      38.342  14.952   9.385  0.00  0.00     0.210 HD
ENDBRANCH   8  12
BRANCH   9  14
HETATM   14  O   UNK N   1      36.719  12.280  11.274  0.00  0.00    -0.388 OA
HETATM   15  H   UNK N   1      36.220  11.531  10.913  0.00  0.00     0.210 HD
ENDBRANCH   9  14
BRANCH  10  16
HETATM   16  N   UNK N   1      35.760  12.938  13.771  0.00  0.00    -0.293 N 
HETATM   17  C   UNK N   1      34.620  12.225  13.535  0.00  0.00     0.101 A 
HETATM   18  C   UNK N   1      34.202  11.240  14.426  0.00  0.00     0.065 A 
HETATM   19  C   UNK N   1      34.969  11.005  15.561  0.00  0.00     0.102 A 
HETATM   20  N   UNK N   1      36.100  11.722  15.773  0.00  0.00    -0.308 N 
HETATM   21  C   UNK N   1      36.502  12.680  14.895  0.00  0.00     0.227 A 
ATOM     22  HN  UNK N   1      36.660  11.540  16.606  1.00  0.00     0.171 HD
BRANCH  19  23
HETATM   23  N   UNK N   1      34.603  10.121  16.408  0.00  0.00    -0.385 N 
HETATM   24  H   UNK N   1      34.997  10.080  17.309  0.00  0.00     0.157 HD
ATOM     25  HN  UNK N   1      33.887   9.443  16.144  1.00  0.00     0.157 HD
ENDBRANCH  19  23
BRANCH  21  26
HETATM   26  O   UNK N   1      37.617  13.384  15.157  0.00  0.00    -0.332 OA
HETATM   27  H   UNK N   1      37.627  14.114  15.746  0.00  0.00     0.221 HD
ENDBRANCH  21  26
ENDBRANCH  10  16
ENDBRANCH   6   7
ENDBRANCH   5   6
ENDBRANCH   2   5
BRANCH   2  28
HETATM   28  O   UNK N   1      34.344  17.950   6.566  0.00  0.00    -0.195 OA
BRANCH  28  29
HETATM   29  P   UNK N   1      33.265  16.945   5.564  0.00  0.00     0.401 P 
HETATM   30  O   UNK N   1      32.713  17.772   4.371  0.00  0.00    -0.631 OA
BRANCH  29  31
HETATM   31  O   UNK N   1      34.195  15.678   4.834  0.00  0.00    -0.307 OA
HETATM   32  H   UNK N   1      34.991  15.123   4.872  0.00  0.00     0.222 HD
ENDBRANCH  29  31
BRANCH  29  33
HETATM   33  O   UNK N   1      31.961  16.216   6.479  0.00  0.00    -0.294 OA
BRANCH  33  34
HETATM   34  C   UNK N   1      30.757  16.825   6.098  0.00  0.00     0.215 C 
BRANCH  34  35
HETATM   35  C   UNK N   1      30.107  17.612   7.248  0.00  0.00     0.179 C 
BRANCH  35  36
HETATM   36  C   UNK N   1      28.661  18.087   6.939  0.00  0.00     0.117 C 
HETATM   37  C   UNK N   1      27.762  16.844   6.889  0.00  0.00     0.052 C 
BRANCH  36  38
HETATM   38  C   UNK N   1      28.178  19.010   8.067  0.00  0.00     0.205 C 
BRANCH  38  39
HETATM   39  O   UNK N   1      27.615  18.276   9.114  0.00  0.00    -0.398 OA
HETATM   40  H   UNK N   1      27.022  17.771   9.692  0.00  0.00     0.209 HD
ENDBRANCH  38  39
ENDBRANCH  36  38
BRANCH  36  41
HETATM   41  O   UNK N   1      28.693  18.802   5.710  0.00  0.00    -0.281 OA
BRANCH  41  42
HETATM   42  P   UNK N   1      27.186  18.744   4.800  0.00  0.00     0.391 P 
HETATM   43  O   UNK N   1      27.167  19.850   3.711  0.00  0.00    -0.632 OA
BRANCH  42  44
HETATM   44  O   UNK N   1      27.026  17.228   3.968  0.00  0.00    -0.307 OA
HETATM   45  H   UNK N   1      27.432  16.483   3.499  0.00  0.00     0.222 HD
ENDBRANCH  42  44
BRANCH  42  46
HETATM   46  O   UNK N   1      25.822  19.008   5.840  0.00  0.00    -0.307 OA
HETATM   47  H   UNK N   1      24.893  18.733   5.878  0.00  0.00     0.222 HD
ENDBRANCH  42  46
ENDBRANCH  41  42
ENDBRANCH  36  41
ENDBRANCH  35  36
BRANCH  35  48
HETATM   48  O   UNK N   1      30.118  16.798   8.385  0.00  0.00    -0.390 OA
HETATM   49  H   UNK N   1      29.431  16.748   9.069  0.00  0.00     0.210 HD
ENDBRANCH  35  48
ENDBRANCH  34  35
ENDBRANCH  33  34
ENDBRANCH  29  33
ENDBRANCH  28  29
ENDBRANCH   2  28
TORSDOF 23
ENDMDL
MODEL 2
REMARK VINA RESULT:      -7.0      4.565     10.248
REMARK  23 active torsions:
REMARK  status: ('A' for Active; 'I' for Inactive)
REMARK    1  A    between atoms: C_7  and  C_4 
REMARK    2  A    between atoms: O_32  and  C_4 
REMARK    3  A    between atoms: C_8  and  C_5 
REMARK    4  A    between atoms: O_33  and  C_5 
REMARK    5  A    between atoms: C_14  and  C_6 
REMARK    6  A    between atoms: O_20  and  C_6 
REMARK    7  A    between atoms: C_14  and  C_8 
REMARK    8  A    between atoms: C_8  and  O_21 
REMARK    9  A    between atoms: N_15  and  C_9 
REMARK   10  A    between atoms: C_10  and  O_22 
REMARK   11  A    between atoms: C_11  and  O_23 
REMARK   12  A    between atoms: C_12  and  N_19 
REMARK   13  A    between atoms: O_24  and  C_13 
REMARK   14  A    between atoms: C_14  and  O_35 
REMARK   15  A    between atoms: P_37  and  O_25 
REMARK   16  A    between atoms: P_37  and  O_26 
REMARK   17  A    between atoms: P_38  and  O_28 
REMARK   18  A    between atoms: P_39  and  O_30 
REMARK   19  A    between atoms: P_38  and  O_32 
REMARK   20  A    between atoms: P_39  and  O_33 
REMARK   21  A    between atoms: P_37  and  O_35 
REMARK   22  A    between atoms: P_38  and  O_36 
REMARK   23  A    between atoms: P_39  and  O_36 
ROOT
HETATM    1  O   UNK N   1      34.696  14.887   5.816  0.00  0.00    -0.631 OA
HETATM    2  P   UNK N   1      33.681  15.970   6.271  0.00  0.00     0.401 P 
ENDROOT
BRANCH   2   3
HETATM    3  O   UNK N   1      34.098  17.631   5.926  0.00  0.00    -0.307 OA
HETATM    4  H   UNK N   1      33.969  18.497   5.510  0.00  0.00     0.222 HD
ENDBRANCH   2   3
BRANCH   2   5
HETATM    5  O   UNK N   1      33.437  16.239   4.519  0.00  0.00    -0.294 OA
BRANCH   5   6
HETATM    6  C   UNK N   1      32.108  16.017   4.071  0.00  0.00     0.215 C 
BRANCH   6   7
HETATM    7  C   UNK N   1      31.097  16.193   5.187  0.00  0.00     0.180 C 
HETATM    8  C   UNK N   1      29.923  15.235   5.019  0.00  0.00     0.182 C 
HETATM    9  C   UNK N   1      28.776  15.974   5.705  0.00  0.00     0.198 C 
HETATM   10  C   UNK N   1      29.454  17.290   6.116  0.00  0.00     0.262 C 
HETATM   11  O   UNK N   1      30.510  17.472   5.196  0.00  0.00    -0.353 OA
BRANCH   8  12
HETATM   12  O   UNK N   1      30.185  13.979   5.571  0.00  0.00    -0.390 OA
HETATM   13  H   UNK N   1      29.857  13.151   5.187  0.00  0.00     0.210 HD
ENDBRANCH   8  12
BRANCH   9  14
HETATM   14  O   UNK N   1      27.770  16.220   4.763  0.00  0.00    -0.388 OA
HETATM   15  H   UNK N   1      27.213  16.152   3.972  0.00  0.00     0.210 HD
ENDBRANCH   9  14
BRANCH  10  16
HETATM   16  N   UNK N   1      28.547  18.451   6.178  0.00  0.00    -0.293 N 
HETATM   17  C   UNK N   1      28.440  19.280   5.099  0.00  0.00     0.101 A 
HETATM   18  C   UNK N   1      27.635  20.414   5.153  0.00  0.00     0.065 A 
HETATM   19  C   UNK N   1      26.950  20.686   6.331  0.00  0.00     0.102 A 
HETATM   20  N   UNK N   1      27.068  19.847   7.390  0.00  0.00    -0.308 N 
HETATM   21  C   UNK N   1      27.854  18.739   7.327  0.00  0.00     0.227 A 
ATOM     22  HN  UNK N   1      26.559  20.051   8.250  1.00  0.00     0.171 HD
BRANCH  19  23
HETATM   23  N   UNK N   1      26.219  21.730   6.419  0.00  0.00    -0.385 N 
HETATM   24  H   UNK N   1      26.400  22.531   5.876  0.00  0.00     0.157 HD
ATOM     25  HN  UNK N   1      25.430  21.733   7.066  1.00  0.00     0.157 HD
ENDBRANCH  19  23
BRANCH  21  26
HETATM   26  O   UNK N   1      27.961  17.948   8.409  0.00  0.00    -0.332 OA
HETATM   27  H   UNK N   1      27.945  17.013   8.353  0.00  0.00     0.221 HD
ENDBRANCH  21  26
ENDBRANCH  10  16
ENDBRANCH   6   7
ENDBRANCH   5   6
ENDBRANCH   2   5
BRANCH   2  28
HETATM   28  O   UNK N   1      35.005  16.615   7.295  0.00  0.00    -0.195 OA
BRANCH  28  29
HETATM   29  P   UNK N   1      34.589  17.704   8.644  0.00  0.00     0.401 P 
HETATM   30  O   UNK N   1      34.950  19.171   8.282  0.00  0.00    -0.631 OA
BRANCH  29  31
HETATM   31  O   UNK N   1      32.868  17.708   8.852  0.00  0.00    -0.307 OA
HETATM   32  H   UNK N   1      32.116  17.912   9.432  0.00  0.00     0.222 HD
ENDBRANCH  29  31
BRANCH  29  33
HETATM   33  O   UNK N   1      35.328  17.231  10.160  0.00  0.00    -0.294 OA
BRANCH  33  34
HETATM   34  C   UNK N   1      34.993  15.894  10.419  0.00  0.00     0.215 C 
BRANCH  34  35
HETATM   35  C   UNK N   1      36.193  15.075  10.921  0.00  0.00     0.179 C 
BRANCH  35  36
HETATM   36  C   UNK N   1      36.291  13.660  10.287  0.00  0.00     0.117 C 
HETATM   37  C   UNK N   1      34.875  13.233   9.878  0.00  0.00     0.052 C 
BRANCH  36  38
HETATM   38  C   UNK N   1      37.176  13.725   9.033  0.00  0.00     0.205 C 
BRANCH  38  39
HETATM   39  O   UNK N   1      36.501  14.328   7.969  0.00  0.00    -0.398 OA
HETATM   40  H   UNK N   1      36.230  14.902   7.236  0.00  0.00     0.209 HD
ENDBRANCH  38  39
ENDBRANCH  36  38
BRANCH  36  41
HETATM   41  O   UNK N   1      36.880  12.794  11.249  0.00  0.00    -0.281 OA
BRANCH  41  42
HETATM   42  P   UNK N   1      36.077  12.802  12.817  0.00  0.00     0.391 P 
HETATM   43  O   UNK N   1      36.074  11.377  13.433  0.00  0.00    -0.632 OA
BRANCH  42  44
HETATM   44  O   UNK N   1      36.922  13.824  13.937  0.00  0.00    -0.307 OA
HETATM   45  H   UNK N   1      37.045  14.693  14.350  0.00  0.00     0.222 HD
ENDBRANCH  42  44
BRANCH  42  46
HETATM   46  O   UNK N   1      34.424  13.312  12.665  0.00  0.00    -0.307 OA
HETATM   47  H   UNK N   1      33.774  13.787  13.205  0.00  0.00     0.222 HD
ENDBRANCH  42  46
ENDBRANCH  41  42
ENDBRANCH  36  41
ENDBRANCH  35  36
BRANCH  35  48
HETATM   48  O   UNK N   1      37.354  15.807  10.655  0.00  0.00    -0.390 OA
HETATM   49  H   UNK N   1      38.035  16.069  11.295  0.00  0.00     0.210 HD
ENDBRANCH  35  48
ENDBRANCH  34  35
ENDBRANCH  33  34
ENDBRANCH  29  33
ENDBRANCH  28  29
ENDBRANCH   2  28
TORSDOF 23
ENDMDL
MODEL 3
REMARK VINA RESULT:      -6.8      4.939     11.467
REMARK  23 active torsions:
REMARK  status: ('A' for Active; 'I' for Inactive)
REMARK    1  A    between atoms: C_7  and  C_4 
REMARK    2  A    between atoms: O_32  and  C_4 
REMARK    3  A    between atoms: C_8  and  C_5 
REMARK    4  A    between atoms: O_33  and  C_5 
REMARK    5  A    between atoms: C_14  and  C_6 
REMARK    6  A    between atoms: O_20  and  C_6 
REMARK    7  A    between atoms: C_14  and  C_8 
REMARK    8  A    between atoms: C_8  and  O_21 
REMARK    9  A    between atoms: N_15  and  C_9 
REMARK   10  A    between atoms: C_10  and  O_22 
REMARK   11  A    between atoms: C_11  and  O_23 
REMARK   12  A    between atoms: C_12  and  N_19 
REMARK   13  A    between atoms: O_24  and  C_13 
REMARK   14  A    between atoms: C_14  and  O_35 
REMARK   15  A    between atoms: P_37  and  O_25 
REMARK   16  A    between atoms: P_37  and  O_26 
REMARK   17  A    between atoms: P_38  and  O_28 
REMARK   18  A    between atoms: P_39  and  O_30 
REMARK   19  A    between atoms: P_38  and  O_32 
REMARK   20  A    between atoms: P_39  and  O_33 
REMARK   21  A    between atoms: P_37  and  O_35 
REMARK   22  A    between atoms: P_38  and  O_36 
REMARK   23  A    between atoms: P_39  and  O_36 
ROOT
HETATM    1  O   UNK N   1      34.089  15.498   8.418  0.00  0.00    -0.631 OA
HETATM    2  P   UNK N   1      33.248  14.517   9.280  0.00  0.00     0.401 P 
ENDROOT
BRANCH   2   3
HETATM    3  O   UNK N   1      33.122  14.881  10.984  0.00  0.00    -0.307 OA
HETATM    4  H   UNK N   1      32.958  14.665  11.915  0.00  0.00     0.222 HD
ENDBRANCH   2   3
BRANCH   2   5
HETATM    5  O   UNK N   1      32.126  15.899   9.460  0.00  0.00    -0.294 OA
BRANCH   5   6
HETATM    6  C   UNK N   1      31.543  16.343   8.244  0.00  0.00     0.215 C 
BRANCH   6   7
HETATM    7  C   UNK N   1      30.529  17.447   8.473  0.00  0.00     0.180 C 
HETATM    8  C   UNK N   1      29.405  16.977   9.389  0.00  0.00     0.182 C 
HETATM    9  C   UNK N   1      28.225  17.845   8.958  0.00  0.00     0.198 C 
HETATM   10  C   UNK N   1      28.836  18.651   7.801  0.00  0.00     0.262 C 
HETATM   11  O   UNK N   1      29.877  17.845   7.290  0.00  0.00    -0.353 OA
BRANCH   8  12
HETATM   12  O   UNK N   1      29.733  17.117  10.740  0.00  0.00    -0.390 OA
HETATM   13  H   UNK N   1      30.170  16.421  11.255  0.00  0.00     0.210 HD
ENDBRANCH   8  12
BRANCH   9  14
HETATM   14  O   UNK N   1      27.203  17.013   8.483  0.00  0.00    -0.388 OA
HETATM   15  H   UNK N   1      26.328  16.691   8.216  0.00  0.00     0.210 HD
ENDBRANCH   9  14
BRANCH  10  16
HETATM   16  N   UNK N   1      27.871  19.058   6.763  0.00  0.00    -0.293 N 
HETATM   17  C   UNK N   1      27.303  20.298   6.822  0.00  0.00     0.101 A 
HETATM   18  C   UNK N   1      26.346  20.685   5.888  0.00  0.00     0.065 A 
HETATM   19  C   UNK N   1      25.980  19.779   4.899  0.00  0.00     0.102 A 
HETATM   20  N   UNK N   1      26.560  18.554   4.857  0.00  0.00    -0.308 N 
HETATM   21  C   UNK N   1      27.497  18.186   5.773  0.00  0.00     0.227 A 
ATOM     22  HN  UNK N   1      26.290  17.896   4.126  1.00  0.00     0.171 HD
BRANCH  19  23
HETATM   23  N   UNK N   1      25.091  20.096   4.038  0.00  0.00    -0.385 N 
HETATM   24  H   UNK N   1      25.204  19.886   3.083  0.00  0.00     0.157 HD
ATOM     25  HN  UNK N   1      24.246  20.577   4.347  1.00  0.00     0.157 HD
ENDBRANCH  19  23
BRANCH  21  26
HETATM   26  O   UNK N   1      28.029  16.953   5.708  0.00  0.00    -0.332 OA
HETATM   27  H   UNK N   1      27.521  16.177   5.841  0.00  0.00     0.221 HD
ENDBRANCH  21  26
ENDBRANCH  10  16
ENDBRANCH   6   7
ENDBRANCH   5   6
ENDBRANCH   2   5
BRANCH   2  28
HETATM   28  O   UNK N   1      34.758  14.216  10.202  0.00  0.00    -0.195 OA
BRANCH  28  29
HETATM   29  P   UNK N   1      35.572  15.597  10.984  0.00  0.00     0.401 P 
HETATM   30  O   UNK N   1      37.018  15.749  10.438  0.00  0.00    -0.631 OA
BRANCH  29  31
HETATM   31  O   UNK N   1      34.765  17.059  10.520  0.00  0.00    -0.307 OA
HETATM   32  H   UNK N   1      34.667  17.763   9.859  0.00  0.00     0.222 HD
ENDBRANCH  29  31
BRANCH  29  33
HETATM   33  O   UNK N   1      35.568  15.494  12.732  0.00  0.00    -0.294 OA
BRANCH  33  34
HETATM   34  C   UNK N   1      36.503  14.524  13.122  0.00  0.00     0.215 C 
BRANCH  34  35
HETATM   35  C   UNK N   1      36.309  14.073  14.578  0.00  0.00     0.179 C 
BRANCH  35  36
HETATM   36  C   UNK N   1      35.844  12.597  14.717  0.00  0.00     0.117 C 
HETATM   37  C   UNK N   1      34.607  12.581  15.627  0.00  0.00     0.052 C 
BRANCH  36  38
HETATM   38  C   UNK N   1      35.457  12.054  13.335  0.00  0.00     0.205 C 
BRANCH  38  39
HETATM   39  O   UNK N   1      34.296  12.667  12.857  0.00  0.00    -0.398 OA
HETATM   40  H   UNK N   1      33.414  12.856  12.502  0.00  0.00     0.209 HD
ENDBRANCH  38  39
ENDBRANCH  36  38
BRANCH  36  41
HETATM   41  O   UNK N   1      36.933  11.848  15.244  0.00  0.00    -0.281 OA
BRANCH  41  42
HETATM   42  P   UNK N   1      36.471  10.305  15.956  0.00  0.00     0.391 P 
HETATM   43  O   UNK N   1      37.614   9.268  15.792  0.00  0.00    -0.632 OA
BRANCH  42  44
HETATM   44  O   UNK N   1      36.195  10.471  17.662  0.00  0.00    -0.307 OA
HETATM   45  H   UNK N   1      35.946  10.078  18.513  0.00  0.00     0.222 HD
ENDBRANCH  42  44
BRANCH  42  46
HETATM   46  O   UNK N   1      35.060   9.659  15.178  0.00  0.00    -0.307 OA
HETATM   47  H   UNK N   1      34.441   9.936  14.485  0.00  0.00     0.222 HD
ENDBRANCH  42  46
ENDBRANCH  41  42
ENDBRANCH  36  41
ENDBRANCH  35  36
BRANCH  35  48
HETATM   48  O   UNK N   1      37.519  14.266  15.253  0.00  0.00    -0.390 OA
HETATM   49  H   UNK N   1      37.835  13.776  16.029  0.00  0.00     0.210 HD
ENDBRANCH  35  48
ENDBRANCH  34  35
ENDBRANCH  33  34
ENDBRANCH  29  33
ENDBRANCH  28  29
ENDBRANCH   2  28
TORSDOF 23
ENDMDL
MODEL 4
REMARK VINA RESULT:      -6.6      4.911     11.291
REMARK  23 active torsions:
REMARK  status: ('A' for Active; 'I' for Inactive)
REMARK    1  A    between atoms: C_7  and  C_4 
REMARK    2  A    between atoms: O_32  and  C_4 
REMARK    3  A    between atoms: C_8  and  C_5 
REMARK    4  A    between atoms: O_33  and  C_5 
REMARK    5  A    between atoms: C_14  and  C_6 
REMARK    6  A    between atoms: O_20  and  C_6 
REMARK    7  A    between atoms: C_14  and  C_8 
REMARK    8  A    between atoms: C_8  and  O_21 
REMARK    9  A    between atoms: N_15  and  C_9 
REMARK   10  A    between atoms: C_10  and  O_22 
REMARK   11  A    between atoms: C_11  and  O_23 
REMARK   12  A    between atoms: C_12  and  N_19 
REMARK   13  A    between atoms: O_24  and  C_13 
REMARK   14  A    between atoms: C_14  and  O_35 
REMARK   15  A    between atoms: P_37  and  O_25 
REMARK   16  A    between atoms: P_37  and  O_26 
REMARK   17  A    between atoms: P_38  and  O_28 
REMARK   18  A    between atoms: P_39  and  O_30 
REMARK   19  A    between atoms: P_38  and  O_32 
REMARK   20  A    between atoms: P_39  and  O_33 
REMARK   21  A    between atoms: P_37  and  O_35 
REMARK   22  A    between atoms: P_38  and  O_36 
REMARK   23  A    between atoms: P_39  and  O_36 
ROOT
HETATM    1  O   UNK N   1      34.886  16.913   7.448  0.00  0.00    -0.631 OA
HETATM    2  P   UNK N   1      33.915  15.703   7.509  0.00  0.00     0.401 P 
ENDROOT
BRANCH   2   3
HETATM    3  O   UNK N   1      33.177  15.365   9.056  0.00  0.00    -0.307 OA
HETATM    4  H   UNK N   1      32.537  15.509   9.770  0.00  0.00     0.222 HD
ENDBRANCH   2   3
BRANCH   2   5
HETATM    5  O   UNK N   1      32.654  16.940   7.791  0.00  0.00    -0.294 OA
BRANCH   5   6
HETATM    6  C   UNK N   1      31.568  16.499   8.593  0.00  0.00     0.215 C 
BRANCH   6   7
HETATM    7  C   UNK N   1      30.473  17.543   8.685  0.00  0.00     0.180 C 
HETATM    8  C   UNK N   1      29.247  16.989   9.403  0.00  0.00     0.182 C 
HETATM    9  C   UNK N   1      28.103  17.809   8.811  0.00  0.00     0.198 C 
HETATM   10  C   UNK N   1      28.841  18.681   7.784  0.00  0.00     0.262 C 
HETATM   11  O   UNK N   1      29.992  17.945   7.424  0.00  0.00    -0.353 OA
BRANCH   8  12
HETATM   12  O   UNK N   1      29.354  17.103  10.791  0.00  0.00    -0.390 OA
HETATM   13  H   UNK N   1      30.182  17.322  11.244  0.00  0.00     0.210 HD
ENDBRANCH   8  12
BRANCH   9  14
HETATM   14  O   UNK N   1      27.214  16.943   8.163  0.00  0.00    -0.388 OA
HETATM   15  H   UNK N   1      26.670  16.528   7.476  0.00  0.00     0.210 HD
ENDBRANCH   9  14
BRANCH  10  16
HETATM   16  N   UNK N   1      28.029  19.072   6.617  0.00  0.00    -0.293 N 
HETATM   17  C   UNK N   1      28.333  18.566   5.386  0.00  0.00     0.101 A 
HETATM   18  C   UNK N   1      27.617  18.964   4.260  0.00  0.00     0.065 A 
HETATM   19  C   UNK N   1      26.594  19.890   4.418  0.00  0.00     0.102 A 
HETATM   20  N   UNK N   1      26.307  20.377   5.651  0.00  0.00    -0.308 N 
HETATM   21  C   UNK N   1      27.008  19.980   6.746  0.00  0.00     0.227 A 
ATOM     22  HN  UNK N   1      25.551  21.053   5.759  1.00  0.00     0.171 HD
BRANCH  19  23
HETATM   23  N   UNK N   1      25.931  20.291   3.401  0.00  0.00    -0.385 N 
HETATM   24  H   UNK N   1      26.223  21.069   2.873  0.00  0.00     0.157 HD
ATOM     25  HN  UNK N   1      25.082  19.793   3.131  1.00  0.00     0.157 HD
ENDBRANCH  19  23
BRANCH  21  26
HETATM   26  O   UNK N   1      26.706  20.506   7.946  0.00  0.00    -0.332 OA
HETATM   27  H   UNK N   1      26.481  19.977   8.686  0.00  0.00     0.221 HD
ENDBRANCH  21  26
ENDBRANCH  10  16
ENDBRANCH   6   7
ENDBRANCH   5   6
ENDBRANCH   2   5
BRANCH   2  28
HETATM   28  O   UNK N   1      35.044  15.006   8.717  0.00  0.00    -0.195 OA
BRANCH  28  29
HETATM   29  P   UNK N   1      35.211  15.815  10.297  0.00  0.00     0.401 P 
HETATM   30  O   UNK N   1      36.712  16.005  10.649  0.00  0.00    -0.631 OA
BRANCH  29  31
HETATM   31  O   UNK N   1      34.575  17.422  10.175  0.00  0.00    -0.307 OA
HETATM   32  H   UNK N   1      34.752  18.376  10.218  0.00  0.00     0.222 HD
ENDBRANCH  29  31
BRANCH  29  33
HETATM   33  O   UNK N   1      34.364  14.983  11.586  0.00  0.00    -0.294 OA
BRANCH  33  34
HETATM   34  C   UNK N   1      35.076  13.817  11.903  0.00  0.00     0.215 C 
BRANCH  34  35
HETATM   35  C   UNK N   1      35.614  13.831  13.343  0.00  0.00     0.179 C 
BRANCH  35  36
HETATM   36  C   UNK N   1      36.004  12.426  13.877  0.00  0.00     0.117 C 
HETATM   37  C   UNK N   1      36.388  11.558  12.671  0.00  0.00     0.052 C 
BRANCH  36  38
HETATM   38  C   UNK N   1      37.219  12.555  14.808  0.00  0.00     0.205 C 
BRANCH  38  39
HETATM   39  O   UNK N   1      38.368  12.026  14.215  0.00  0.00    -0.398 OA
HETATM   40  H   UNK N   1      39.199  11.896  13.731  0.00  0.00     0.209 HD
ENDBRANCH  38  39
ENDBRANCH  36  38
BRANCH  36  41
HETATM   41  O   UNK N   1      34.893  11.914  14.602  0.00  0.00    -0.281 OA
BRANCH  41  42
HETATM   42  P   UNK N   1      35.323  11.090  16.099  0.00  0.00     0.391 P 
HETATM   43  O   UNK N   1      34.224  10.065  16.488  0.00  0.00    -0.632 OA
BRANCH  42  44
HETATM   44  O   UNK N   1      36.794  10.188  15.906  0.00  0.00    -0.307 OA
HETATM   45  H   UNK N   1      37.654  10.071  15.474  0.00  0.00     0.222 HD
ENDBRANCH  42  44
BRANCH  42  46
HETATM   46  O   UNK N   1      35.475  12.220  17.407  0.00  0.00    -0.307 OA
HETATM   47  H   UNK N   1      35.204  12.272  18.337  0.00  0.00     0.222 HD
ENDBRANCH  42  46
ENDBRANCH  41  42
ENDBRANCH  36  41
ENDBRANCH  35  36
BRANCH  35  48
HETATM   48  O   UNK N   1      36.719  14.688  13.380  0.00  0.00    -0.390 OA
HETATM   49  H   UNK N   1      37.575  14.550  12.945  0.00  0.00     0.210 HD
ENDBRANCH  35  48
ENDBRANCH  34  35
ENDBRANCH  33  34
ENDBRANCH  29  33
ENDBRANCH  28  29
ENDBRANCH   2  28
TORSDOF 23
ENDMDL
MODEL 5
REMARK VINA RESULT:      -6.5      4.984     10.953
REMARK  23 active torsions:
REMARK  status: ('A' for Active; 'I' for Inactive)
REMARK    1  A    between atoms: C_7  and  C_4 
REMARK    2  A    between atoms: O_32  and  C_4 
REMARK    3  A    between atoms: C_8  and  C_5 
REMARK    4  A    between atoms: O_33  and  C_5 
REMARK    5  A    between atoms: C_14  and  C_6 
REMARK    6  A    between atoms: O_20  and  C_6 
REMARK    7  A    between atoms: C_14  and  C_8 
REMARK    8  A    between atoms: C_8  and  O_21 
REMARK    9  A    between atoms: N_15  and  C_9 
REMARK   10  A    between atoms: C_10  and  O_22 
REMARK   11  A    between atoms: C_11  and  O_23 
REMARK   12  A    between atoms: C_12  and  N_19 
REMARK   13  A    between atoms: O_24  and  C_13 
REMARK   14  A    between atoms: C_14  and  O_35 
REMARK   15  A    between atoms: P_37  and  O_25 
REMARK   16  A    between atoms: P_37  and  O_26 
REMARK   17  A    between atoms: P_38  and  O_28 
REMARK   18  A    between atoms: P_39  and  O_30 
REMARK   19  A    between atoms: P_38  and  O_32 
REMARK   20  A    between atoms: P_39  and  O_33 
REMARK   21  A    between atoms: P_37  and  O_35 
REMARK   22  A    between atoms: P_38  and  O_36 
REMARK   23  A    between atoms: P_39  and  O_36 
ROOT
HETATM    1  O   UNK N   1      33.475  17.243   5.623  0.00  0.00    -0.631 OA
HETATM    2  P   UNK N   1      33.706  15.816   6.189  0.00  0.00     0.401 P 
ENDROOT
BRANCH   2   3
HETATM    3  O   UNK N   1      33.389  15.586   7.892  0.00  0.00    -0.307 OA
HETATM    4  H   UNK N   1      33.105  15.868   8.775  0.00  0.00     0.222 HD
ENDBRANCH   2   3
BRANCH   2   5
HETATM    5  O   UNK N   1      31.931  15.798   6.415  0.00  0.00    -0.294 OA
BRANCH   5   6
HETATM    6  C   UNK N   1      31.203  16.465   5.394  0.00  0.00     0.215 C 
BRANCH   6   7
HETATM    7  C   UNK N   1      30.243  17.492   5.963  0.00  0.00     0.180 C 
HETATM    8  C   UNK N   1      29.448  16.911   7.128  0.00  0.00     0.182 C 
HETATM    9  C   UNK N   1      28.154  17.721   7.096  0.00  0.00     0.198 C 
HETATM   10  C   UNK N   1      28.373  18.614   5.865  0.00  0.00     0.262 C 
HETATM   11  O   UNK N   1      29.266  17.899   5.036  0.00  0.00    -0.353 OA
BRANCH   8  12
HETATM   12  O   UNK N   1      30.137  17.012   8.339  0.00  0.00    -0.390 OA
HETATM   13  H   UNK N   1      29.705  17.229   9.179  0.00  0.00     0.210 HD
ENDBRANCH   8  12
BRANCH   9  14
HETATM   14  O   UNK N   1      27.081  16.849   6.877  0.00  0.00    -0.388 OA
HETATM   15  H   UNK N   1      26.200  16.511   6.649  0.00  0.00     0.210 HD
ENDBRANCH   9  14
BRANCH  10  16
HETATM   16  N   UNK N   1      27.136  19.005   5.164  0.00  0.00    -0.293 N 
HETATM   17  C   UNK N   1      26.700  18.264   4.104  0.00  0.00     0.101 A 
HETATM   18  C   UNK N   1      25.567  18.645   3.391  0.00  0.00     0.065 A 
HETATM   19  C   UNK N   1      24.896  19.798   3.779  0.00  0.00     0.102 A 
HETATM   20  N   UNK N   1      25.345  20.518   4.837  0.00  0.00    -0.308 N 
HETATM   21  C   UNK N   1      26.450  20.136   5.531  0.00  0.00     0.227 A 
ATOM     22  HN  UNK N   1      24.844  21.361   5.119  1.00  0.00     0.171 HD
BRANCH  19  23
HETATM   23  N   UNK N   1      23.864  20.186   3.132  0.00  0.00    -0.385 N 
HETATM   24  H   UNK N   1      23.451  21.063   3.303  0.00  0.00     0.157 HD
ATOM     25  HN  UNK N   1      23.460  19.574   2.423  1.00  0.00     0.157 HD
ENDBRANCH  19  23
BRANCH  21  26
HETATM   26  O   UNK N   1      26.874  20.892   6.559  0.00  0.00    -0.332 OA
HETATM   27  H   UNK N   1      26.629  20.718   7.447  0.00  0.00     0.221 HD
ENDBRANCH  21  26
ENDBRANCH  10  16
ENDBRANCH   6   7
ENDBRANCH   5   6
ENDBRANCH   2   5
BRANCH   2  28
HETATM   28  O   UNK N   1      34.930  16.567   7.265  0.00  0.00    -0.195 OA
BRANCH  28  29
HETATM   29  P   UNK N   1      34.385  17.736   8.494  0.00  0.00     0.401 P 
HETATM   30  O   UNK N   1      35.224  19.041   8.406  0.00  0.00    -0.631 OA
BRANCH  29  31
HETATM   31  O   UNK N   1      32.763  18.224   8.125  0.00  0.00    -0.307 OA
HETATM   32  H   UNK N   1      32.185  18.847   7.656  0.00  0.00     0.222 HD
ENDBRANCH  29  31
BRANCH  29  33
HETATM   33  O   UNK N   1      34.409  17.083  10.120  0.00  0.00    -0.294 OA
BRANCH  33  34
HETATM   34  C   UNK N   1      35.686  16.560  10.369  0.00  0.00     0.215 C 
BRANCH  34  35
HETATM   35  C   UNK N   1      35.649  15.340  11.303  0.00  0.00     0.179 C 
BRANCH  35  36
HETATM   36  C   UNK N   1      36.211  14.044  10.658  0.00  0.00     0.117 C 
HETATM   37  C   UNK N   1      35.032  13.285  10.032  0.00  0.00     0.052 C 
BRANCH  36  38
HETATM   38  C   UNK N   1      37.209  14.417   9.553  0.00  0.00     0.205 C 
BRANCH  38  39
HETATM   39  O   UNK N   1      38.437  14.808  10.092  0.00  0.00    -0.398 OA
HETATM   40  H   UNK N   1      39.167  15.050  10.683  0.00  0.00     0.209 HD
ENDBRANCH  38  39
ENDBRANCH  36  38
BRANCH  36  41
HETATM   41  O   UNK N   1      36.872  13.304  11.677  0.00  0.00    -0.281 OA
BRANCH  41  42
HETATM   42  P   UNK N   1      35.870  12.075  12.445  0.00  0.00     0.391 P 
HETATM   43  O   UNK N   1      36.595  11.481  13.682  0.00  0.00    -0.632 OA
BRANCH  42  44
HETATM   44  O   UNK N   1      34.386  12.764  13.025  0.00  0.00    -0.307 OA
HETATM   45  H   UNK N   1      33.673  13.416  12.935  0.00  0.00     0.222 HD
ENDBRANCH  42  44
BRANCH  42  46
HETATM   46  O   UNK N   1      35.542  10.769  11.350  0.00  0.00    -0.307 OA
HETATM   47  H   UNK N   1      36.051  10.089  10.882  0.00  0.00     0.222 HD
ENDBRANCH  42  46
ENDBRANCH  41  42
ENDBRANCH  36  41
ENDBRANCH  35  36
BRANCH  35  48
HETATM   48  O   UNK N   1      36.371  15.660  12.457  0.00  0.00    -0.390 OA
HETATM   49  H   UNK N   1      37.331  15.781  12.526  0.00  0.00     0.210 HD
ENDBRANCH  35  48
ENDBRANCH  34  35
ENDBRANCH  33  34
ENDBRANCH  29  33
ENDBRANCH  28  29
ENDBRANCH   2  28
TORSDOF 23
ENDMDL
MODEL 6
REMARK VINA RESULT:      -6.5      2.330      3.887
REMARK  23 active torsions:
REMARK  status: ('A' for Active; 'I' for Inactive)
REMARK    1  A    between atoms: C_7  and  C_4 
REMARK    2  A    between atoms: O_32  and  C_4 
REMARK    3  A    between atoms: C_8  and  C_5 
REMARK    4  A    between atoms: O_33  and  C_5 
REMARK    5  A    between atoms: C_14  and  C_6 
REMARK    6  A    between atoms: O_20  and  C_6 
REMARK    7  A    between atoms: C_14  and  C_8 
REMARK    8  A    between atoms: C_8  and  O_21 
REMARK    9  A    between atoms: N_15  and  C_9 
REMARK   10  A    between atoms: C_10  and  O_22 
REMARK   11  A    between atoms: C_11  and  O_23 
REMARK   12  A    between atoms: C_12  and  N_19 
REMARK   13  A    between atoms: O_24  and  C_13 
REMARK   14  A    between atoms: C_14  and  O_35 
REMARK   15  A    between atoms: P_37  and  O_25 
REMARK   16  A    between atoms: P_37  and  O_26 
REMARK   17  A    between atoms: P_38  and  O_28 
REMARK   18  A    between atoms: P_39  and  O_30 
REMARK   19  A    between atoms: P_38  and  O_32 
REMARK   20  A    between atoms: P_39  and  O_33 
REMARK   21  A    between atoms: P_37  and  O_35 
REMARK   22  A    between atoms: P_38  and  O_36 
REMARK   23  A    between atoms: P_39  and  O_36 
ROOT
HETATM    1  O   UNK N   1      34.281  14.699  10.102  0.00  0.00    -0.631 OA
HETATM    2  P   UNK N   1      35.582  15.352   9.559  0.00  0.00     0.401 P 
ENDROOT
BRANCH   2   3
HETATM    3  O   UNK N   1      36.431  16.427  10.642  0.00  0.00    -0.307 OA
HETATM    4  H   UNK N   1      36.934  16.646  11.442  0.00  0.00     0.222 HD
ENDBRANCH   2   3
BRANCH   2   5
HETATM    5  O   UNK N   1      36.403  14.346  10.789  0.00  0.00    -0.294 OA
BRANCH   5   6
HETATM    6  C   UNK N   1      36.033  14.639  12.128  0.00  0.00     0.215 C 
BRANCH   6   7
HETATM    7  C   UNK N   1      36.201  13.436  13.037  0.00  0.00     0.180 C 
HETATM    8  C   UNK N   1      35.093  12.415  12.803  0.00  0.00     0.182 C 
HETATM    9  C   UNK N   1      34.986  11.711  14.155  0.00  0.00     0.198 C 
HETATM   10  C   UNK N   1      36.016  12.483  14.993  0.00  0.00     0.262 C 
HETATM   11  O   UNK N   1      36.097  13.764  14.402  0.00  0.00    -0.353 OA
BRANCH   8  12
HETATM   12  O   UNK N   1      35.389  11.549  11.747  0.00  0.00    -0.390 OA
HETATM   13  H   UNK N   1      36.229  11.570  11.264  0.00  0.00     0.210 HD
ENDBRANCH   8  12
BRANCH   9  14
HETATM   14  O   UNK N   1      33.698  11.909  14.666  0.00  0.00    -0.388 OA
HETATM   15  H   UNK N   1      32.901  11.824  15.213  0.00  0.00     0.210 HD
ENDBRANCH   9  14
BRANCH  10  16
HETATM   16  N   UNK N   1      35.712  12.540  16.435  0.00  0.00    -0.293 N 
HETATM   17  C   UNK N   1      35.364  13.732  17.002  0.00  0.00     0.101 A 
HETATM   18  C   UNK N   1      35.128  13.823  18.371  0.00  0.00     0.065 A 
HETATM   19  C   UNK N   1      35.263  12.677  19.145  0.00  0.00     0.102 A 
HETATM   20  N   UNK N   1      35.607  11.502  18.560  0.00  0.00    -0.308 N 
HETATM   21  C   UNK N   1      35.831  11.422  17.221  0.00  0.00     0.227 A 
ATOM     22  HN  UNK N   1      35.699  10.665  19.134  1.00  0.00     0.171 HD
BRANCH  19  23
HETATM   23  N   UNK N   1      35.073  12.731  20.407  0.00  0.00    -0.385 N 
HETATM   24  H   UNK N   1      34.758  13.556  20.844  0.00  0.00     0.157 HD
ATOM     25  HN  UNK N   1      35.250  11.902  20.975  1.00  0.00     0.157 HD
ENDBRANCH  19  23
BRANCH  21  26
HETATM   26  O   UNK N   1      36.193  10.243  16.686  0.00  0.00    -0.332 OA
HETATM   27  H   UNK N   1      35.839   9.426  16.978  0.00  0.00     0.221 HD
ENDBRANCH  21  26
ENDBRANCH  10  16
ENDBRANCH   6   7
ENDBRANCH   5   6
ENDBRANCH   2   5
BRANCH   2  28
HETATM   28  O   UNK N   1      34.759  16.927   9.815  0.00  0.00    -0.195 OA
BRANCH  28  29
HETATM   29  P   UNK N   1      34.315  17.901   8.390  0.00  0.00     0.401 P 
HETATM   30  O   UNK N   1      32.810  18.284   8.447  0.00  0.00    -0.631 OA
BRANCH  29  31
HETATM   31  O   UNK N   1      35.161  19.412   8.456  0.00  0.00    -0.307 OA
HETATM   32  H   UNK N   1      35.857  19.940   8.880  0.00  0.00     0.222 HD
ENDBRANCH  29  31
BRANCH  29  33
HETATM   33  O   UNK N   1      34.706  17.115   6.874  0.00  0.00    -0.294 OA
BRANCH  33  34
HETATM   34  C   UNK N   1      33.716  17.443   5.936  0.00  0.00     0.215 C 
BRANCH  34  35
HETATM   35  C   UNK N   1      33.126  16.202   5.246  0.00  0.00     0.179 C 
BRANCH  35  36
HETATM   36  C   UNK N   1      31.720  15.806   5.773  0.00  0.00     0.117 C 
HETATM   37  C   UNK N   1      31.115  14.804   4.779  0.00  0.00     0.052 C 
BRANCH  36  38
HETATM   38  C   UNK N   1      31.862  15.128   7.143  0.00  0.00     0.205 C 
BRANCH  38  39
HETATM   39  O   UNK N   1      33.070  14.434   7.241  0.00  0.00    -0.398 OA
HETATM   40  H   UNK N   1      33.794  13.845   7.505  0.00  0.00     0.209 HD
ENDBRANCH  38  39
ENDBRANCH  36  38
BRANCH  36  41
HETATM   41  O   UNK N   1      30.953  16.997   5.900  0.00  0.00    -0.281 OA
BRANCH  41  42
HETATM   42  P   UNK N   1      29.626  17.129   4.748  0.00  0.00     0.391 P 
HETATM   43  O   UNK N   1      28.921  18.505   4.889  0.00  0.00    -0.632 OA
BRANCH  42  44
HETATM   44  O   UNK N   1      30.213  17.039   3.118  0.00  0.00    -0.307 OA
HETATM   45  H   UNK N   1      30.762  16.602   2.447  0.00  0.00     0.222 HD
ENDBRANCH  42  44
BRANCH  42  46
HETATM   46  O   UNK N   1      28.435  15.898   5.029  0.00  0.00    -0.307 OA
HETATM   47  H   UNK N   1      27.483  15.783   4.885  0.00  0.00     0.222 HD
ENDBRANCH  42  46
ENDBRANCH  41  42
ENDBRANCH  36  41
ENDBRANCH  35  36
BRANCH  35  48
HETATM   48  O   UNK N   1      33.075  16.458   3.872  0.00  0.00    -0.390 OA
HETATM   49  H   UNK N   1      32.429  17.014   3.409  0.00  0.00     0.210 HD
ENDBRANCH  35  48
ENDBRANCH  34  35
ENDBRANCH  33  34
ENDBRANCH  29  33
ENDBRANCH  28  29
ENDBRANCH   2  28
TORSDOF 23
ENDMDL
MODEL 7
REMARK VINA RESULT:      -6.5     12.127     14.375
REMARK  23 active torsions:
REMARK  status: ('A' for Active; 'I' for Inactive)
REMARK    1  A    between atoms: C_7  and  C_4 
REMARK    2  A    between atoms: O_32  and  C_4 
REMARK    3  A    between atoms: C_8  and  C_5 
REMARK    4  A    between atoms: O_33  and  C_5 
REMARK    5  A    between atoms: C_14  and  C_6 
REMARK    6  A    between atoms: O_20  and  C_6 
REMARK    7  A    between atoms: C_14  and  C_8 
REMARK    8  A    between atoms: C_8  and  O_21 
REMARK    9  A    between atoms: N_15  and  C_9 
REMARK   10  A    between atoms: C_10  and  O_22 
REMARK   11  A    between atoms: C_11  and  O_23 
REMARK   12  A    between atoms: C_12  and  N_19 
REMARK   13  A    between atoms: O_24  and  C_13 
REMARK   14  A    between atoms: C_14  and  O_35 
REMARK   15  A    between atoms: P_37  and  O_25 
REMARK   16  A    between atoms: P_37  and  O_26 
REMARK   17  A    between atoms: P_38  and  O_28 
REMARK   18  A    between atoms: P_39  and  O_30 
REMARK   19  A    between atoms: P_38  and  O_32 
REMARK   20  A    between atoms: P_39  and  O_33 
REMARK   21  A    between atoms: P_37  and  O_35 
REMARK   22  A    between atoms: P_38  and  O_36 
REMARK   23  A    between atoms: P_39  and  O_36 
ROOT
HETATM    1  O   UNK N   1      22.098  13.868   9.811  0.00  0.00    -0.631 OA
HETATM    2  P   UNK N   1      20.600  14.137   9.504  0.00  0.00     0.401 P 
ENDROOT
BRANCH   2   3
HETATM    3  O   UNK N   1      20.200  14.557   7.856  0.00  0.00    -0.307 OA
HETATM    4  H   UNK N   1      19.775  14.418   6.995  0.00  0.00     0.222 HD
ENDBRANCH   2   3
BRANCH   2   5
HETATM    5  O   UNK N   1      20.704  12.646   8.522  0.00  0.00    -0.294 OA
BRANCH   5   6
HETATM    6  C   UNK N   1      22.015  12.325   8.079  0.00  0.00     0.215 C 
BRANCH   6   7
HETATM    7  C   UNK N   1      22.035  11.913   6.620  0.00  0.00     0.180 C 
HETATM    8  C   UNK N   1      23.358  12.290   5.963  0.00  0.00     0.182 C 
HETATM    9  C   UNK N   1      22.972  12.473   4.497  0.00  0.00     0.198 C 
HETATM   10  C   UNK N   1      21.455  12.233   4.540  0.00  0.00     0.262 C 
HETATM   11  O   UNK N   1      21.058  12.573   5.852  0.00  0.00    -0.353 OA
BRANCH   8  12
HETATM   12  O   UNK N   1      24.341  11.317   6.162  0.00  0.00    -0.390 OA
HETATM   13  H   UNK N   1      24.161  10.365   6.126  0.00  0.00     0.210 HD
ENDBRANCH   8  12
BRANCH   9  14
HETATM   14  O   UNK N   1      23.244  13.794   4.120  0.00  0.00    -0.388 OA
HETATM   15  H   UNK N   1      23.165  14.755   4.011  0.00  0.00     0.210 HD
ENDBRANCH   9  14
BRANCH  10  16
HETATM   16  N   UNK N   1      20.691  12.959   3.508  0.00  0.00    -0.293 N 
HETATM   17  C   UNK N   1      20.560  12.417   2.262  0.00  0.00     0.101 A 
HETATM   18  C   UNK N   1      19.893  13.109   1.255  0.00  0.00     0.065 A 
HETATM   19  C   UNK N   1      19.372  14.363   1.545  0.00  0.00     0.102 A 
HETATM   20  N   UNK N   1      19.511  14.881   2.791  0.00  0.00    -0.308 N 
HETATM   21  C   UNK N   1      20.161  14.196   3.770  0.00  0.00     0.227 A 
ATOM     22  HN  UNK N   1      19.121  15.801   2.998  1.00  0.00     0.171 HD
BRANCH  19  23
HETATM   23  N   UNK N   1      18.771  15.032   0.637  0.00  0.00    -0.385 N 
HETATM   24  H   UNK N   1      18.209  15.809   0.860  0.00  0.00     0.157 HD
ATOM     25  HN  UNK N   1      18.878  14.756  -0.339  1.00  0.00     0.157 HD
ENDBRANCH  19  23
BRANCH  21  26
HETATM   26  O   UNK N   1      20.296  14.758   4.985  0.00  0.00    -0.332 OA
HETATM   27  H   UNK N   1      20.034  15.639   5.164  0.00  0.00     0.221 HD
ENDBRANCH  21  26
ENDBRANCH  10  16
ENDBRANCH   6   7
ENDBRANCH   5   6
ENDBRANCH   2   5
BRANCH   2  28
HETATM   28  O   UNK N   1      21.114  15.790   9.028  0.00  0.00    -0.195 OA
BRANCH  28  29
HETATM   29  P   UNK N   1      19.896  16.905   8.358  0.00  0.00     0.401 P 
HETATM   30  O   UNK N   1      18.466  16.424   8.728  0.00  0.00    -0.631 OA
BRANCH  29  31
HETATM   31  O   UNK N   1      20.061  18.447   9.131  0.00  0.00    -0.307 OA
HETATM   32  H   UNK N   1      20.102  18.942   9.965  0.00  0.00     0.222 HD
ENDBRANCH  29  31
BRANCH  29  33
HETATM   33  O   UNK N   1      20.054  17.134   6.629  0.00  0.00    -0.294 OA
BRANCH  33  34
HETATM   34  C   UNK N   1      21.043  18.101   6.398  0.00  0.00     0.215 C 
BRANCH  34  35
HETATM   35  C   UNK N   1      22.140  17.603   5.442  0.00  0.00     0.179 C 
BRANCH  35  36
HETATM   36  C   UNK N   1      21.821  17.854   3.943  0.00  0.00     0.117 C 
HETATM   37  C   UNK N   1      22.382  19.234   3.572  0.00  0.00     0.052 C 
BRANCH  36  38
HETATM   38  C   UNK N   1      22.517  16.784   3.089  0.00  0.00     0.205 C 
BRANCH  38  39
HETATM   39  O   UNK N   1      23.809  16.528   3.554  0.00  0.00    -0.398 OA
HETATM   40  H   UNK N   1      24.769  16.427   3.645  0.00  0.00     0.209 HD
ENDBRANCH  38  39
ENDBRANCH  36  38
BRANCH  36  41
HETATM   41  O   UNK N   1      20.412  17.763   3.778  0.00  0.00    -0.281 OA
BRANCH  41  42
HETATM   42  P   UNK N   1      19.789  18.630   2.377  0.00  0.00     0.391 P 
HETATM   43  O   UNK N   1      20.335  20.083   2.352  0.00  0.00    -0.632 OA
BRANCH  42  44
HETATM   44  O   UNK N   1      20.316  17.879   0.903  0.00  0.00    -0.307 OA
HETATM   45  H   UNK N   1      20.946  17.827   0.168  0.00  0.00     0.222 HD
ENDBRANCH  42  44
BRANCH  42  46
HETATM   46  O   UNK N   1      18.056  18.720   2.422  0.00  0.00    -0.307 OA
HETATM   47  H   UNK N   1      17.372  18.936   3.075  0.00  0.00     0.222 HD
ENDBRANCH  42  46
ENDBRANCH  41  42
ENDBRANCH  36  41
ENDBRANCH  35  36
BRANCH  35  48
HETATM   48  O   UNK N   1      23.337  18.234   5.796  0.00  0.00    -0.390 OA
HETATM   49  H   UNK N   1      23.444  18.964   6.426  0.00  0.00     0.210 HD
ENDBRANCH  35  48
ENDBRANCH  34  35
ENDBRANCH  33  34
ENDBRANCH  29  33
ENDBRANCH  28  29
ENDBRANCH   2  28
TORSDOF 23
ENDMDL
MODEL 8
REMARK VINA RESULT:      -6.5      5.107      8.918
REMARK  23 active torsions:
REMARK  status: ('A' for Active; 'I' for Inactive)
REMARK    1  A    between atoms: C_7  and  C_4 
REMARK    2  A    between atoms: O_32  and  C_4 
REMARK    3  A    between atoms: C_8  and  C_5 
REMARK    4  A    between atoms: O_33  and  C_5 
REMARK    5  A    between atoms: C_14  and  C_6 
REMARK    6  A    between atoms: O_20  and  C_6 
REMARK    7  A    between atoms: C_14  and  C_8 
REMARK    8  A    between atoms: C_8  and  O_21 
REMARK    9  A    between atoms: N_15  and  C_9 
REMARK   10  A    between atoms: C_10  and  O_22 
REMARK   11  A    between atoms: C_11  and  O_23 
REMARK   12  A    between atoms: C_12  and  N_19 
REMARK   13  A    between atoms: O_24  and  C_13 
REMARK   14  A    between atoms: C_14  and  O_35 
REMARK   15  A    between atoms: P_37  and  O_25 
REMARK   16  A    between atoms: P_37  and  O_26 
REMARK   17  A    between atoms: P_38  and  O_28 
REMARK   18  A    between atoms: P_39  and  O_30 
REMARK   19  A    between atoms: P_38  and  O_32 
REMARK   20  A    between atoms: P_39  and  O_33 
REMARK   21  A    between atoms: P_37  and  O_35 
REMARK   22  A    between atoms: P_38  and  O_36 
REMARK   23  A    between atoms: P_39  and  O_36 
ROOT
HETATM    1  O   UNK N   1      27.896  20.333   4.065  0.00  0.00    -0.631 OA
HETATM    2  P   UNK N   1      27.467  20.322   5.558  0.00  0.00     0.401 P 
ENDROOT
BRANCH   2   3
HETATM    3  O   UNK N   1      26.196  19.209   6.001  0.00  0.00    -0.307 OA
HETATM    4  H   UNK N   1      25.627  18.735   6.626  0.00  0.00     0.222 HD
ENDBRANCH   2   3
BRANCH   2   5
HETATM    5  O   UNK N   1      28.168  18.676   5.575  0.00  0.00    -0.294 OA
BRANCH   5   6
HETATM    6  C   UNK N   1      27.436  17.736   6.348  0.00  0.00     0.215 C 
BRANCH   6   7
HETATM    7  C   UNK N   1      28.280  17.135   7.455  0.00  0.00     0.180 C 
HETATM    8  C   UNK N   1      28.564  18.162   8.545  0.00  0.00     0.182 C 
HETATM    9  C   UNK N   1      29.891  17.682   9.131  0.00  0.00     0.198 C 
HETATM   10  C   UNK N   1      30.207  16.472   8.239  0.00  0.00     0.262 C 
HETATM   11  O   UNK N   1      29.552  16.727   7.013  0.00  0.00    -0.353 OA
BRANCH   8  12
HETATM   12  O   UNK N   1      27.534  18.232   9.486  0.00  0.00    -0.390 OA
HETATM   13  H   UNK N   1      27.598  17.847  10.373  0.00  0.00     0.210 HD
ENDBRANCH   8  12
BRANCH   9  14
HETATM   14  O   UNK N   1      30.853  18.683   8.950  0.00  0.00    -0.388 OA
HETATM   15  H   UNK N   1      31.382  19.485   9.080  0.00  0.00     0.210 HD
ENDBRANCH   9  14
BRANCH  10  16
HETATM   16  N   UNK N   1      31.646  16.197   8.069  0.00  0.00    -0.293 N 
HETATM   17  C   UNK N   1      32.262  16.537   6.900  0.00  0.00     0.101 A 
HETATM   18  C   UNK N   1      33.606  16.236   6.693  0.00  0.00     0.065 A 
HETATM   19  C   UNK N   1      34.300  15.577   7.700  0.00  0.00     0.102 A 
HETATM   20  N   UNK N   1      33.669  15.251   8.855  0.00  0.00    -0.308 N 
HETATM   21  C   UNK N   1      32.357  15.553   9.050  0.00  0.00     0.227 A 
ATOM     22  HN  UNK N   1      34.187  14.772   9.591  1.00  0.00     0.171 HD
BRANCH  19  23
HETATM   23  N   UNK N   1      35.529  15.269   7.533  0.00  0.00    -0.385 N 
HETATM   24  H   UNK N   1      35.792  14.467   7.025  0.00  0.00     0.157 HD
ATOM     25  HN  UNK N   1      36.252  15.866   7.934  1.00  0.00     0.157 HD
ENDBRANCH  19  23
BRANCH  21  26
HETATM   26  O   UNK N   1      31.764  15.190  10.201  0.00  0.00    -0.332 OA
HETATM   27  H   UNK N   1      31.074  14.557  10.236  0.00  0.00     0.221 HD
ENDBRANCH  21  26
ENDBRANCH  10  16
ENDBRANCH   6   7
ENDBRANCH   5   6
ENDBRANCH   2   5
BRANCH   2  28
HETATM   28  O   UNK N   1      25.841  20.805   4.973  0.00  0.00    -0.195 OA
BRANCH  28  29
HETATM   29  P   UNK N   1      24.976  19.716   3.858  0.00  0.00     0.401 P 
HETATM   30  O   UNK N   1      24.605  20.469   2.550  0.00  0.00    -0.631 OA
BRANCH  29  31
HETATM   31  O   UNK N   1      26.054  18.456   3.355  0.00  0.00    -0.307 OA
HETATM   32  H   UNK N   1      26.758  18.177   2.748  0.00  0.00     0.222 HD
ENDBRANCH  29  31
BRANCH  29  33
HETATM   33  O   UNK N   1      23.561  18.978   4.580  0.00  0.00    -0.294 OA
BRANCH  33  34
HETATM   34  C   UNK N   1      22.656  18.660   3.557  0.00  0.00     0.215 C 
BRANCH  34  35
HETATM   35  C   UNK N   1      21.518  19.687   3.439  0.00  0.00     0.179 C 
BRANCH  35  36
HETATM   36  C   UNK N   1      20.640  19.502   2.172  0.00  0.00     0.117 C 
HETATM   37  C   UNK N   1      19.197  19.256   2.636  0.00  0.00     0.052 C 
BRANCH  36  38
HETATM   38  C   UNK N   1      20.682  20.786   1.331  0.00  0.00     0.205 C 
BRANCH  38  39
HETATM   39  O   UNK N   1      20.603  20.499  -0.034  0.00  0.00    -0.398 OA
HETATM   40  H   UNK N   1      20.383  20.128  -0.903  0.00  0.00     0.209 HD
ENDBRANCH  38  39
ENDBRANCH  36  38
BRANCH  36  41
HETATM   41  O   UNK N   1      21.178  18.417   1.426  0.00  0.00    -0.281 OA
BRANCH  41  42
HETATM   42  P   UNK N   1      20.190  16.959   1.453  0.00  0.00     0.391 P 
HETATM   43  O   UNK N   1      19.866  16.551   2.915  0.00  0.00    -0.632 OA
BRANCH  42  44
HETATM   44  O   UNK N   1      18.666  17.232   0.667  0.00  0.00    -0.307 OA
HETATM   45  H   UNK N   1      18.015  16.983  -0.007  0.00  0.00     0.222 HD
ENDBRANCH  42  44
BRANCH  42  46
HETATM   46  O   UNK N   1      21.023  15.631   0.709  0.00  0.00    -0.307 OA
HETATM   47  H   UNK N   1      20.878  14.680   0.585  0.00  0.00     0.222 HD
ENDBRANCH  42  46
ENDBRANCH  41  42
ENDBRANCH  36  41
ENDBRANCH  35  36
BRANCH  35  48
HETATM   48  O   UNK N   1      20.732  19.592   4.592  0.00  0.00    -0.390 OA
HETATM   49  H   UNK N   1      20.211  20.302   4.999  0.00  0.00     0.210 HD
ENDBRANCH  35  48
ENDBRANCH  34  35
ENDBRANCH  33  34
ENDBRANCH  29  33
ENDBRANCH  28  29
ENDBRANCH   2  28
TORSDOF 23
ENDMDL
MODEL 9
REMARK VINA RESULT:      -6.4      9.998     12.361
REMARK  23 active torsions:
REMARK  status: ('A' for Active; 'I' for Inactive)
REMARK    1  A    between atoms: C_7  and  C_4 
REMARK    2  A    between atoms: O_32  and  C_4 
REMARK    3  A    between atoms: C_8  and  C_5 
REMARK    4  A    between atoms: O_33  and  C_5 
REMARK    5  A    between atoms: C_14  and  C_6 
REMARK    6  A    between atoms: O_20  and  C_6 
REMARK    7  A    between atoms: C_14  and  C_8 
REMARK    8  A    between atoms: C_8  and  O_21 
REMARK    9  A    between atoms: N_15  and  C_9 
REMARK   10  A    between atoms: C_10  and  O_22 
REMARK   11  A    between atoms: C_11  and  O_23 
REMARK   12  A    between atoms: C_12  and  N_19 
REMARK   13  A    between atoms: O_24  and  C_13 
REMARK   14  A    between atoms: C_14  and  O_35 
REMARK   15  A    between atoms: P_37  and  O_25 
REMARK   16  A    between atoms: P_37  and  O_26 
REMARK   17  A    between atoms: P_38  and  O_28 
REMARK   18  A    between atoms: P_39  and  O_30 
REMARK   19  A    between atoms: P_38  and  O_32 
REMARK   20  A    between atoms: P_39  and  O_33 
REMARK   21  A    between atoms: P_37  and  O_35 
REMARK   22  A    between atoms: P_38  and  O_36 
REMARK   23  A    between atoms: P_39  and  O_36 
ROOT
HETATM    1  O   UNK N   1      23.781  13.691   7.840  0.00  0.00    -0.631 OA
HETATM    2  P   UNK N   1      23.122  12.968   6.634  0.00  0.00     0.401 P 
ENDROOT
BRANCH   2   3
HETATM    3  O   UNK N   1      22.441  13.985   5.387  0.00  0.00    -0.307 OA
HETATM    4  H   UNK N   1      21.717  14.431   4.920  0.00  0.00     0.222 HD
ENDBRANCH   2   3
BRANCH   2   5
HETATM    5  O   UNK N   1      24.478  13.658   5.692  0.00  0.00    -0.294 OA
BRANCH   5   6
HETATM    6  C   UNK N   1      24.389  13.444   4.292  0.00  0.00     0.215 C 
BRANCH   6   7
HETATM    7  C   UNK N   1      24.811  14.669   3.504  0.00  0.00     0.180 C 
HETATM    8  C   UNK N   1      26.239  14.522   2.989  0.00  0.00     0.182 C 
HETATM    9  C   UNK N   1      26.716  15.970   2.885  0.00  0.00     0.198 C 
HETATM   10  C   UNK N   1      25.499  16.740   3.421  0.00  0.00     0.262 C 
HETATM   11  O   UNK N   1      24.836  15.840   4.285  0.00  0.00    -0.353 OA
BRANCH   8  12
HETATM   12  O   UNK N   1      26.292  13.831   1.776  0.00  0.00    -0.390 OA
HETATM   13  H   UNK N   1      25.695  14.013   1.035  0.00  0.00     0.210 HD
ENDBRANCH   8  12
BRANCH   9  14
HETATM   14  O   UNK N   1      27.815  16.145   3.735  0.00  0.00    -0.388 OA
HETATM   15  H   UNK N   1      28.390  16.486   4.438  0.00  0.00     0.210 HD
ENDBRANCH   9  14
BRANCH  10  16
HETATM   16  N   UNK N   1      25.826  18.020   4.076  0.00  0.00    -0.293 N 
HETATM   17  C   UNK N   1      25.841  19.168   3.339  0.00  0.00     0.101 A 
HETATM   18  C   UNK N   1      26.203  20.380   3.921  0.00  0.00     0.065 A 
HETATM   19  C   UNK N   1      26.553  20.391   5.265  0.00  0.00     0.102 A 
HETATM   20  N   UNK N   1      26.528  19.239   5.980  0.00  0.00    -0.308 N 
HETATM   21  C   UNK N   1      26.170  18.061   5.404  0.00  0.00     0.227 A 
ATOM     22  HN  UNK N   1      26.782  19.257   6.968  1.00  0.00     0.171 HD
BRANCH  19  23
HETATM   23  N   UNK N   1      26.908  21.484   5.825  0.00  0.00    -0.385 N 
HETATM   24  H   UNK N   1      27.599  22.063   5.427  0.00  0.00     0.157 HD
ATOM     25  HN  UNK N   1      26.466  21.763   6.701  1.00  0.00     0.157 HD
ENDBRANCH  19  23
BRANCH  21  26
HETATM   26  O   UNK N   1      26.182  16.938   6.144  0.00  0.00    -0.332 OA
HETATM   27  H   UNK N   1      25.411  16.594   6.550  0.00  0.00     0.221 HD
ENDBRANCH  21  26
ENDBRANCH  10  16
ENDBRANCH   6   7
ENDBRANCH   5   6
ENDBRANCH   2   5
BRANCH   2  28
HETATM   28  O   UNK N   1      21.604  13.795   7.118  0.00  0.00    -0.195 OA
BRANCH  28  29
HETATM   29  P   UNK N   1      21.551  15.576   7.078  0.00  0.00     0.401 P 
HETATM   30  O   UNK N   1      21.262  16.138   8.497  0.00  0.00    -0.631 OA
BRANCH  29  31
HETATM   31  O   UNK N   1      23.127  16.176   6.675  0.00  0.00    -0.307 OA
HETATM   32  H   UNK N   1      24.053  16.283   6.944  0.00  0.00     0.222 HD
ENDBRANCH  29  31
BRANCH  29  33
HETATM   33  O   UNK N   1      20.406  16.202   5.909  0.00  0.00    -0.294 OA
BRANCH  33  34
HETATM   34  C   UNK N   1      20.956  17.349   5.319  0.00  0.00     0.215 C 
BRANCH  34  35
HETATM   35  C   UNK N   1      20.146  17.831   4.105  0.00  0.00     0.179 C 
BRANCH  35  36
HETATM   36  C   UNK N   1      20.962  17.863   2.784  0.00  0.00     0.117 C 
HETATM   37  C   UNK N   1      21.366  16.420   2.451  0.00  0.00     0.052 C 
BRANCH  36  38
HETATM   38  C   UNK N   1      20.078  18.408   1.653  0.00  0.00     0.205 C 
BRANCH  38  39
HETATM   39  O   UNK N   1      19.341  17.387   1.049  0.00  0.00    -0.398 OA
HETATM   40  H   UNK N   1      19.039  16.545   0.674  0.00  0.00     0.209 HD
ENDBRANCH  38  39
ENDBRANCH  36  38
BRANCH  36  41
HETATM   41  O   UNK N   1      22.077  18.722   2.983  0.00  0.00    -0.281 OA
BRANCH  41  42
HETATM   42  P   UNK N   1      21.774  20.408   2.570  0.00  0.00     0.391 P 
HETATM   43  O   UNK N   1      22.985  21.291   2.974  0.00  0.00    -0.632 OA
BRANCH  42  44
HETATM   44  O   UNK N   1      21.574  20.596   0.856  0.00  0.00    -0.307 OA
HETATM   45  H   UNK N   1      21.416  21.168   0.089  0.00  0.00     0.222 HD
ENDBRANCH  42  44
BRANCH  42  46
HETATM   46  O   UNK N   1      20.380  21.012   3.411  0.00  0.00    -0.307 OA
HETATM   47  H   UNK N   1      19.991  21.877   3.611  0.00  0.00     0.222 HD
ENDBRANCH  42  46
ENDBRANCH  41  42
ENDBRANCH  36  41
ENDBRANCH  35  36
BRANCH  35  48
HETATM   48  O   UNK N   1      19.035  16.992   3.969  0.00  0.00    -0.390 OA
HETATM   49  H   UNK N   1      18.577  16.517   4.680  0.00  0.00     0.210 HD
ENDBRANCH  35  48
ENDBRANCH  34  35
ENDBRANCH  33  34
ENDBRANCH  29  33
ENDBRANCH  28  29
ENDBRANCH   2  28
TORSDOF 23
ENDMDL
