REMARK  1 active torsions:
REMARK  status: ('A' for Active; 'I' for Inactive)
REMARK    1  A    between atoms: C_5  and  O_6 
ROOT
HETATM    1  C   UNK N   1       0.806  -2.368   0.000  0.00  0.00     0.048 C 
HETATM    2  C   UNK N   1       0.797  -0.884   0.000  0.00  0.00    -0.062 A 
HETATM    3  C   UNK N   1      -0.421  -0.199   0.000  0.00  0.00     0.009 A 
HETATM    4  C   UNK N   1      -0.436   1.198  -0.000  0.00  0.00     0.037 A 
HETATM    5  C   UNK N   1       0.766   1.910  -0.000  0.00  0.00     0.065 A 
HETATM    6  C   UNK N   1       1.987   1.225  -0.000  0.00  0.00     0.037 A 
HETATM    7  C   UNK N   1       2.002  -0.173  -0.000  0.00  0.00     0.009 A 
ENDROOT
BRANCH   5   8
HETATM    8  O   UNK N   1       0.748   3.252  -0.000  0.00  0.00    -0.361 OA
HETATM    9  H   UNK N   1       1.553   3.731  -0.000  0.00  0.00     0.217 HD
ENDBRANCH   5   8
TORSDOF 1
