MODEL 1
REMARK VINA RESULT:      -4.7      0.000      0.000
REMARK  3 active torsions:
REMARK  status: ('A' for Active; 'I' for Inactive)
REMARK    1  A    between atoms: C_4  and  O_7 
REMARK    2  A    between atoms: C_5  and  O_8 
REMARK    3  A    between atoms: C_6  and  O_9 
ROOT
HETATM    1  C   UNK N   1      20.111  16.852   1.507  0.00  0.00     0.040 C 
HETATM    2  C   UNK N   1      21.506  18.145   3.154  0.00  0.00     0.066 C 
HETATM    3  C   UNK N   1      20.161  18.091   2.380  0.00  0.00     0.123 C 
HETATM    4  C   UNK N   1      21.751  19.588   3.577  0.00  0.00     0.154 C 
HETATM    5  C   UNK N   1      21.891  20.457   2.304  0.00  0.00     0.201 C 
HETATM    6  C   UNK N   1      21.058  19.867   1.138  0.00  0.00     0.288 C 
HETATM    7  O   UNK N   1      19.869  19.268   1.614  0.00  0.00    -0.354 OA
ENDROOT
BRANCH   4   8
HETATM    8  O   UNK N   1      20.656  20.013   4.338  0.00  0.00    -0.393 OA
HETATM    9  H   UNK N   1      19.984  19.909   5.031  0.00  0.00     0.210 HD
ENDBRANCH   4   8
BRANCH   5  10
HETATM   10  O   UNK N   1      21.514  21.771   2.597  0.00  0.00    -0.388 OA
HETATM   11  H   UNK N   1      21.448  22.647   2.186  0.00  0.00     0.210 HD
ENDBRANCH   5  10
BRANCH   6  12
HETATM   12  O   UNK N   1      20.759  20.855   0.194  0.00  0.00    -0.369 OA
HETATM   13  H   UNK N   1      20.578  20.727  -0.749  0.00  0.00     0.212 HD
ENDBRANCH   6  12
TORSDOF 3
ENDMDL
MODEL 2
REMARK VINA RESULT:      -4.6     13.527     14.465
REMARK  3 active torsions:
REMARK  status: ('A' for Active; 'I' for Inactive)
REMARK    1  A    between atoms: C_4  and  O_7 
REMARK    2  A    between atoms: C_5  and  O_8 
REMARK    3  A    between atoms: C_6  and  O_9 
ROOT
HETATM    1  C   UNK N   1      32.785  17.462   5.476  0.00  0.00     0.040 C 
HETATM    2  C   UNK N   1      33.272  15.794   7.296  0.00  0.00     0.066 C 
HETATM    3  C   UNK N   1      32.683  17.193   6.965  0.00  0.00     0.123 C 
HETATM    4  C   UNK N   1      33.640  15.773   8.774  0.00  0.00     0.154 C 
HETATM    5  C   UNK N   1      34.741  16.831   9.022  0.00  0.00     0.201 C 
HETATM    6  C   UNK N   1      34.610  18.009   8.024  0.00  0.00     0.288 C 
HETATM    7  O   UNK N   1      33.254  18.271   7.720  0.00  0.00    -0.354 OA
ENDROOT
BRANCH   4   8
HETATM    8  O   UNK N   1      32.493  16.080   9.515  0.00  0.00    -0.393 OA
HETATM    9  H   UNK N   1      31.763  16.657   9.792  0.00  0.00     0.210 HD
ENDBRANCH   4   8
BRANCH   5  10
HETATM   10  O   UNK N   1      34.674  17.267  10.350  0.00  0.00    -0.388 OA
HETATM   11  H   UNK N   1      34.034  17.557  11.017  0.00  0.00     0.210 HD
ENDBRANCH   5  10
BRANCH   6  12
HETATM   12  O   UNK N   1      35.222  19.159   8.533  0.00  0.00    -0.369 OA
HETATM   13  H   UNK N   1      35.109  19.540   9.417  0.00  0.00     0.212 HD
ENDBRANCH   6  12
TORSDOF 3
ENDMDL
MODEL 3
REMARK VINA RESULT:      -4.6     14.047     14.999
REMARK  3 active torsions:
REMARK  status: ('A' for Active; 'I' for Inactive)
REMARK    1  A    between atoms: C_4  and  O_7 
REMARK    2  A    between atoms: C_5  and  O_8 
REMARK    3  A    between atoms: C_6  and  O_9 
ROOT
HETATM    1  C   UNK N   1      33.135  14.280   8.665  0.00  0.00     0.040 C 
HETATM    2  C   UNK N   1      32.772  16.428   7.406  0.00  0.00     0.066 C 
HETATM    3  C   UNK N   1      33.817  15.375   7.868  0.00  0.00     0.123 C 
HETATM    4  C   UNK N   1      33.512  17.723   7.097  0.00  0.00     0.154 C 
HETATM    5  C   UNK N   1      34.170  18.237   8.399  0.00  0.00     0.201 C 
HETATM    6  C   UNK N   1      34.535  17.057   9.336  0.00  0.00     0.288 C 
HETATM    7  O   UNK N   1      34.928  15.920   8.594  0.00  0.00    -0.354 OA
ENDROOT
BRANCH   4   8
HETATM    8  O   UNK N   1      34.488  17.451   6.132  0.00  0.00    -0.393 OA
HETATM    9  H   UNK N   1      35.151  16.891   5.697  0.00  0.00     0.210 HD
ENDBRANCH   4   8
BRANCH   5  10
HETATM   10  O   UNK N   1      35.292  19.009   8.078  0.00  0.00    -0.388 OA
HETATM   11  H   UNK N   1      36.050  19.024   7.474  0.00  0.00     0.210 HD
ENDBRANCH   5  10
BRANCH   6  12
HETATM   12  O   UNK N   1      35.548  17.427  10.227  0.00  0.00    -0.369 OA
HETATM   13  H   UNK N   1      35.722  18.313  10.580  0.00  0.00     0.212 HD
ENDBRANCH   6  12
TORSDOF 3
ENDMDL
MODEL 4
REMARK VINA RESULT:      -4.5     11.603     12.513
REMARK  3 active torsions:
REMARK  status: ('A' for Active; 'I' for Inactive)
REMARK    1  A    between atoms: C_4  and  O_7 
REMARK    2  A    between atoms: C_5  and  O_8 
REMARK    3  A    between atoms: C_6  and  O_9 
ROOT
HETATM    1  C   UNK N   1      29.362  22.310  -5.680  0.00  0.00     0.040 C 
HETATM    2  C   UNK N   1      31.689  21.387  -5.426  0.00  0.00     0.066 C 
HETATM    3  C   UNK N   1      30.228  21.340  -4.900  0.00  0.00     0.123 C 
HETATM    4  C   UNK N   1      32.602  20.845  -4.334  0.00  0.00     0.154 C 
HETATM    5  C   UNK N   1      32.503  21.775  -3.102  0.00  0.00     0.201 C 
HETATM    6  C   UNK N   1      31.104  22.437  -3.021  0.00  0.00     0.288 C 
HETATM    7  O   UNK N   1      30.098  21.560  -3.488  0.00  0.00    -0.354 OA
ENDROOT
BRANCH   4   8
HETATM    8  O   UNK N   1      32.173  19.554  -4.005  0.00  0.00    -0.393 OA
HETATM    9  H   UNK N   1      31.802  18.681  -4.209  0.00  0.00     0.210 HD
ENDBRANCH   4   8
BRANCH   5  10
HETATM   10  O   UNK N   1      32.799  21.047  -1.946  0.00  0.00    -0.388 OA
HETATM   11  H   UNK N   1      32.539  20.240  -1.475  0.00  0.00     0.210 HD
ENDBRANCH   5  10
BRANCH   6  12
HETATM   12  O   UNK N   1      30.823  22.842  -1.712  0.00  0.00    -0.369 OA
HETATM   13  H   UNK N   1      29.949  22.975  -1.315  0.00  0.00     0.212 HD
ENDBRANCH   6  12
TORSDOF 3
ENDMDL
MODEL 5
REMARK VINA RESULT:      -4.5      9.569     10.722
REMARK  3 active torsions:
REMARK  status: ('A' for Active; 'I' for Inactive)
REMARK    1  A    between atoms: C_4  and  O_7 
REMARK    2  A    between atoms: C_5  and  O_8 
REMARK    3  A    between atoms: C_6  and  O_9 
ROOT
HETATM    1  C   UNK N   1      31.586  17.144   6.502  0.00  0.00     0.040 C 
HETATM    2  C   UNK N   1      30.962  18.256   8.671  0.00  0.00     0.066 C 
HETATM    3  C   UNK N   1      30.725  17.031   7.746  0.00  0.00     0.123 C 
HETATM    4  C   UNK N   1      29.758  18.391   9.594  0.00  0.00     0.154 C 
HETATM    5  C   UNK N   1      28.506  18.673   8.731  0.00  0.00     0.201 C 
HETATM    6  C   UNK N   1      28.644  18.028   7.329  0.00  0.00     0.288 C 
HETATM    7  O   UNK N   1      29.352  16.806   7.398  0.00  0.00    -0.354 OA
ENDROOT
BRANCH   4   8
HETATM    8  O   UNK N   1      29.606  17.188  10.295  0.00  0.00    -0.393 OA
HETATM    9  H   UNK N   1      29.780  16.248  10.459  0.00  0.00     0.210 HD
ENDBRANCH   4   8
BRANCH   5  10
HETATM   10  O   UNK N   1      27.367  18.215   9.402  0.00  0.00    -0.388 OA
HETATM   11  H   UNK N   1      27.037  18.042  10.297  0.00  0.00     0.210 HD
ENDBRANCH   5  10
BRANCH   6  12
HETATM   12  O   UNK N   1      27.386  17.827   6.751  0.00  0.00    -0.369 OA
HETATM   13  H   UNK N   1      26.927  16.982   6.626  0.00  0.00     0.212 HD
ENDBRANCH   6  12
TORSDOF 3
ENDMDL
MODEL 6
REMARK VINA RESULT:      -4.3     18.839     19.923
REMARK  3 active torsions:
REMARK  status: ('A' for Active; 'I' for Inactive)
REMARK    1  A    between atoms: C_4  and  O_7 
REMARK    2  A    between atoms: C_5  and  O_8 
REMARK    3  A    between atoms: C_6  and  O_9 
ROOT
HETATM    1  C   UNK N   1      33.719  10.764  14.809  0.00  0.00     0.040 C 
HETATM    2  C   UNK N   1      36.163  11.021  14.269  0.00  0.00     0.066 C 
HETATM    3  C   UNK N   1      34.886  11.732  14.796  0.00  0.00     0.123 C 
HETATM    4  C   UNK N   1      37.129  12.090  13.775  0.00  0.00     0.154 C 
HETATM    5  C   UNK N   1      36.472  12.839  12.592  0.00  0.00     0.201 C 
HETATM    6  C   UNK N   1      34.929  12.853  12.736  0.00  0.00     0.288 C 
HETATM    7  O   UNK N   1      34.545  12.936  14.094  0.00  0.00    -0.354 OA
ENDROOT
BRANCH   4   8
HETATM    8  O   UNK N   1      37.383  12.973  14.831  0.00  0.00    -0.393 OA
HETATM    9  H   UNK N   1      37.903  13.314  15.576  0.00  0.00     0.210 HD
ENDBRANCH   4   8
BRANCH   5  10
HETATM   10  O   UNK N   1      36.996  14.134  12.514  0.00  0.00    -0.388 OA
HETATM   11  H   UNK N   1      37.498  14.777  13.037  0.00  0.00     0.210 HD
ENDBRANCH   5  10
BRANCH   6  12
HETATM   12  O   UNK N   1      34.373  13.911  12.010  0.00  0.00    -0.369 OA
HETATM   13  H   UNK N   1      34.353  14.014  11.047  0.00  0.00     0.212 HD
ENDBRANCH   6  12
TORSDOF 3
ENDMDL
MODEL 7
REMARK VINA RESULT:      -4.1     22.120     23.087
REMARK  3 active torsions:
REMARK  status: ('A' for Active; 'I' for Inactive)
REMARK    1  A    between atoms: C_4  and  O_7 
REMARK    2  A    between atoms: C_5  and  O_8 
REMARK    3  A    between atoms: C_6  and  O_9 
ROOT
HETATM    1  C   UNK N   1      43.400  19.060   2.873  0.00  0.00     0.040 C 
HETATM    2  C   UNK N   1      42.187  21.259   2.726  0.00  0.00     0.066 C 
HETATM    3  C   UNK N   1      43.452  20.464   2.303  0.00  0.00     0.123 C 
HETATM    4  C   UNK N   1      42.501  22.745   2.611  0.00  0.00     0.154 C 
HETATM    5  C   UNK N   1      43.638  23.086   3.603  0.00  0.00     0.201 C 
HETATM    6  C   UNK N   1      44.567  21.864   3.820  0.00  0.00     0.288 C 
HETATM    7  O   UNK N   1      44.693  21.104   2.634  0.00  0.00    -0.354 OA
ENDROOT
BRANCH   4   8
HETATM    8  O   UNK N   1      42.907  23.007   1.297  0.00  0.00    -0.393 OA
HETATM    9  H   UNK N   1      42.886  22.874   0.336  0.00  0.00     0.210 HD
ENDBRANCH   4   8
BRANCH   5  10
HETATM   10  O   UNK N   1      44.346  24.197   3.134  0.00  0.00    -0.388 OA
HETATM   11  H   UNK N   1      44.741  25.026   3.445  0.00  0.00     0.210 HD
ENDBRANCH   5  10
BRANCH   6  12
HETATM   12  O   UNK N   1      45.827  22.273   4.269  0.00  0.00    -0.369 OA
HETATM   13  H   UNK N   1      46.053  22.612   5.148  0.00  0.00     0.212 HD
ENDBRANCH   6  12
TORSDOF 3
ENDMDL
MODEL 8
REMARK VINA RESULT:      -4.0     12.534     13.519
REMARK  3 active torsions:
REMARK  status: ('A' for Active; 'I' for Inactive)
REMARK    1  A    between atoms: C_4  and  O_7 
REMARK    2  A    between atoms: C_5  and  O_8 
REMARK    3  A    between atoms: C_6  and  O_9 
ROOT
HETATM    1  C   UNK N   1      30.585  18.297   8.997  0.00  0.00     0.040 C 
HETATM    2  C   UNK N   1      31.270  17.128   6.877  0.00  0.00     0.066 C 
HETATM    3  C   UNK N   1      31.514  17.254   8.405  0.00  0.00     0.123 C 
HETATM    4  C   UNK N   1      32.513  16.511   6.249  0.00  0.00     0.154 C 
HETATM    5  C   UNK N   1      33.705  17.473   6.470  0.00  0.00     0.201 C 
HETATM    6  C   UNK N   1      33.523  18.286   7.776  0.00  0.00     0.288 C 
HETATM    7  O   UNK N   1      32.876  17.517   8.770  0.00  0.00    -0.354 OA
ENDROOT
BRANCH   4   8
HETATM    8  O   UNK N   1      32.756  15.282   6.874  0.00  0.00    -0.393 OA
HETATM    9  H   UNK N   1      32.535  14.369   7.116  0.00  0.00     0.210 HD
ENDBRANCH   4   8
BRANCH   5  10
HETATM   10  O   UNK N   1      34.897  16.740   6.478  0.00  0.00    -0.388 OA
HETATM   11  H   UNK N   1      35.818  16.801   6.774  0.00  0.00     0.210 HD
ENDBRANCH   5  10
BRANCH   6  12
HETATM   12  O   UNK N   1      34.757  18.748   8.248  0.00  0.00    -0.369 OA
HETATM   13  H   UNK N   1      34.981  18.990   9.159  0.00  0.00     0.212 HD
ENDBRANCH   6  12
TORSDOF 3
ENDMDL
MODEL 9
REMARK VINA RESULT:      -3.9     22.235     23.315
REMARK  3 active torsions:
REMARK  status: ('A' for Active; 'I' for Inactive)
REMARK    1  A    between atoms: C_4  and  O_7 
REMARK    2  A    between atoms: C_5  and  O_8 
REMARK    3  A    between atoms: C_6  and  O_9 
ROOT
HETATM    1  C   UNK N   1      44.512  22.787  -0.828  0.00  0.00     0.040 C 
HETATM    2  C   UNK N   1      42.849  22.271   0.988  0.00  0.00     0.066 C 
HETATM    3  C   UNK N   1      43.657  23.387   0.272  0.00  0.00     0.123 C 
HETATM    4  C   UNK N   1      42.443  22.788   2.362  0.00  0.00     0.154 C 
HETATM    5  C   UNK N   1      43.724  23.059   3.185  0.00  0.00     0.201 C 
HETATM    6  C   UNK N   1      44.903  23.452   2.258  0.00  0.00     0.288 C 
HETATM    7  O   UNK N   1      44.450  24.201   1.148  0.00  0.00    -0.354 OA
ENDROOT
BRANCH   4   8
HETATM    8  O   UNK N   1      41.717  23.973   2.187  0.00  0.00    -0.393 OA
HETATM    9  H   UNK N   1      41.626  24.915   1.976  0.00  0.00     0.210 HD
ENDBRANCH   4   8
BRANCH   5  10
HETATM   10  O   UNK N   1      43.463  24.048   4.138  0.00  0.00    -0.388 OA
HETATM   11  H   UNK N   1      43.915  24.608   4.788  0.00  0.00     0.210 HD
ENDBRANCH   5  10
BRANCH   6  12
HETATM   12  O   UNK N   1      45.870  24.173   2.966  0.00  0.00    -0.369 OA
HETATM   13  H   UNK N   1      46.517  23.822   3.597  0.00  0.00     0.212 HD
ENDBRANCH   6  12
TORSDOF 3
ENDMDL
