MODEL 1
REMARK VINA RESULT:      -1.7      0.000      0.000
REMARK  0 active torsions:
REMARK  status: ('A' for Active; 'I' for Inactive)
ROOT
HETATM    1  C   UNK N   1      17.241  19.000  11.498  0.00  0.00     0.136 C 
HETATM    2  N   UNK N   1      18.425  19.579  10.891  0.00  0.00    -0.434 N 
HETATM    3  H   UNK N   1      19.025  19.007  10.297  0.00  0.00     0.149 HD
HETATM    4  H   UNK N   1      18.657  20.558  11.057  0.00  0.00     0.149 HD
ENDROOT
TORSDOF 0
ENDMDL
MODEL 2
REMARK VINA RESULT:      -1.6     28.170     28.170
REMARK  0 active torsions:
REMARK  status: ('A' for Active; 'I' for Inactive)
ROOT
HETATM    1  C   UNK N   1      44.271  21.928   4.241  0.00  0.00     0.136 C 
HETATM    2  N   UNK N   1      45.679  22.270   4.164  0.00  0.00    -0.434 N 
HETATM    3  H   UNK N   1      46.174  22.584   4.999  0.00  0.00     0.149 HD
HETATM    4  H   UNK N   1      46.174  22.197   3.275  0.00  0.00     0.149 HD
ENDROOT
TORSDOF 0
ENDMDL
MODEL 3
REMARK VINA RESULT:      -1.5     10.725     10.725
REMARK  0 active torsions:
REMARK  status: ('A' for Active; 'I' for Inactive)
ROOT
HETATM    1  C   UNK N   1      20.793  20.575   1.670  0.00  0.00     0.136 C 
HETATM    2  N   UNK N   1      20.494  20.935   0.296  0.00  0.00    -0.434 N 
HETATM    3  H   UNK N   1      20.664  21.885  -0.031  0.00  0.00     0.149 HD
HETATM    4  H   UNK N   1      20.112  20.237  -0.342  0.00  0.00     0.149 HD
ENDROOT
TORSDOF 0
ENDMDL
MODEL 4
REMARK VINA RESULT:      -1.5     27.022     27.022
REMARK  0 active torsions:
REMARK  status: ('A' for Active; 'I' for Inactive)
ROOT
HETATM    1  C   UNK N   1      43.759  22.295   4.383  0.00  0.00     0.136 C 
HETATM    2  N   UNK N   1      43.561  23.690   4.035  0.00  0.00    -0.434 N 
HETATM    3  H   UNK N   1      42.670  24.144   4.234  0.00  0.00     0.149 HD
HETATM    4  H   UNK N   1      44.313  24.216   3.590  0.00  0.00     0.149 HD
ENDROOT
TORSDOF 0
ENDMDL
MODEL 5
REMARK VINA RESULT:      -1.5     31.446     31.446
REMARK  0 active torsions:
REMARK  status: ('A' for Active; 'I' for Inactive)
ROOT
HETATM    1  C   UNK N   1      47.147  29.131  17.342  0.00  0.00     0.136 C 
HETATM    2  N   UNK N   1      47.344  28.777  15.949  0.00  0.00    -0.434 N 
HETATM    3  H   UNK N   1      48.288  28.689  15.574  0.00  0.00     0.149 HD
HETATM    4  H   UNK N   1      46.538  28.617  15.344  0.00  0.00     0.149 HD
ENDROOT
TORSDOF 0
ENDMDL
MODEL 6
REMARK VINA RESULT:      -1.4     10.849     10.849
REMARK  0 active torsions:
REMARK  status: ('A' for Active; 'I' for Inactive)
ROOT
HETATM    1  C   UNK N   1      29.095  18.415   9.487  0.00  0.00     0.136 C 
HETATM    2  N   UNK N   1      27.698  18.447   9.096  0.00  0.00    -0.434 N 
HETATM    3  H   UNK N   1      27.313  19.277   8.646  0.00  0.00     0.149 HD
HETATM    4  H   UNK N   1      27.102  17.638   9.271  0.00  0.00     0.149 HD
ENDROOT
TORSDOF 0
ENDMDL
MODEL 7
REMARK VINA RESULT:      -1.4      9.650      9.650
REMARK  0 active torsions:
REMARK  status: ('A' for Active; 'I' for Inactive)
ROOT
HETATM    1  C   UNK N   1      23.847  11.974  11.422  0.00  0.00     0.136 C 
HETATM    2  N   UNK N   1      25.092  12.596  11.010  0.00  0.00    -0.434 N 
HETATM    3  H   UNK N   1      25.452  13.403  11.518  0.00  0.00     0.149 HD
HETATM    4  H   UNK N   1      25.607  12.225  10.211  0.00  0.00     0.149 HD
ENDROOT
TORSDOF 0
ENDMDL
MODEL 8
REMARK VINA RESULT:      -1.4      8.879      8.879
REMARK  0 active torsions:
REMARK  status: ('A' for Active; 'I' for Inactive)
ROOT
HETATM    1  C   UNK N   1      19.811  19.412   2.761  0.00  0.00     0.136 C 
HETATM    2  N   UNK N   1      18.697  18.595   2.317  0.00  0.00    -0.434 N 
HETATM    3  H   UNK N   1      18.856  17.828   1.665  0.00  0.00     0.149 HD
HETATM    4  H   UNK N   1      17.756  18.789   2.657  0.00  0.00     0.149 HD
ENDROOT
TORSDOF 0
ENDMDL
MODEL 9
REMARK VINA RESULT:      -1.3     17.615     17.615
REMARK  0 active torsions:
REMARK  status: ('A' for Active; 'I' for Inactive)
ROOT
HETATM    1  C   UNK N   1      35.460  16.035  11.295  0.00  0.00     0.136 C 
HETATM    2  N   UNK N   1      34.973  17.164  10.524  0.00  0.00    -0.434 N 
HETATM    3  H   UNK N   1      34.092  17.611  10.775  0.00  0.00     0.149 HD
HETATM    4  H   UNK N   1      35.512  17.510   9.731  0.00  0.00     0.149 HD
ENDROOT
TORSDOF 0
ENDMDL
