REMARK  19 active torsions:
REMARK  status: ('A' for Active; 'I' for Inactive)
REMARK    1  A    between atoms: C_28  and  C_7 
REMARK    2  A    between atoms: C_16  and  C_14 
REMARK    3  A    between atoms: C_24  and  C_14 
REMARK    4  A    between atoms: C_30  and  C_16 
REMARK    5  A    between atoms: C_35  and  C_23 
REMARK    6  A    between atoms: O_49  and  C_23 
REMARK    7  A    between atoms: C_30  and  C_25 
REMARK    8  A    between atoms: C_28  and  C_26 
REMARK    9  A    between atoms: O_49  and  C_27 
REMARK   10  A    between atoms: C_28  and  C_37 
REMARK   11  A    between atoms: C_29  and  C_38 
REMARK   12  A    between atoms: C_30  and  O_50 
REMARK   13  A    between atoms: O_44  and  C_31 
REMARK   14  A    between atoms: O_45  and  C_32 
REMARK   15  A    between atoms: O_46  and  C_33 
REMARK   16  A    between atoms: O_47  and  C_34 
REMARK   17  A    between atoms: O_41  and  C_35 
REMARK   18  A    between atoms: O_48  and  C_36 
REMARK       I    between atoms: N_39  and  C_37 
REMARK   19  A    between atoms: O_50  and  C_38 
ROOT
HETATM    1  O   UNK N   1      -0.638  -4.675   0.895  0.00  0.00    -0.310 OA
ENDROOT
BRANCH   1   2
HETATM    2  C   UNK N   1      -1.837  -5.240   1.208  0.00  0.00     0.165 C 
BRANCH   2   3
HETATM    3  C   UNK N   1      -2.932  -4.239   0.924  0.00  0.00     0.042 C 
BRANCH   3   4
HETATM    4  C   UNK N   1      -3.110  -3.805  -0.524  0.00  0.00     0.041 C 
BRANCH   4   5
HETATM    5  C   UNK N   1      -4.540  -3.464  -0.563  0.00  0.00    -0.055 A 
HETATM    6  C   UNK N   1      -4.940  -2.139  -0.413  0.00  0.00     0.010 A 
HETATM    7  C   UNK N   1      -6.274  -1.855  -0.134  0.00  0.00     0.040 A 
HETATM    8  C   UNK N   1      -7.211  -2.895   0.036  0.00  0.00     0.101 A 
HETATM    9  C   UNK N   1      -6.793  -4.242  -0.138  0.00  0.00     0.102 A 
HETATM   10  C   UNK N   1      -5.463  -4.500  -0.435  0.00  0.00     0.046 A 
BRANCH   8  11
HETATM   11  O   UNK N   1      -8.489  -2.613   0.379  0.00  0.00    -0.353 OA
HETATM   12  C   UNK N   1      -8.924  -1.345   0.692  0.00  0.00     0.210 C 
ENDBRANCH   8  11
BRANCH   9  13
HETATM   13  O   UNK N   1      -7.606  -5.317   0.021  0.00  0.00    -0.353 OA
HETATM   14  C   UNK N   1      -8.897  -5.277   0.488  0.00  0.00     0.210 C 
ENDBRANCH   9  13
ENDBRANCH   4   5
ENDBRANCH   3   4
ENDBRANCH   2   3
BRANCH   2  15
HETATM   15  C   UNK N   1      -1.971  -6.607   0.598  0.00  0.00    -0.026 A 
HETATM   16  C   UNK N   1      -1.045  -7.606   0.936  0.00  0.00     0.010 A 
HETATM   17  C   UNK N   1      -1.152  -8.880   0.377  0.00  0.00     0.003 A 
HETATM   18  C   UNK N   1      -2.189  -9.163  -0.513  0.00  0.00     0.037 A 
HETATM   19  C   UNK N   1      -3.110  -8.159  -0.863  0.00  0.00     0.070 A 
HETATM   20  C   UNK N   1      -2.990  -6.891  -0.311  0.00  0.00     0.046 A 
BRANCH  19  21
HETATM   21  O   UNK N   1      -4.159  -8.409  -1.674  0.00  0.00    -0.341 OA
BRANCH  21  22
HETATM   22  C   UNK N   1      -4.768  -9.641  -1.723  0.00  0.00     0.285 C 
BRANCH  22  23
HETATM   23  C   UNK N   1      -5.381  -9.920  -0.383  0.00  0.00     0.164 C 
HETATM   24  O   UNK N   1      -5.045 -10.907   0.248  0.00  0.00    -0.648 OA
BRANCH  23  25
HETATM   25  O   UNK N   1      -6.237  -9.033   0.162  0.00  0.00    -0.775 OA
HETATM   26  H   UNK N   1      -6.001  -8.210   0.541  0.00  0.00     0.167 HD
ENDBRANCH  23  25
ENDBRANCH  22  23
ENDBRANCH  21  22
ENDBRANCH  19  21
ENDBRANCH   2  15
ENDBRANCH   1   2
BRANCH   1  27
HETATM   27  C   UNK N   1      -0.060  -4.573  -0.331  0.00  0.00     0.282 C 
HETATM   28  O   UNK N   1      -0.523  -5.120  -1.321  0.00  0.00    -0.263 OA
BRANCH  27  29
HETATM   29  C   UNK N   1       1.267  -3.931  -0.346  0.00  0.00     0.186 C 
HETATM   30  C   UNK N   1       0.974  -2.434  -0.317  0.00  0.00     0.035 C 
HETATM   31  C   UNK N   1       2.051  -1.691   0.413  0.00  0.00     0.004 C 
HETATM   32  C   UNK N   1       1.910  -2.110   1.853  0.00  0.00     0.020 C 
HETATM   33  C   UNK N   1       2.181  -3.604   2.036  0.00  0.00     0.127 C 
HETATM   34  N   UNK N   1       1.937  -4.449   0.860  0.00  0.00    -0.338 N 
HETATM   35  C   UNK N   1       2.287  -5.780   0.967  0.00  0.00     0.229 C 
HETATM   36  O   UNK N   1       2.686  -6.216   2.034  0.00  0.00    -0.273 OA
BRANCH  35  37
HETATM   37  C   UNK N   1       2.525  -6.626  -0.284  0.00  0.00     0.111 C 
BRANCH  37  38
HETATM   38  C   UNK N   1       2.323  -8.119   0.029  0.00  0.00     0.014 C 
HETATM   39  C   UNK N   1       2.561  -8.993  -1.192  0.00  0.00     0.006 C 
ENDBRANCH  37  38
BRANCH  37  40
HETATM   40  C   UNK N   1       3.962  -6.243  -0.580  0.00  0.00    -0.040 A 
HETATM   41  C   UNK N   1       4.217  -4.922  -0.971  0.00  0.00     0.047 A 
HETATM   42  C   UNK N   1       5.479  -4.350  -0.828  0.00  0.00     0.104 A 
HETATM   43  C   UNK N   1       6.532  -5.106  -0.266  0.00  0.00     0.135 A 
HETATM   44  C   UNK N   1       6.285  -6.454   0.121  0.00  0.00     0.104 A 
HETATM   45  C   UNK N   1       5.004  -6.991  -0.027  0.00  0.00     0.047 A 
BRANCH  42  46
HETATM   46  O   UNK N   1       5.678  -3.056  -1.159  0.00  0.00    -0.353 OA
HETATM   47  C   UNK N   1       4.829  -2.062  -0.741  0.00  0.00     0.210 C 
ENDBRANCH  42  46
BRANCH  43  48
HETATM   48  O   UNK N   1       7.759  -4.561  -0.040  0.00  0.00    -0.351 OA
HETATM   49  C   UNK N   1       8.084  -3.225  -0.137  0.00  0.00     0.210 C 
ENDBRANCH  43  48
BRANCH  44  50
HETATM   50  O   UNK N   1       7.222  -7.247   0.701  0.00  0.00    -0.353 OA
HETATM   51  C   UNK N   1       8.505  -6.870   1.024  0.00  0.00     0.210 C 
ENDBRANCH  44  50
ENDBRANCH  37  40
ENDBRANCH  35  37
ENDBRANCH  27  29
ENDBRANCH   1  27
TORSDOF 19
