REMARK  15 active torsions:
REMARK  status: ('A' for Active; 'I' for Inactive)
REMARK    1  A    between atoms: C_3  and  C_2 
REMARK    2  A    between atoms: C_10  and  C_2 
REMARK    3  A    between atoms: C_11  and  C_3 
REMARK    4  A    between atoms: C_9  and  C_5 
REMARK    5  A    between atoms: N_15  and  C_5 
REMARK    6  A    between atoms: C_8  and  C_6 
REMARK    7  A    between atoms: O_24  and  C_6 
REMARK    8  A    between atoms: C_13  and  C_10 
REMARK    9  A    between atoms: C_10  and  N_15 
REMARK   10  A    between atoms: O_17  and  C_11 
REMARK   11  A    between atoms: O_18  and  C_12 
REMARK   12  A    between atoms: O_20  and  C_13 
REMARK   13  A    between atoms: P_25  and  O_21 
REMARK   14  A    between atoms: P_25  and  O_22 
REMARK   15  A    between atoms: P_25  and  O_24 
ROOT
HETATM    1  C   UNK N   1      10.385  -4.901   0.466  0.00  0.00     0.071 C 
HETATM    2  C   UNK N   1      11.567  -1.379   0.161  0.00  0.00     0.098 A 
HETATM    3  C   UNK N   1      10.364  -3.426   0.261  0.00  0.00     0.039 A 
HETATM    4  C   UNK N   1      10.402  -0.677  -0.159  0.00  0.00    -0.008 A 
HETATM    5  C   UNK N   1       9.185  -1.374  -0.262  0.00  0.00     0.004 A 
HETATM    6  C   UNK N   1       9.169  -2.762  -0.052  0.00  0.00     0.096 A 
HETATM    7  N   UNK N   1      11.525  -2.722   0.364  0.00  0.00    -0.367 N 
HETATM    8  H   UNK N   1      12.356  -3.198   0.591  0.00  0.00     0.165 HD
ENDROOT
BRANCH   5   9
HETATM    9  C   UNK N   1       7.936  -0.640  -0.650  0.00  0.00     0.157 C 
BRANCH   9  10
HETATM   10  N   UNK N   1       6.893  -0.736   0.370  0.00  0.00    -0.404 N 
HETATM   11  H   UNK N   1       6.991  -1.182   1.282  0.00  0.00     0.154 HD
BRANCH  10  12
HETATM   12  C   UNK N   1       5.683  -0.084  -0.142  0.00  0.00     0.176 C 
BRANCH  12  13
HETATM   13  C   UNK N   1       4.460  -0.720   0.520  0.00  0.00     0.046 C 
BRANCH  13  14
HETATM   14  C   UNK N   1       3.191  -0.362  -0.247  0.00  0.00     0.112 C 
BRANCH  14  15
HETATM   15  C   UNK N   1       2.106  -1.347   0.031  0.00  0.00     0.139 C 
HETATM   16  O   UNK N   1       1.024  -0.960   0.439  0.00  0.00    -0.650 OA
BRANCH  15  17
HETATM   17  O   UNK N   1       2.306  -2.658  -0.202  0.00  0.00    -0.776 OA
HETATM   18  H   UNK N   1       1.586  -3.235  -0.365  0.00  0.00     0.167 HD
ENDBRANCH  15  17
ENDBRANCH  14  15
ENDBRANCH  13  14
ENDBRANCH  12  13
BRANCH  12  19
HETATM   19  C   UNK N   1       5.755   1.409   0.097  0.00  0.00     0.163 C 
HETATM   20  O   UNK N   1       6.658   2.061  -0.403  0.00  0.00    -0.648 OA
BRANCH  19  21
HETATM   21  O   UNK N   1       4.830   2.035   0.852  0.00  0.00    -0.775 OA
HETATM   22  H   UNK N   1       4.885   2.809   1.377  0.00  0.00     0.167 HD
ENDBRANCH  19  21
ENDBRANCH  12  19
ENDBRANCH  10  12
ENDBRANCH   9  10
ENDBRANCH   5   9
BRANCH   4  23
HETATM   23  C   UNK N   1      10.474   0.787  -0.451  0.00  0.00     0.221 C 
BRANCH  23  24
HETATM   24  O   UNK N   1      10.900   1.516   0.660  0.00  0.00    -0.292 OA
BRANCH  24  25
HETATM   25  P   UNK N   1      11.018   3.153   0.079  0.00  0.00     0.391 P 
HETATM   26  O   UNK N   1       9.629   3.565  -0.481  0.00  0.00    -0.632 OA
BRANCH  25  27
HETATM   27  O   UNK N   1      11.383   4.260   1.365  0.00  0.00    -0.307 OA
HETATM   28  H   UNK N   1      12.021   4.392   2.084  0.00  0.00     0.222 HD
ENDBRANCH  25  27
BRANCH  25  29
HETATM   29  O   UNK N   1      12.168   3.302  -1.213  0.00  0.00    -0.307 OA
HETATM   30  H   UNK N   1      12.561   2.788  -1.935  0.00  0.00     0.222 HD
ENDBRANCH  25  29
ENDBRANCH  24  25
ENDBRANCH  23  24
ENDBRANCH   4  23
BRANCH   6  31
HETATM   31  O   UNK N   1       8.018  -3.456  -0.166  0.00  0.00    -0.358 OA
HETATM   32  H   UNK N   1       7.201  -3.005  -0.245  0.00  0.00     0.217 HD
ENDBRANCH   6  31
TORSDOF 15
