MODEL 1
REMARK VINA RESULT:      -6.7      0.000      0.000
REMARK  12 active torsions:
REMARK  status: ('A' for Active; 'I' for Inactive)
REMARK    1  A    between atoms: S_1  and  C_20 
REMARK    2  A    between atoms: S_1  and  C_24 
REMARK    3  A    between atoms: C_16  and  O_3 
REMARK    4  A    between atoms: C_17  and  O_4 
REMARK    5  A    between atoms: O_5  and  C_29 
REMARK    6  A    between atoms: C_19  and  N_7 
REMARK    7  A    between atoms: N_14  and  C_26 
REMARK    8  A    between atoms: C_27  and  N_15 
REMARK    9  A    between atoms: C_18  and  C_20 
REMARK   10  A    between atoms: C_24  and  C_25 
REMARK   11  A    between atoms: C_25  and  C_27 
REMARK   12  A    between atoms: C_27  and  C_29 
ROOT
HETATM    1  O   UNK N   1      29.877  18.009   7.541  0.00  0.00    -0.355 OA
HETATM    2  C   UNK N   1      29.514  17.605   9.833  0.00  0.00     0.180 C 
HETATM    3  C   UNK N   1      28.227  17.305   9.105  0.00  0.00     0.198 C 
HETATM    4  C   UNK N   1      30.565  17.745   8.734  0.00  0.00     0.165 C 
HETATM    5  C   UNK N   1      28.718  17.226   7.658  0.00  0.00     0.262 C 
ENDROOT
BRANCH   5   6
HETATM    6  N   UNK N   1      27.759  17.548   6.599  0.00  0.00    -0.297 N 
HETATM    7  C   UNK N   1      27.425  18.781   6.210  0.00  0.00     0.142 A 
HETATM    8  N   UNK N   1      27.896  19.959   6.687  0.00  0.00    -0.336 N 
HETATM    9  C   UNK N   1      26.511  18.711   5.226  0.00  0.00     0.122 A 
HETATM   10  C   UNK N   1      27.412  21.114   6.135  0.00  0.00     0.183 A 
ATOM     11  HN  UNK N   1      28.590  19.984   7.434  1.00  0.00     0.168 HD
HETATM   12  N   UNK N   1      26.473  21.067   5.132  0.00  0.00    -0.337 N 
HETATM   13  C   UNK N   1      26.006  19.871   4.662  0.00  0.00     0.131 A 
ATOM     14  HN  UNK N   1      26.119  21.936   4.734  1.00  0.00     0.168 HD
HETATM   15  N   UNK N   1      26.233  17.422   4.953  0.00  0.00    -0.346 N 
HETATM   16  C   UNK N   1      27.021  16.718   5.814  0.00  0.00     0.188 A 
ATOM     17  HN  UNK N   1      25.581  17.055   4.260  1.00  0.00     0.167 HD
BRANCH  13  18
HETATM   18  N   UNK N   1      25.042  19.829   3.636  0.00  0.00    -0.383 N 
HETATM   19  H   UNK N   1      24.377  19.103   3.605  0.00  0.00     0.157 HD
HETATM   20  H   UNK N   1      25.032  20.530   2.945  0.00  0.00     0.157 HD
ENDBRANCH  13  18
ENDBRANCH   5   6
BRANCH   3  21
HETATM   21  O   UNK N   1      27.378  18.394   9.300  0.00  0.00    -0.388 OA
HETATM   22  H   UNK N   1      27.650  19.294   9.539  0.00  0.00     0.210 HD
ENDBRANCH   3  21
BRANCH   4  23
HETATM   23  C   UNK N   1      31.560  16.584   8.563  0.00  0.00     0.108 C 
BRANCH  23  24
HETATM   24  S   UNK N   1      33.004  16.945   7.497  0.00  0.00    -0.166 SA
BRANCH  24  25
HETATM   25  C   UNK N   1      34.101  17.323   8.897  0.00  0.00     0.076 C 
BRANCH  25  26
HETATM   26  C   UNK N   1      34.922  16.095   9.242  0.00  0.00     0.045 C 
BRANCH  26  27
HETATM   27  C   UNK N   1      35.168  16.052  10.740  0.00  0.00     0.174 C 
BRANCH  27  28
HETATM   28  N   UNK N   1      36.575  15.807  11.002  0.00  0.00    -0.418 N 
HETATM   29  H   UNK N   1      37.303  15.664  10.301  0.00  0.00     0.150 HD
HETATM   30  H   UNK N   1      36.862  15.775  11.980  0.00  0.00     0.150 HD
ENDBRANCH  27  28
BRANCH  27  31
HETATM   31  C   UNK N   1      34.335  14.991  11.379  0.00  0.00     0.163 C 
HETATM   32  O   UNK N   1      34.842  14.216  12.172  0.00  0.00    -0.648 OA
BRANCH  31  33
HETATM   33  O   UNK N   1      33.026  14.881  11.078  0.00  0.00    -0.775 OA
HETATM   34  H   UNK N   1      32.646  14.491  10.316  0.00  0.00     0.167 HD
ENDBRANCH  31  33
ENDBRANCH  27  31
ENDBRANCH  26  27
ENDBRANCH  25  26
ENDBRANCH  24  25
ENDBRANCH  23  24
ENDBRANCH   4  23
BRANCH   2  35
HETATM   35  O   UNK N   1      29.834  16.633  10.783  0.00  0.00    -0.390 OA
HETATM   36  H   UNK N   1      30.709  16.296  11.032  0.00  0.00     0.210 HD
ENDBRANCH   2  35
TORSDOF 12
ENDMDL
MODEL 2
REMARK VINA RESULT:      -6.6      2.591      3.826
REMARK  12 active torsions:
REMARK  status: ('A' for Active; 'I' for Inactive)
REMARK    1  A    between atoms: S_1  and  C_20 
REMARK    2  A    between atoms: S_1  and  C_24 
REMARK    3  A    between atoms: C_16  and  O_3 
REMARK    4  A    between atoms: C_17  and  O_4 
REMARK    5  A    between atoms: O_5  and  C_29 
REMARK    6  A    between atoms: C_19  and  N_7 
REMARK    7  A    between atoms: N_14  and  C_26 
REMARK    8  A    between atoms: C_27  and  N_15 
REMARK    9  A    between atoms: C_18  and  C_20 
REMARK   10  A    between atoms: C_24  and  C_25 
REMARK   11  A    between atoms: C_25  and  C_27 
REMARK   12  A    between atoms: C_27  and  C_29 
ROOT
HETATM    1  O   UNK N   1      29.791  17.948   7.488  0.00  0.00    -0.355 OA
HETATM    2  C   UNK N   1      29.458  17.539   9.784  0.00  0.00     0.180 C 
HETATM    3  C   UNK N   1      28.142  17.311   9.083  0.00  0.00     0.198 C 
HETATM    4  C   UNK N   1      30.491  17.637   8.664  0.00  0.00     0.165 C 
HETATM    5  C   UNK N   1      28.597  17.222   7.625  0.00  0.00     0.262 C 
ENDROOT
BRANCH   5   6
HETATM    6  N   UNK N   1      27.633  17.602   6.591  0.00  0.00    -0.297 N 
HETATM    7  C   UNK N   1      27.357  18.853   6.214  0.00  0.00     0.142 A 
HETATM    8  N   UNK N   1      27.904  20.001   6.685  0.00  0.00    -0.336 N 
HETATM    9  C   UNK N   1      26.417  18.839   5.253  0.00  0.00     0.122 A 
HETATM   10  C   UNK N   1      27.470  21.184   6.150  0.00  0.00     0.183 A 
ATOM     11  HN  UNK N   1      28.616  19.984   7.415  1.00  0.00     0.168 HD
HETATM   12  N   UNK N   1      26.506  21.194   5.170  0.00  0.00    -0.337 N 
HETATM   13  C   UNK N   1      25.963  20.028   4.706  0.00  0.00     0.131 A 
ATOM     14  HN  UNK N   1      26.191  22.083   4.783  1.00  0.00     0.168 HD
HETATM   15  N   UNK N   1      26.062  17.568   4.981  0.00  0.00    -0.346 N 
HETATM   16  C   UNK N   1      26.832  16.818   5.820  0.00  0.00     0.188 A 
ATOM     17  HN  UNK N   1      25.375  17.242   4.302  1.00  0.00     0.167 HD
BRANCH  13  18
HETATM   18  N   UNK N   1      24.974  20.045   3.703  0.00  0.00    -0.383 N 
HETATM   19  H   UNK N   1      25.158  20.456   2.827  0.00  0.00     0.157 HD
HETATM   20  H   UNK N   1      24.093  19.643   3.879  0.00  0.00     0.157 HD
ENDBRANCH  13  18
ENDBRANCH   5   6
BRANCH   3  21
HETATM   21  O   UNK N   1      27.353  18.438   9.307  0.00  0.00    -0.388 OA
HETATM   22  H   UNK N   1      27.500  19.321   8.933  0.00  0.00     0.210 HD
ENDBRANCH   3  21
BRANCH   4  23
HETATM   23  C   UNK N   1      31.423  16.430   8.459  0.00  0.00     0.108 C 
BRANCH  23  24
HETATM   24  S   UNK N   1      33.213  16.808   8.518  0.00  0.00    -0.166 SA
BRANCH  24  25
HETATM   25  C   UNK N   1      33.188  17.772   6.977  0.00  0.00     0.076 C 
BRANCH  25  26
HETATM   26  C   UNK N   1      33.077  16.829   5.793  0.00  0.00     0.045 C 
BRANCH  26  27
HETATM   27  C   UNK N   1      32.314  17.510   4.671  0.00  0.00     0.174 C 
BRANCH  27  28
HETATM   28  N   UNK N   1      30.887  17.432   4.927  0.00  0.00    -0.418 N 
HETATM   29  H   UNK N   1      30.445  17.092   5.782  0.00  0.00     0.150 HD
HETATM   30  H   UNK N   1      30.267  17.746   4.181  0.00  0.00     0.150 HD
ENDBRANCH  27  28
BRANCH  27  31
HETATM   31  C   UNK N   1      32.634  16.877   3.357  0.00  0.00     0.163 C 
HETATM   32  O   UNK N   1      33.520  16.042   3.285  0.00  0.00    -0.648 OA
BRANCH  31  33
HETATM   33  O   UNK N   1      31.952  17.228   2.250  0.00  0.00    -0.775 OA
HETATM   34  H   UNK N   1      31.035  17.404   2.175  0.00  0.00     0.167 HD
ENDBRANCH  31  33
ENDBRANCH  27  31
ENDBRANCH  26  27
ENDBRANCH  25  26
ENDBRANCH  24  25
ENDBRANCH  23  24
ENDBRANCH   4  23
BRANCH   2  35
HETATM   35  O   UNK N   1      29.751  16.543  10.718  0.00  0.00    -0.390 OA
HETATM   36  H   UNK N   1      29.767  16.608  11.686  0.00  0.00     0.210 HD
ENDBRANCH   2  35
TORSDOF 12
ENDMDL
MODEL 3
REMARK VINA RESULT:      -6.6      5.043     10.294
REMARK  12 active torsions:
REMARK  status: ('A' for Active; 'I' for Inactive)
REMARK    1  A    between atoms: S_1  and  C_20 
REMARK    2  A    between atoms: S_1  and  C_24 
REMARK    3  A    between atoms: C_16  and  O_3 
REMARK    4  A    between atoms: C_17  and  O_4 
REMARK    5  A    between atoms: O_5  and  C_29 
REMARK    6  A    between atoms: C_19  and  N_7 
REMARK    7  A    between atoms: N_14  and  C_26 
REMARK    8  A    between atoms: C_27  and  N_15 
REMARK    9  A    between atoms: C_18  and  C_20 
REMARK   10  A    between atoms: C_24  and  C_25 
REMARK   11  A    between atoms: C_25  and  C_27 
REMARK   12  A    between atoms: C_27  and  C_29 
ROOT
HETATM    1  O   UNK N   1      26.309  17.949   5.486  0.00  0.00    -0.355 OA
HETATM    2  C   UNK N   1      25.894  19.941   4.300  0.00  0.00     0.180 C 
HETATM    3  C   UNK N   1      27.389  19.754   4.372  0.00  0.00     0.198 C 
HETATM    4  C   UNK N   1      25.307  18.609   4.760  0.00  0.00     0.165 C 
HETATM    5  C   UNK N   1      27.482  18.286   4.793  0.00  0.00     0.262 C 
ENDROOT
BRANCH   5   6
HETATM    6  N   UNK N   1      28.670  17.870   5.540  0.00  0.00    -0.297 N 
HETATM    7  C   UNK N   1      28.794  17.899   6.870  0.00  0.00     0.142 A 
HETATM    8  N   UNK N   1      27.872  18.295   7.781  0.00  0.00    -0.336 N 
HETATM    9  C   UNK N   1      30.017  17.461   7.218  0.00  0.00     0.122 A 
HETATM   10  C   UNK N   1      28.215  18.240   9.106  0.00  0.00     0.183 A 
ATOM     11  HN  UNK N   1      26.951  18.622   7.490  1.00  0.00     0.168 HD
HETATM   12  N   UNK N   1      29.461  17.800   9.485  0.00  0.00    -0.337 N 
HETATM   13  C   UNK N   1      30.382  17.406   8.554  0.00  0.00     0.131 A 
ATOM     14  HN  UNK N   1      29.703  17.768  10.475  1.00  0.00     0.168 HD
HETATM   15  N   UNK N   1      30.716  17.133   6.115  0.00  0.00    -0.346 N 
HETATM   16  C   UNK N   1      29.859  17.392   5.086  0.00  0.00     0.188 A 
ATOM     17  HN  UNK N   1      31.668  16.773   6.061  1.00  0.00     0.167 HD
BRANCH  13  18
HETATM   18  N   UNK N   1      31.658  16.959   8.949  0.00  0.00    -0.383 N 
HETATM   19  H   UNK N   1      32.440  17.107   8.369  0.00  0.00     0.157 HD
HETATM   20  H   UNK N   1      31.768  16.495   9.810  0.00  0.00     0.157 HD
ENDBRANCH  13  18
ENDBRANCH   5   6
BRANCH   3  21
HETATM   21  O   UNK N   1      27.865  20.605   5.369  0.00  0.00    -0.388 OA
HETATM   22  H   UNK N   1      27.325  21.172   5.941  0.00  0.00     0.210 HD
ENDBRANCH   3  21
BRANCH   4  23
HETATM   23  C   UNK N   1      24.704  17.696   3.678  0.00  0.00     0.108 C 
BRANCH  23  24
HETATM   24  S   UNK N   1      23.073  16.972   4.087  0.00  0.00    -0.166 SA
BRANCH  24  25
HETATM   25  C   UNK N   1      22.154  18.477   3.647  0.00  0.00     0.076 C 
BRANCH  25  26
HETATM   26  C   UNK N   1      20.930  18.101   2.832  0.00  0.00     0.045 C 
BRANCH  26  27
HETATM   27  C   UNK N   1      20.078  19.336   2.596  0.00  0.00     0.174 C 
BRANCH  27  28
HETATM   28  N   UNK N   1      18.720  18.942   2.266  0.00  0.00    -0.418 N 
HETATM   29  H   UNK N   1      17.888  19.529   2.335  0.00  0.00     0.150 HD
HETATM   30  H   UNK N   1      18.585  17.988   1.933  0.00  0.00     0.150 HD
ENDBRANCH  27  28
BRANCH  27  31
HETATM   31  C   UNK N   1      20.652  20.168   1.496  0.00  0.00     0.163 C 
HETATM   32  O   UNK N   1      21.166  21.243   1.753  0.00  0.00    -0.648 OA
BRANCH  31  33
HETATM   33  O   UNK N   1      20.599  19.737   0.220  0.00  0.00    -0.775 OA
HETATM   34  H   UNK N   1      19.857  19.738  -0.353  0.00  0.00     0.167 HD
ENDBRANCH  31  33
ENDBRANCH  27  31
ENDBRANCH  26  27
ENDBRANCH  25  26
ENDBRANCH  24  25
ENDBRANCH  23  24
ENDBRANCH   4  23
BRANCH   2  35
HETATM   35  O   UNK N   1      25.460  20.327   3.030  0.00  0.00    -0.390 OA
HETATM   36  H   UNK N   1      25.956  20.786   2.335  0.00  0.00     0.210 HD
ENDBRANCH   2  35
TORSDOF 12
ENDMDL
MODEL 4
REMARK VINA RESULT:      -6.4      2.808      8.268
REMARK  12 active torsions:
REMARK  status: ('A' for Active; 'I' for Inactive)
REMARK    1  A    between atoms: S_1  and  C_20 
REMARK    2  A    between atoms: S_1  and  C_24 
REMARK    3  A    between atoms: C_16  and  O_3 
REMARK    4  A    between atoms: C_17  and  O_4 
REMARK    5  A    between atoms: O_5  and  C_29 
REMARK    6  A    between atoms: C_19  and  N_7 
REMARK    7  A    between atoms: N_14  and  C_26 
REMARK    8  A    between atoms: C_27  and  N_15 
REMARK    9  A    between atoms: C_18  and  C_20 
REMARK   10  A    between atoms: C_24  and  C_25 
REMARK   11  A    between atoms: C_25  and  C_27 
REMARK   12  A    between atoms: C_27  and  C_29 
ROOT
HETATM    1  O   UNK N   1      32.518  17.365   7.092  0.00  0.00    -0.355 OA
HETATM    2  C   UNK N   1      33.036  16.282   5.065  0.00  0.00     0.180 C 
HETATM    3  C   UNK N   1      33.841  15.621   6.156  0.00  0.00     0.198 C 
HETATM    4  C   UNK N   1      32.020  17.155   5.797  0.00  0.00     0.165 C 
HETATM    5  C   UNK N   1      33.124  16.138   7.405  0.00  0.00     0.262 C 
ENDROOT
BRANCH   5   6
HETATM    6  N   UNK N   1      33.904  16.239   8.640  0.00  0.00    -0.297 N 
HETATM    7  C   UNK N   1      34.283  15.208   9.400  0.00  0.00     0.142 A 
HETATM    8  N   UNK N   1      34.045  13.891   9.190  0.00  0.00    -0.336 N 
HETATM    9  C   UNK N   1      34.973  15.661  10.462  0.00  0.00     0.122 A 
HETATM   10  C   UNK N   1      34.533  12.997  10.105  0.00  0.00     0.183 A 
ATOM     11  HN  UNK N   1      33.519  13.574   8.375  1.00  0.00     0.168 HD
HETATM   12  N   UNK N   1      35.236  13.437  11.202  0.00  0.00    -0.337 N 
HETATM   13  C   UNK N   1      35.467  14.770  11.401  0.00  0.00     0.131 A 
ATOM     14  HN  UNK N   1      35.590  12.759  11.876  1.00  0.00     0.168 HD
HETATM   15  N   UNK N   1      35.059  17.004  10.412  0.00  0.00    -0.346 N 
HETATM   16  C   UNK N   1      34.391  17.341   9.272  0.00  0.00     0.188 A 
ATOM     17  HN  UNK N   1      35.517  17.627  11.076  1.00  0.00     0.167 HD
BRANCH  13  18
HETATM   18  N   UNK N   1      36.186  15.214  12.528  0.00  0.00    -0.383 N 
HETATM   19  H   UNK N   1      35.936  16.052  12.980  0.00  0.00     0.157 HD
HETATM   20  H   UNK N   1      36.943  14.684  12.865  0.00  0.00     0.157 HD
ENDBRANCH  13  18
ENDBRANCH   5   6
BRANCH   3  21
HETATM   21  O   UNK N   1      35.142  16.115   6.069  0.00  0.00    -0.388 OA
HETATM   22  H   UNK N   1      35.714  16.079   5.287  0.00  0.00     0.210 HD
ENDBRANCH   3  21
BRANCH   4  23
HETATM   23  C   UNK N   1      30.564  16.660   5.830  0.00  0.00     0.108 C 
BRANCH  23  24
HETATM   24  S   UNK N   1      29.371  17.682   4.889  0.00  0.00    -0.166 SA
BRANCH  24  25
HETATM   25  C   UNK N   1      28.407  18.137   6.362  0.00  0.00     0.076 C 
BRANCH  25  26
HETATM   26  C   UNK N   1      28.609  17.089   7.441  0.00  0.00     0.045 C 
BRANCH  26  27
HETATM   27  C   UNK N   1      28.307  17.695   8.801  0.00  0.00     0.174 C 
BRANCH  27  28
HETATM   28  N   UNK N   1      27.574  18.938   8.634  0.00  0.00    -0.418 N 
HETATM   29  H   UNK N   1      26.559  19.043   8.618  0.00  0.00     0.150 HD
HETATM   30  H   UNK N   1      28.128  19.788   8.524  0.00  0.00     0.150 HD
ENDBRANCH  27  28
BRANCH  27  31
HETATM   31  C   UNK N   1      29.570  17.943   9.558  0.00  0.00     0.163 C 
HETATM   32  O   UNK N   1      29.665  18.923  10.277  0.00  0.00    -0.648 OA
BRANCH  31  33
HETATM   33  O   UNK N   1      30.607  17.090   9.445  0.00  0.00    -0.775 OA
HETATM   34  H   UNK N   1      30.577  16.180   9.221  0.00  0.00     0.167 HD
ENDBRANCH  31  33
ENDBRANCH  27  31
ENDBRANCH  26  27
ENDBRANCH  25  26
ENDBRANCH  24  25
ENDBRANCH  23  24
ENDBRANCH   4  23
BRANCH   2  35
HETATM   35  O   UNK N   1      32.448  15.362   4.196  0.00  0.00    -0.390 OA
HETATM   36  H   UNK N   1      31.622  14.865   4.309  0.00  0.00     0.210 HD
ENDBRANCH   2  35
TORSDOF 12
ENDMDL
MODEL 5
REMARK VINA RESULT:      -6.3      5.113     10.626
REMARK  12 active torsions:
REMARK  status: ('A' for Active; 'I' for Inactive)
REMARK    1  A    between atoms: S_1  and  C_20 
REMARK    2  A    between atoms: S_1  and  C_24 
REMARK    3  A    between atoms: C_16  and  O_3 
REMARK    4  A    between atoms: C_17  and  O_4 
REMARK    5  A    between atoms: O_5  and  C_29 
REMARK    6  A    between atoms: C_19  and  N_7 
REMARK    7  A    between atoms: N_14  and  C_26 
REMARK    8  A    between atoms: C_27  and  N_15 
REMARK    9  A    between atoms: C_18  and  C_20 
REMARK   10  A    between atoms: C_24  and  C_25 
REMARK   11  A    between atoms: C_25  and  C_27 
REMARK   12  A    between atoms: C_27  and  C_29 
ROOT
HETATM    1  O   UNK N   1      36.095  14.655  11.558  0.00  0.00    -0.355 OA
HETATM    2  C   UNK N   1      37.739  13.618  10.226  0.00  0.00     0.180 C 
HETATM    3  C   UNK N   1      37.252  12.600  11.227  0.00  0.00     0.198 C 
HETATM    4  C   UNK N   1      36.743  14.771  10.319  0.00  0.00     0.165 C 
HETATM    5  C   UNK N   1      35.967  13.267  11.723  0.00  0.00     0.262 C 
ENDROOT
BRANCH   5   6
HETATM    6  N   UNK N   1      35.513  12.940  13.076  0.00  0.00    -0.297 N 
HETATM    7  C   UNK N   1      35.941  13.527  14.196  0.00  0.00     0.142 A 
HETATM    8  N   UNK N   1      36.848  14.528  14.314  0.00  0.00    -0.336 N 
HETATM    9  C   UNK N   1      35.327  12.976  15.258  0.00  0.00     0.122 A 
HETATM   10  C   UNK N   1      37.140  14.983  15.572  0.00  0.00     0.183 A 
ATOM     11  HN  UNK N   1      37.300  14.929  13.492  1.00  0.00     0.168 HD
HETATM   12  N   UNK N   1      36.528  14.432  16.672  0.00  0.00    -0.337 N 
HETATM   13  C   UNK N   1      35.616  13.421  16.537  0.00  0.00     0.131 A 
ATOM     14  HN  UNK N   1      36.758  14.780  17.603  1.00  0.00     0.168 HD
HETATM   15  N   UNK N   1      34.479  12.014  14.846  0.00  0.00    -0.346 N 
HETATM   16  C   UNK N   1      34.609  12.012  13.488  0.00  0.00     0.188 A 
ATOM     17  HN  UNK N   1      33.878  11.423  15.418  1.00  0.00     0.167 HD
BRANCH  13  18
HETATM   18  N   UNK N   1      34.995  12.858  17.669  0.00  0.00    -0.383 N 
HETATM   19  H   UNK N   1      34.624  11.947  17.633  0.00  0.00     0.157 HD
HETATM   20  H   UNK N   1      34.931  13.379  18.502  0.00  0.00     0.157 HD
ENDBRANCH  13  18
ENDBRANCH   5   6
BRANCH   3  21
HETATM   21  O   UNK N   1      38.210  12.520  12.237  0.00  0.00    -0.388 OA
HETATM   22  H   UNK N   1      38.061  12.686  13.180  0.00  0.00     0.210 HD
ENDBRANCH   3  21
BRANCH   4  23
HETATM   23  C   UNK N   1      35.732  14.919   9.169  0.00  0.00     0.108 C 
BRANCH  23  24
HETATM   24  S   UNK N   1      33.998  15.203   9.686  0.00  0.00    -0.166 SA
BRANCH  24  25
HETATM   25  C   UNK N   1      33.330  14.981   8.010  0.00  0.00     0.076 C 
BRANCH  25  26
HETATM   26  C   UNK N   1      32.606  16.244   7.583  0.00  0.00     0.045 C 
BRANCH  26  27
HETATM   27  C   UNK N   1      33.083  17.413   8.427  0.00  0.00     0.174 C 
BRANCH  27  28
HETATM   28  N   UNK N   1      31.960  18.273   8.756  0.00  0.00    -0.418 N 
HETATM   29  H   UNK N   1      30.974  18.065   8.601  0.00  0.00     0.150 HD
HETATM   30  H   UNK N   1      32.180  19.172   9.185  0.00  0.00     0.150 HD
ENDBRANCH  27  28
BRANCH  27  31
HETATM   31  C   UNK N   1      34.130  18.192   7.701  0.00  0.00     0.163 C 
HETATM   32  O   UNK N   1      34.797  19.018   8.300  0.00  0.00    -0.648 OA
BRANCH  31  33
HETATM   33  O   UNK N   1      34.336  17.989   6.385  0.00  0.00    -0.775 OA
HETATM   34  H   UNK N   1      34.202  18.598   5.685  0.00  0.00     0.167 HD
ENDBRANCH  31  33
ENDBRANCH  27  31
ENDBRANCH  26  27
ENDBRANCH  25  26
ENDBRANCH  24  25
ENDBRANCH  23  24
ENDBRANCH   4  23
BRANCH   2  35
HETATM   35  O   UNK N   1      37.858  13.094   8.938  0.00  0.00    -0.390 OA
HETATM   36  H   UNK N   1      38.573  13.224   8.296  0.00  0.00     0.210 HD
ENDBRANCH   2  35
TORSDOF 12
ENDMDL
MODEL 6
REMARK VINA RESULT:      -6.3      2.880      4.432
REMARK  12 active torsions:
REMARK  status: ('A' for Active; 'I' for Inactive)
REMARK    1  A    between atoms: S_1  and  C_20 
REMARK    2  A    between atoms: S_1  and  C_24 
REMARK    3  A    between atoms: C_16  and  O_3 
REMARK    4  A    between atoms: C_17  and  O_4 
REMARK    5  A    between atoms: O_5  and  C_29 
REMARK    6  A    between atoms: C_19  and  N_7 
REMARK    7  A    between atoms: N_14  and  C_26 
REMARK    8  A    between atoms: C_27  and  N_15 
REMARK    9  A    between atoms: C_18  and  C_20 
REMARK   10  A    between atoms: C_24  and  C_25 
REMARK   11  A    between atoms: C_25  and  C_27 
REMARK   12  A    between atoms: C_27  and  C_29 
ROOT
HETATM    1  O   UNK N   1      33.253  15.448   7.994  0.00  0.00    -0.355 OA
HETATM    2  C   UNK N   1      34.904  16.839   8.937  0.00  0.00     0.180 C 
HETATM    3  C   UNK N   1      33.666  17.676   8.724  0.00  0.00     0.198 C 
HETATM    4  C   UNK N   1      34.446  15.398   8.730  0.00  0.00     0.165 C 
HETATM    5  C   UNK N   1      32.612  16.590   8.499  0.00  0.00     0.262 C 
ENDROOT
BRANCH   5   6
HETATM    6  N   UNK N   1      31.445  16.938   7.687  0.00  0.00    -0.297 N 
HETATM    7  C   UNK N   1      30.307  17.461   8.154  0.00  0.00     0.142 A 
HETATM    8  N   UNK N   1      30.007  17.781   9.436  0.00  0.00    -0.336 N 
HETATM    9  C   UNK N   1      29.445  17.644   7.139  0.00  0.00     0.122 A 
HETATM   10  C   UNK N   1      28.770  18.311   9.692  0.00  0.00     0.183 A 
ATOM     11  HN  UNK N   1      30.680  17.632  10.188  1.00  0.00     0.168 HD
HETATM   12  N   UNK N   1      27.870  18.502   8.671  0.00  0.00    -0.337 N 
HETATM   13  C   UNK N   1      28.188  18.173   7.382  0.00  0.00     0.131 A 
ATOM     14  HN  UNK N   1      26.952  18.895   8.877  1.00  0.00     0.168 HD
HETATM   15  N   UNK N   1      30.009  17.244   5.983  0.00  0.00    -0.346 N 
HETATM   16  C   UNK N   1      31.251  16.813   6.347  0.00  0.00     0.188 A 
ATOM     17  HN  UNK N   1      29.601  17.260   5.049  1.00  0.00     0.167 HD
BRANCH  13  18
HETATM   18  N   UNK N   1      27.260  18.369   6.340  0.00  0.00    -0.383 N 
HETATM   19  H   UNK N   1      26.527  19.020   6.440  0.00  0.00     0.157 HD
HETATM   20  H   UNK N   1      27.343  17.851   5.507  0.00  0.00     0.157 HD
ENDBRANCH  13  18
ENDBRANCH   5   6
BRANCH   3  21
HETATM   21  O   UNK N   1      33.873  18.437   7.574  0.00  0.00    -0.388 OA
HETATM   22  H   UNK N   1      33.230  18.582   6.863  0.00  0.00     0.210 HD
ENDBRANCH   3  21
BRANCH   4  23
HETATM   23  C   UNK N   1      34.292  14.524   9.987  0.00  0.00     0.108 C 
BRANCH  23  24
HETATM   24  S   UNK N   1      35.152  12.909   9.924  0.00  0.00    -0.166 SA
BRANCH  24  25
HETATM   25  C   UNK N   1      36.720  13.578  10.558  0.00  0.00     0.076 C 
BRANCH  25  26
HETATM   26  C   UNK N   1      36.880  13.194  12.018  0.00  0.00     0.045 C 
BRANCH  26  27
HETATM   27  C   UNK N   1      35.990  14.075  12.875  0.00  0.00     0.174 C 
BRANCH  27  28
HETATM   28  N   UNK N   1      36.408  15.461  12.758  0.00  0.00    -0.418 N 
HETATM   29  H   UNK N   1      35.893  16.277  13.090  0.00  0.00     0.150 HD
HETATM   30  H   UNK N   1      37.302  15.635  12.300  0.00  0.00     0.150 HD
ENDBRANCH  27  28
BRANCH  27  31
HETATM   31  C   UNK N   1      36.042  13.643  14.304  0.00  0.00     0.163 C 
HETATM   32  O   UNK N   1      35.014  13.337  14.884  0.00  0.00    -0.648 OA
BRANCH  31  33
HETATM   33  O   UNK N   1      37.221  13.596  14.956  0.00  0.00    -0.775 OA
HETATM   34  H   UNK N   1      38.022  14.018  14.718  0.00  0.00     0.167 HD
ENDBRANCH  31  33
ENDBRANCH  27  31
ENDBRANCH  26  27
ENDBRANCH  25  26
ENDBRANCH  24  25
ENDBRANCH  23  24
ENDBRANCH   4  23
BRANCH   2  35
HETATM   35  O   UNK N   1      35.495  17.058  10.182  0.00  0.00    -0.390 OA
HETATM   36  H   UNK N   1      35.099  16.967  11.064  0.00  0.00     0.210 HD
ENDBRANCH   2  35
TORSDOF 12
ENDMDL
MODEL 7
REMARK VINA RESULT:      -6.3      2.953      4.597
REMARK  12 active torsions:
REMARK  status: ('A' for Active; 'I' for Inactive)
REMARK    1  A    between atoms: S_1  and  C_20 
REMARK    2  A    between atoms: S_1  and  C_24 
REMARK    3  A    between atoms: C_16  and  O_3 
REMARK    4  A    between atoms: C_17  and  O_4 
REMARK    5  A    between atoms: O_5  and  C_29 
REMARK    6  A    between atoms: C_19  and  N_7 
REMARK    7  A    between atoms: N_14  and  C_26 
REMARK    8  A    between atoms: C_27  and  N_15 
REMARK    9  A    between atoms: C_18  and  C_20 
REMARK   10  A    between atoms: C_24  and  C_25 
REMARK   11  A    between atoms: C_25  and  C_27 
REMARK   12  A    between atoms: C_27  and  C_29 
ROOT
HETATM    1  O   UNK N   1      33.241  15.334   7.933  0.00  0.00    -0.355 OA
HETATM    2  C   UNK N   1      34.945  16.670   8.862  0.00  0.00     0.180 C 
HETATM    3  C   UNK N   1      33.724  17.539   8.689  0.00  0.00     0.198 C 
HETATM    4  C   UNK N   1      34.448  15.243   8.643  0.00  0.00     0.165 C 
HETATM    5  C   UNK N   1      32.639  16.483   8.470  0.00  0.00     0.262 C 
ENDROOT
BRANCH   5   6
HETATM    6  N   UNK N   1      31.463  16.872   7.690  0.00  0.00    -0.297 N 
HETATM    7  C   UNK N   1      30.354  17.425   8.188  0.00  0.00     0.142 A 
HETATM    8  N   UNK N   1      30.095  17.744   9.480  0.00  0.00    -0.336 N 
HETATM    9  C   UNK N   1      29.473  17.641   7.196  0.00  0.00     0.122 A 
HETATM   10  C   UNK N   1      28.881  18.309   9.769  0.00  0.00     0.183 A 
ATOM     11  HN  UNK N   1      30.781  17.570  10.213  1.00  0.00     0.168 HD
HETATM   12  N   UNK N   1      27.962  18.535   8.772  0.00  0.00    -0.337 N 
HETATM   13  C   UNK N   1      28.238  18.206   7.473  0.00  0.00     0.131 A 
ATOM     14  HN  UNK N   1      27.062  18.953   9.003  1.00  0.00     0.168 HD
HETATM   15  N   UNK N   1      29.996  17.233   6.024  0.00  0.00    -0.346 N 
HETATM   16  C   UNK N   1      31.233  16.763   6.354  0.00  0.00     0.188 A 
ATOM     17  HN  UNK N   1      29.566  17.268   5.100  1.00  0.00     0.167 HD
BRANCH  13  18
HETATM   18  N   UNK N   1      27.292  18.437   6.456  0.00  0.00    -0.383 N 
HETATM   19  H   UNK N   1      27.533  18.306   5.510  0.00  0.00     0.157 HD
HETATM   20  H   UNK N   1      26.383  18.732   6.692  0.00  0.00     0.157 HD
ENDBRANCH  13  18
ENDBRANCH   5   6
BRANCH   3  21
HETATM   21  O   UNK N   1      33.924  18.314   7.547  0.00  0.00    -0.388 OA
HETATM   22  H   UNK N   1      34.086  19.270   7.527  0.00  0.00     0.210 HD
ENDBRANCH   3  21
BRANCH   4  23
HETATM   23  C   UNK N   1      34.300  14.353   9.888  0.00  0.00     0.108 C 
BRANCH  23  24
HETATM   24  S   UNK N   1      34.304  12.551   9.564  0.00  0.00    -0.166 SA
BRANCH  24  25
HETATM   25  C   UNK N   1      35.334  12.166  11.013  0.00  0.00     0.076 C 
BRANCH  25  26
HETATM   26  C   UNK N   1      36.737  11.814  10.557  0.00  0.00     0.045 C 
BRANCH  26  27
HETATM   27  C   UNK N   1      37.701  12.905  10.990  0.00  0.00     0.174 C 
BRANCH  27  28
HETATM   28  N   UNK N   1      37.211  13.543  12.200  0.00  0.00    -0.418 N 
HETATM   29  H   UNK N   1      36.600  13.121  12.900  0.00  0.00     0.150 HD
HETATM   30  H   UNK N   1      37.507  14.504  12.366  0.00  0.00     0.150 HD
ENDBRANCH  27  28
BRANCH  27  31
HETATM   31  C   UNK N   1      37.867  13.920   9.908  0.00  0.00     0.163 C 
HETATM   32  O   UNK N   1      37.882  13.567   8.741  0.00  0.00    -0.648 OA
BRANCH  31  33
HETATM   33  O   UNK N   1      38.006  15.225  10.216  0.00  0.00    -0.775 OA
HETATM   34  H   UNK N   1      38.001  15.614  11.068  0.00  0.00     0.167 HD
ENDBRANCH  31  33
ENDBRANCH  27  31
ENDBRANCH  26  27
ENDBRANCH  25  26
ENDBRANCH  24  25
ENDBRANCH  23  24
ENDBRANCH   4  23
BRANCH   2  35
HETATM   35  O   UNK N   1      35.568  16.854  10.097  0.00  0.00    -0.390 OA
HETATM   36  H   UNK N   1      35.544  17.633  10.676  0.00  0.00     0.210 HD
ENDBRANCH   2  35
TORSDOF 12
ENDMDL
MODEL 8
REMARK VINA RESULT:      -6.2      3.489      4.795
REMARK  12 active torsions:
REMARK  status: ('A' for Active; 'I' for Inactive)
REMARK    1  A    between atoms: S_1  and  C_20 
REMARK    2  A    between atoms: S_1  and  C_24 
REMARK    3  A    between atoms: C_16  and  O_3 
REMARK    4  A    between atoms: C_17  and  O_4 
REMARK    5  A    between atoms: O_5  and  C_29 
REMARK    6  A    between atoms: C_19  and  N_7 
REMARK    7  A    between atoms: N_14  and  C_26 
REMARK    8  A    between atoms: C_27  and  N_15 
REMARK    9  A    between atoms: C_18  and  C_20 
REMARK   10  A    between atoms: C_24  and  C_25 
REMARK   11  A    between atoms: C_25  and  C_27 
REMARK   12  A    between atoms: C_27  and  C_29 
ROOT
HETATM    1  O   UNK N   1      33.431  15.504   8.034  0.00  0.00    -0.355 OA
HETATM    2  C   UNK N   1      34.942  17.009   9.036  0.00  0.00     0.180 C 
HETATM    3  C   UNK N   1      33.683  17.773   8.709  0.00  0.00     0.198 C 
HETATM    4  C   UNK N   1      34.570  15.539   8.852  0.00  0.00     0.165 C 
HETATM    5  C   UNK N   1      32.701  16.628   8.453  0.00  0.00     0.262 C 
ENDROOT
BRANCH   5   6
HETATM    6  N   UNK N   1      31.577  16.889   7.551  0.00  0.00    -0.297 N 
HETATM    7  C   UNK N   1      31.660  16.978   6.221  0.00  0.00     0.142 A 
HETATM    8  N   UNK N   1      32.764  16.838   5.447  0.00  0.00    -0.336 N 
HETATM    9  C   UNK N   1      30.444  17.238   5.709  0.00  0.00     0.122 A 
HETATM   10  C   UNK N   1      32.618  16.969   4.092  0.00  0.00     0.183 A 
ATOM     11  HN  UNK N   1      33.675  16.640   5.860  1.00  0.00     0.168 HD
HETATM   12  N   UNK N   1      31.386  17.239   3.547  0.00  0.00    -0.337 N 
HETATM   13  C   UNK N   1      30.281  17.380   4.341  0.00  0.00     0.131 A 
ATOM     14  HN  UNK N   1      31.293  17.337   2.536  1.00  0.00     0.168 HD
HETATM   15  N   UNK N   1      29.540  17.320   6.703  0.00  0.00    -0.346 N 
HETATM   16  C   UNK N   1      30.264  17.098   7.837  0.00  0.00     0.188 A 
ATOM     17  HN  UNK N   1      28.540  17.507   6.627  1.00  0.00     0.167 HD
BRANCH  13  18
HETATM   18  N   UNK N   1      29.021  17.660   3.777  0.00  0.00    -0.383 N 
HETATM   19  H   UNK N   1      28.195  17.448   4.270  0.00  0.00     0.157 HD
HETATM   20  H   UNK N   1      28.966  18.069   2.883  0.00  0.00     0.157 HD
ENDBRANCH  13  18
ENDBRANCH   5   6
BRANCH   3  21
HETATM   21  O   UNK N   1      33.932  18.506   7.549  0.00  0.00    -0.388 OA
HETATM   22  H   UNK N   1      34.806  18.739   7.199  0.00  0.00     0.210 HD
ENDBRANCH   3  21
BRANCH   4  23
HETATM   23  C   UNK N   1      34.372  14.700  10.126  0.00  0.00     0.108 C 
BRANCH  23  24
HETATM   24  S   UNK N   1      35.389  13.181  10.226  0.00  0.00    -0.166 SA
BRANCH  24  25
HETATM   25  C   UNK N   1      36.614  13.926  11.345  0.00  0.00     0.076 C 
BRANCH  25  26
HETATM   26  C   UNK N   1      35.901  14.557  12.527  0.00  0.00     0.045 C 
BRANCH  26  27
HETATM   27  C   UNK N   1      36.200  13.761  13.785  0.00  0.00     0.174 C 
BRANCH  27  28
HETATM   28  N   UNK N   1      37.260  12.804  13.523  0.00  0.00    -0.418 N 
HETATM   29  H   UNK N   1      38.220  12.858  13.865  0.00  0.00     0.150 HD
HETATM   30  H   UNK N   1      37.022  12.001  12.941  0.00  0.00     0.150 HD
ENDBRANCH  27  28
BRANCH  27  31
HETATM   31  C   UNK N   1      34.975  13.051  14.261  0.00  0.00     0.163 C 
HETATM   32  O   UNK N   1      34.601  13.191  15.413  0.00  0.00    -0.648 OA
BRANCH  31  33
HETATM   33  O   UNK N   1      34.285  12.252  13.423  0.00  0.00    -0.775 OA
HETATM   34  H   UNK N   1      34.537  11.968  12.567  0.00  0.00     0.167 HD
ENDBRANCH  31  33
ENDBRANCH  27  31
ENDBRANCH  26  27
ENDBRANCH  25  26
ENDBRANCH  24  25
ENDBRANCH  23  24
ENDBRANCH   4  23
BRANCH   2  35
HETATM   35  O   UNK N   1      35.433  17.298  10.310  0.00  0.00    -0.390 OA
HETATM   36  H   UNK N   1      34.942  17.583  11.097  0.00  0.00     0.210 HD
ENDBRANCH   2  35
TORSDOF 12
ENDMDL
MODEL 9
REMARK VINA RESULT:      -6.2      2.742      9.633
REMARK  12 active torsions:
REMARK  status: ('A' for Active; 'I' for Inactive)
REMARK    1  A    between atoms: S_1  and  C_20 
REMARK    2  A    between atoms: S_1  and  C_24 
REMARK    3  A    between atoms: C_16  and  O_3 
REMARK    4  A    between atoms: C_17  and  O_4 
REMARK    5  A    between atoms: O_5  and  C_29 
REMARK    6  A    between atoms: C_19  and  N_7 
REMARK    7  A    between atoms: N_14  and  C_26 
REMARK    8  A    between atoms: C_27  and  N_15 
REMARK    9  A    between atoms: C_18  and  C_20 
REMARK   10  A    between atoms: C_24  and  C_25 
REMARK   11  A    between atoms: C_25  and  C_27 
REMARK   12  A    between atoms: C_27  and  C_29 
ROOT
HETATM    1  O   UNK N   1      32.966  16.035   9.182  0.00  0.00    -0.355 OA
HETATM    2  C   UNK N   1      33.947  17.852   8.048  0.00  0.00     0.180 C 
HETATM    3  C   UNK N   1      35.055  17.080   8.720  0.00  0.00     0.198 C 
HETATM    4  C   UNK N   1      32.720  16.949   8.147  0.00  0.00     0.165 C 
HETATM    5  C   UNK N   1      34.339  15.770   9.056  0.00  0.00     0.262 C 
ENDROOT
BRANCH   5   6
HETATM    6  N   UNK N   1      34.832  15.004  10.202  0.00  0.00    -0.297 N 
HETATM    7  C   UNK N   1      36.052  14.470  10.305  0.00  0.00     0.142 A 
HETATM    8  N   UNK N   1      37.064  14.532   9.406  0.00  0.00    -0.336 N 
HETATM    9  C   UNK N   1      36.164  13.825  11.480  0.00  0.00     0.122 A 
HETATM   10  C   UNK N   1      38.242  13.908   9.722  0.00  0.00     0.183 A 
ATOM     11  HN  UNK N   1      36.954  15.029   8.522  1.00  0.00     0.168 HD
HETATM   12  N   UNK N   1      38.377  13.238  10.915  0.00  0.00    -0.337 N 
HETATM   13  C   UNK N   1      37.346  13.183  11.811  0.00  0.00     0.131 A 
ATOM     14  HN  UNK N   1      39.259  12.776  11.135  1.00  0.00     0.168 HD
HETATM   15  N   UNK N   1      35.012  13.930  12.170  0.00  0.00    -0.346 N 
HETATM   16  C   UNK N   1      34.201  14.668  11.359  0.00  0.00     0.188 A 
ATOM     17  HN  UNK N   1      34.795  13.545  13.088  1.00  0.00     0.167 HD
BRANCH  13  18
HETATM   18  N   UNK N   1      37.490  12.492  13.031  0.00  0.00    -0.383 N 
HETATM   19  H   UNK N   1      38.341  12.524  13.524  0.00  0.00     0.157 HD
HETATM   20  H   UNK N   1      36.735  11.975  13.392  0.00  0.00     0.157 HD
ENDBRANCH  13  18
ENDBRANCH   5   6
BRANCH   3  21
HETATM   21  O   UNK N   1      35.409  17.782   9.873  0.00  0.00    -0.388 OA
HETATM   22  H   UNK N   1      36.115  18.443   9.944  0.00  0.00     0.210 HD
ENDBRANCH   3  21
BRANCH   4  23
HETATM   23  C   UNK N   1      32.271  16.233   6.861  0.00  0.00     0.108 C 
BRANCH  23  24
HETATM   24  S   UNK N   1      30.924  17.060   5.937  0.00  0.00    -0.166 SA
BRANCH  24  25
HETATM   25  C   UNK N   1      29.767  17.019   7.339  0.00  0.00     0.076 C 
BRANCH  25  26
HETATM   26  C   UNK N   1      28.426  17.580   6.903  0.00  0.00     0.045 C 
BRANCH  26  27
HETATM   27  C   UNK N   1      28.239  18.966   7.493  0.00  0.00     0.174 C 
BRANCH  27  28
HETATM   28  N   UNK N   1      27.593  18.867   8.790  0.00  0.00    -0.418 N 
HETATM   29  H   UNK N   1      28.061  18.825   9.696  0.00  0.00     0.150 HD
HETATM   30  H   UNK N   1      26.574  18.836   8.796  0.00  0.00     0.150 HD
ENDBRANCH  27  28
BRANCH  27  31
HETATM   31  C   UNK N   1      27.424  19.820   6.579  0.00  0.00     0.163 C 
HETATM   32  O   UNK N   1      27.718  20.992   6.419  0.00  0.00    -0.648 OA
BRANCH  31  33
HETATM   33  O   UNK N   1      26.359  19.302   5.935  0.00  0.00    -0.775 OA
HETATM   34  H   UNK N   1      26.338  18.544   5.385  0.00  0.00     0.167 HD
ENDBRANCH  31  33
ENDBRANCH  27  31
ENDBRANCH  26  27
ENDBRANCH  25  26
ENDBRANCH  24  25
ENDBRANCH  23  24
ENDBRANCH   4  23
BRANCH   2  35
HETATM   35  O   UNK N   1      34.261  18.216   6.738  0.00  0.00    -0.390 OA
HETATM   36  H   UNK N   1      34.138  17.704   5.922  0.00  0.00     0.210 HD
ENDBRANCH   2  35
TORSDOF 12
ENDMDL
