MODEL 1
REMARK VINA RESULT:      -5.5      0.000      0.000
REMARK  6 active torsions:
REMARK  status: ('A' for Active; 'I' for Inactive)
REMARK    1  A    between atoms: C_3  and  O_2 
REMARK    2  A    between atoms: C_5  and  C_6 
REMARK    3  A    between atoms: C_6  and  O_7 
REMARK    4  A    between atoms: C_8  and  O_9 
REMARK    5  A    between atoms: C_10  and  O_11 
REMARK    6  A    between atoms: C_12  and  O_13 
ROOT
HETATM    1  C   UNK N   1      20.939  19.254   3.800  0.00  0.00     0.290 A 
HETATM    2  O   UNK N   1      20.706  17.894   3.639  0.00  0.00    -0.349 OA
HETATM    3  C   UNK N   1      20.479  17.385   2.350  0.00  0.00     0.179 A 
HETATM    4  C   UNK N   1      20.470  18.243   1.085  0.00  0.00     0.180 A 
HETATM    5  C   UNK N   1      20.714  19.699   1.210  0.00  0.00     0.183 A 
HETATM    6  C   UNK N   1      20.959  20.259   2.576  0.00  0.00     0.204 A 
ENDROOT
BRANCH   3   7
HETATM    7  C   UNK N   1      20.246  15.910   2.358  0.00  0.00     0.198 C 
BRANCH   7   8
HETATM    8  O   UNK N   1      19.190  15.633   1.477  0.00  0.00    -0.398 OA
HETATM    9  H   UNK N   1      19.325  15.024   0.733  0.00  0.00     0.209 HD
ENDBRANCH   7   8
ENDBRANCH   3   7
BRANCH   4  10
HETATM   10  O   UNK N   1      20.239  17.683  -0.158  0.00  0.00    -0.390 OA
HETATM   11  H   UNK N   1      19.739  18.177  -0.828  0.00  0.00     0.210 HD
ENDBRANCH   4  10
BRANCH   1  12
HETATM   12  O   UNK N   1      21.137  19.528   5.154  0.00  0.00    -0.363 OA
HETATM   13  C   UNK N   1      21.449  18.371   5.856  0.00  0.00     0.204 C 
ENDBRANCH   1  12
BRANCH   5  14
HETATM   14  O   UNK N   1      20.714  20.516   0.078  0.00  0.00    -0.390 OA
HETATM   15  H   UNK N   1      20.867  21.470   0.169  0.00  0.00     0.210 HD
ENDBRANCH   5  14
BRANCH   6  16
HETATM   16  O   UNK N   1      21.185  21.608   2.695  0.00  0.00    -0.388 OA
HETATM   17  H   UNK N   1      20.695  22.234   2.138  0.00  0.00     0.210 HD
ENDBRANCH   6  16
TORSDOF 6
ENDMDL
MODEL 2
REMARK VINA RESULT:      -5.3      1.600      3.445
REMARK  6 active torsions:
REMARK  status: ('A' for Active; 'I' for Inactive)
REMARK    1  A    between atoms: C_3  and  O_2 
REMARK    2  A    between atoms: C_5  and  C_6 
REMARK    3  A    between atoms: C_6  and  O_7 
REMARK    4  A    between atoms: C_8  and  O_9 
REMARK    5  A    between atoms: C_10  and  O_11 
REMARK    6  A    between atoms: C_12  and  O_13 
ROOT
HETATM    1  C   UNK N   1      21.858  19.974   2.964  0.00  0.00     0.290 A 
HETATM    2  O   UNK N   1      21.958  19.413   4.230  0.00  0.00    -0.349 OA
HETATM    3  C   UNK N   1      21.090  18.368   4.588  0.00  0.00     0.179 A 
HETATM    4  C   UNK N   1      20.020  17.794   3.659  0.00  0.00     0.180 A 
HETATM    5  C   UNK N   1      19.878  18.363   2.299  0.00  0.00     0.183 A 
HETATM    6  C   UNK N   1      20.794  19.476   1.900  0.00  0.00     0.204 A 
ENDROOT
BRANCH   3   7
HETATM    7  C   UNK N   1      21.333  17.883   5.979  0.00  0.00     0.198 C 
BRANCH   7   8
HETATM    8  O   UNK N   1      20.991  18.918   6.864  0.00  0.00    -0.398 OA
HETATM    9  H   UNK N   1      21.204  18.839   7.808  0.00  0.00     0.209 HD
ENDBRANCH   7   8
ENDBRANCH   3   7
BRANCH   4  10
HETATM   10  O   UNK N   1      19.194  16.764   4.069  0.00  0.00    -0.390 OA
HETATM   11  H   UNK N   1      19.257  16.423   4.976  0.00  0.00     0.210 HD
ENDBRANCH   4  10
BRANCH   1  12
HETATM   12  O   UNK N   1      22.812  20.984   2.834  0.00  0.00    -0.363 OA
HETATM   13  C   UNK N   1      24.092  20.490   3.041  0.00  0.00     0.204 C 
ENDBRANCH   1  12
BRANCH   5  14
HETATM   14  O   UNK N   1      18.912  17.866   1.421  0.00  0.00    -0.390 OA
HETATM   15  H   UNK N   1      18.620  18.402   0.667  0.00  0.00     0.210 HD
ENDBRANCH   5  14
BRANCH   6  16
HETATM   16  O   UNK N   1      20.665  20.006   0.640  0.00  0.00    -0.388 OA
HETATM   17  H   UNK N   1      19.924  19.737   0.074  0.00  0.00     0.210 HD
ENDBRANCH   6  16
TORSDOF 6
ENDMDL
MODEL 3
REMARK VINA RESULT:      -5.2      8.497     11.170
REMARK  6 active torsions:
REMARK  status: ('A' for Active; 'I' for Inactive)
REMARK    1  A    between atoms: C_3  and  O_2 
REMARK    2  A    between atoms: C_5  and  C_6 
REMARK    3  A    between atoms: C_6  and  O_7 
REMARK    4  A    between atoms: C_8  and  O_9 
REMARK    5  A    between atoms: C_10  and  O_11 
REMARK    6  A    between atoms: C_12  and  O_13 
ROOT
HETATM    1  C   UNK N   1      21.365  12.997   9.921  0.00  0.00     0.290 A 
HETATM    2  O   UNK N   1      22.583  13.352   9.358  0.00  0.00    -0.349 OA
HETATM    3  C   UNK N   1      23.772  13.011  10.025  0.00  0.00     0.179 A 
HETATM    4  C   UNK N   1      23.817  12.261  11.357  0.00  0.00     0.180 A 
HETATM    5  C   UNK N   1      22.540  11.863  11.993  0.00  0.00     0.183 A 
HETATM    6  C   UNK N   1      21.263  12.218  11.297  0.00  0.00     0.204 A 
ENDROOT
BRANCH   3   7
HETATM    7  C   UNK N   1      24.986  13.467   9.284  0.00  0.00     0.198 C 
BRANCH   7   8
HETATM    8  O   UNK N   1      25.932  13.899  10.226  0.00  0.00    -0.398 OA
HETATM    9  H   UNK N   1      26.860  14.012   9.965  0.00  0.00     0.209 HD
ENDBRANCH   7   8
ENDBRANCH   3   7
BRANCH   4  10
HETATM   10  O   UNK N   1      25.019  11.954  11.965  0.00  0.00    -0.390 OA
HETATM   11  H   UNK N   1      25.712  11.492  11.466  0.00  0.00     0.210 HD
ENDBRANCH   4  10
BRANCH   1  12
HETATM   12  O   UNK N   1      20.332  13.435   9.091  0.00  0.00    -0.363 OA
HETATM   13  C   UNK N   1      20.293  14.821   9.033  0.00  0.00     0.204 C 
ENDBRANCH   1  12
BRANCH   5  14
HETATM   14  O   UNK N   1      22.538  11.177  13.209  0.00  0.00    -0.390 OA
HETATM   15  H   UNK N   1      21.785  11.264  13.814  0.00  0.00     0.210 HD
ENDBRANCH   5  14
BRANCH   6  16
HETATM   16  O   UNK N   1      20.078  11.850  11.884  0.00  0.00    -0.388 OA
HETATM   17  H   UNK N   1      20.081  11.407  12.748  0.00  0.00     0.210 HD
ENDBRANCH   6  16
TORSDOF 6
ENDMDL
MODEL 4
REMARK VINA RESULT:      -5.1     13.486     15.185
REMARK  6 active torsions:
REMARK  status: ('A' for Active; 'I' for Inactive)
REMARK    1  A    between atoms: C_3  and  O_2 
REMARK    2  A    between atoms: C_5  and  C_6 
REMARK    3  A    between atoms: C_6  and  O_7 
REMARK    4  A    between atoms: C_8  and  O_9 
REMARK    5  A    between atoms: C_10  and  O_11 
REMARK    6  A    between atoms: C_12  and  O_13 
ROOT
HETATM    1  C   UNK N   1      33.713  15.667   6.903  0.00  0.00     0.290 A 
HETATM    2  O   UNK N   1      33.777  14.849   8.023  0.00  0.00    -0.349 OA
HETATM    3  C   UNK N   1      34.219  15.389   9.242  0.00  0.00     0.179 A 
HETATM    4  C   UNK N   1      34.642  16.847   9.424  0.00  0.00     0.180 A 
HETATM    5  C   UNK N   1      34.589  17.755   8.256  0.00  0.00     0.183 A 
HETATM    6  C   UNK N   1      34.121  17.197   6.948  0.00  0.00     0.204 A 
ENDROOT
BRANCH   3   7
HETATM    7  C   UNK N   1      34.227  14.376  10.339  0.00  0.00     0.198 C 
BRANCH   7   8
HETATM    8  O   UNK N   1      33.440  14.870  11.391  0.00  0.00    -0.398 OA
HETATM    9  H   UNK N   1      33.682  14.676  12.311  0.00  0.00     0.209 HD
ENDBRANCH   7   8
ENDBRANCH   3   7
BRANCH   4  10
HETATM   10  O   UNK N   1      35.068  17.320  10.651  0.00  0.00    -0.390 OA
HETATM   11  H   UNK N   1      34.579  17.088  11.457  0.00  0.00     0.210 HD
ENDBRANCH   4  10
BRANCH   1  12
HETATM   12  O   UNK N   1      33.251  14.921   5.817  0.00  0.00    -0.363 OA
HETATM   13  C   UNK N   1      31.864  14.898   5.784  0.00  0.00     0.204 C 
ENDBRANCH   1  12
BRANCH   5  14
HETATM   14  O   UNK N   1      34.968  19.093   8.382  0.00  0.00    -0.390 OA
HETATM   15  H   UNK N   1      35.886  19.319   8.599  0.00  0.00     0.210 HD
ENDBRANCH   5  14
BRANCH   6  16
HETATM   16  O   UNK N   1      34.071  18.036   5.863  0.00  0.00    -0.388 OA
HETATM   17  H   UNK N   1      33.257  18.104   5.338  0.00  0.00     0.210 HD
ENDBRANCH   6  16
TORSDOF 6
ENDMDL
MODEL 5
REMARK VINA RESULT:      -4.8      2.046      3.755
REMARK  6 active torsions:
REMARK  status: ('A' for Active; 'I' for Inactive)
REMARK    1  A    between atoms: C_3  and  O_2 
REMARK    2  A    between atoms: C_5  and  C_6 
REMARK    3  A    between atoms: C_6  and  O_7 
REMARK    4  A    between atoms: C_8  and  O_9 
REMARK    5  A    between atoms: C_10  and  O_11 
REMARK    6  A    between atoms: C_12  and  O_13 
ROOT
HETATM    1  C   UNK N   1      22.335  18.556   4.127  0.00  0.00     0.290 A 
HETATM    2  O   UNK N   1      22.116  19.486   3.119  0.00  0.00    -0.349 OA
HETATM    3  C   UNK N   1      20.880  19.498   2.453  0.00  0.00     0.179 A 
HETATM    4  C   UNK N   1      19.733  18.537   2.768  0.00  0.00     0.180 A 
HETATM    5  C   UNK N   1      19.923  17.528   3.836  0.00  0.00     0.183 A 
HETATM    6  C   UNK N   1      21.235  17.501   4.556  0.00  0.00     0.204 A 
ENDROOT
BRANCH   3   7
HETATM    7  C   UNK N   1      20.814  20.557   1.403  0.00  0.00     0.198 C 
BRANCH   7   8
HETATM    8  O   UNK N   1      20.584  19.930   0.168  0.00  0.00    -0.398 OA
HETATM    9  H   UNK N   1      20.301  20.455  -0.598  0.00  0.00     0.209 HD
ENDBRANCH   7   8
ENDBRANCH   3   7
BRANCH   4  10
HETATM   10  O   UNK N   1      18.538  18.598   2.077  0.00  0.00    -0.390 OA
HETATM   11  H   UNK N   1      17.735  18.912   2.523  0.00  0.00     0.210 HD
ENDBRANCH   4  10
BRANCH   1  12
HETATM   12  O   UNK N   1      23.621  18.731   4.640  0.00  0.00    -0.363 OA
HETATM   13  C   UNK N   1      24.479  19.235   3.672  0.00  0.00     0.204 C 
ENDBRANCH   1  12
BRANCH   5  14
HETATM   14  O   UNK N   1      18.900  16.632   4.153  0.00  0.00    -0.390 OA
HETATM   15  H   UNK N   1      18.253  16.377   3.478  0.00  0.00     0.210 HD
ENDBRANCH   5  14
BRANCH   6  16
HETATM   16  O   UNK N   1      21.413  16.567   5.547  0.00  0.00    -0.388 OA
HETATM   17  H   UNK N   1      20.644  16.134   5.951  0.00  0.00     0.210 HD
ENDBRANCH   6  16
TORSDOF 6
ENDMDL
MODEL 6
REMARK VINA RESULT:      -4.7     22.162     22.888
REMARK  6 active torsions:
REMARK  status: ('A' for Active; 'I' for Inactive)
REMARK    1  A    between atoms: C_3  and  O_2 
REMARK    2  A    between atoms: C_5  and  C_6 
REMARK    3  A    between atoms: C_6  and  O_7 
REMARK    4  A    between atoms: C_8  and  O_9 
REMARK    5  A    between atoms: C_10  and  O_11 
REMARK    6  A    between atoms: C_12  and  O_13 
ROOT
HETATM    1  C   UNK N   1      44.106  20.464   3.238  0.00  0.00     0.290 A 
HETATM    2  O   UNK N   1      42.860  20.253   2.663  0.00  0.00    -0.349 OA
HETATM    3  C   UNK N   1      42.054  21.360   2.348  0.00  0.00     0.179 A 
HETATM    4  C   UNK N   1      42.463  22.811   2.600  0.00  0.00     0.180 A 
HETATM    5  C   UNK N   1      43.784  23.082   3.211  0.00  0.00     0.183 A 
HETATM    6  C   UNK N   1      44.656  21.916   3.554  0.00  0.00     0.204 A 
ENDROOT
BRANCH   3   7
HETATM    7  C   UNK N   1      40.752  20.955   1.738  0.00  0.00     0.198 C 
BRANCH   7   8
HETATM    8  O   UNK N   1      39.721  21.402   2.580  0.00  0.00    -0.398 OA
HETATM    9  H   UNK N   1      39.114  20.764   2.985  0.00  0.00     0.209 HD
ENDBRANCH   7   8
ENDBRANCH   3   7
BRANCH   4  10
HETATM   10  O   UNK N   1      41.625  23.859   2.267  0.00  0.00    -0.390 OA
HETATM   11  H   UNK N   1      40.693  23.686   2.053  0.00  0.00     0.210 HD
ENDBRANCH   4  10
BRANCH   1  12
HETATM   12  O   UNK N   1      44.722  19.232   3.461  0.00  0.00    -0.363 OA
HETATM   13  C   UNK N   1      44.055  18.214   2.793  0.00  0.00     0.204 C 
ENDBRANCH   1  12
BRANCH   5  14
HETATM   14  O   UNK N   1      44.194  24.394   3.458  0.00  0.00    -0.390 OA
HETATM   15  H   UNK N   1      44.005  24.809   4.314  0.00  0.00     0.210 HD
ENDBRANCH   5  14
BRANCH   6  16
HETATM   16  O   UNK N   1      45.882  22.164   4.122  0.00  0.00    -0.388 OA
HETATM   17  H   UNK N   1      46.191  21.624   4.866  0.00  0.00     0.210 HD
ENDBRANCH   6  16
TORSDOF 6
ENDMDL
MODEL 7
REMARK VINA RESULT:      -4.7     13.994     14.998
REMARK  6 active torsions:
REMARK  status: ('A' for Active; 'I' for Inactive)
REMARK    1  A    between atoms: C_3  and  O_2 
REMARK    2  A    between atoms: C_5  and  C_6 
REMARK    3  A    between atoms: C_6  and  O_7 
REMARK    4  A    between atoms: C_8  and  O_9 
REMARK    5  A    between atoms: C_10  and  O_11 
REMARK    6  A    between atoms: C_12  and  O_13 
ROOT
HETATM    1  C   UNK N   1      34.783  16.825   9.672  0.00  0.00     0.290 A 
HETATM    2  O   UNK N   1      34.326  15.515   9.607  0.00  0.00    -0.349 OA
HETATM    3  C   UNK N   1      33.804  15.029   8.398  0.00  0.00     0.179 A 
HETATM    4  C   UNK N   1      33.700  15.862   7.119  0.00  0.00     0.180 A 
HETATM    5  C   UNK N   1      34.176  17.264   7.143  0.00  0.00     0.183 A 
HETATM    6  C   UNK N   1      34.736  17.799   8.423  0.00  0.00     0.204 A 
ENDROOT
BRANCH   3   7
HETATM    7  C   UNK N   1      33.360  13.607   8.504  0.00  0.00     0.198 C 
BRANCH   7   8
HETATM    8  O   UNK N   1      32.204  13.454   7.724  0.00  0.00    -0.398 OA
HETATM    9  H   UNK N   1      31.398  13.084   8.118  0.00  0.00     0.209 HD
ENDBRANCH   7   8
ENDBRANCH   3   7
BRANCH   4  10
HETATM   10  O   UNK N   1      33.175  15.327   5.958  0.00  0.00    -0.390 OA
HETATM   11  H   UNK N   1      33.174  15.850   5.140  0.00  0.00     0.210 HD
ENDBRANCH   4  10
BRANCH   1  12
HETATM   12  O   UNK N   1      35.253  17.083  10.960  0.00  0.00    -0.363 OA
HETATM   13  C   UNK N   1      35.772  15.934  11.540  0.00  0.00     0.204 C 
ENDBRANCH   1  12
BRANCH   5  14
HETATM   14  O   UNK N   1      34.098  18.057   5.996  0.00  0.00    -0.390 OA
HETATM   15  H   UNK N   1      33.836  17.661   5.150  0.00  0.00     0.210 HD
ENDBRANCH   5  14
BRANCH   6  16
HETATM   16  O   UNK N   1      35.177  19.099   8.448  0.00  0.00    -0.388 OA
HETATM   17  H   UNK N   1      36.129  19.289   8.432  0.00  0.00     0.210 HD
ENDBRANCH   6  16
TORSDOF 6
ENDMDL
MODEL 8
REMARK VINA RESULT:      -4.6     22.374     23.172
REMARK  6 active torsions:
REMARK  status: ('A' for Active; 'I' for Inactive)
REMARK    1  A    between atoms: C_3  and  O_2 
REMARK    2  A    between atoms: C_5  and  C_6 
REMARK    3  A    between atoms: C_6  and  O_7 
REMARK    4  A    between atoms: C_8  and  O_9 
REMARK    5  A    between atoms: C_10  and  O_11 
REMARK    6  A    between atoms: C_12  and  O_13 
ROOT
HETATM    1  C   UNK N   1      42.171  21.298   1.899  0.00  0.00     0.290 A 
HETATM    2  O   UNK N   1      43.097  20.285   2.112  0.00  0.00    -0.349 OA
HETATM    3  C   UNK N   1      44.230  20.546   2.900  0.00  0.00     0.179 A 
HETATM    4  C   UNK N   1      44.521  21.897   3.553  0.00  0.00     0.180 A 
HETATM    5  C   UNK N   1      43.560  23.006   3.353  0.00  0.00     0.183 A 
HETATM    6  C   UNK N   1      42.347  22.747   2.516  0.00  0.00     0.204 A 
ENDROOT
BRANCH   3   7
HETATM    7  C   UNK N   1      45.118  19.352   3.025  0.00  0.00     0.198 C 
BRANCH   7   8
HETATM    8  O   UNK N   1      46.445  19.804   3.099  0.00  0.00    -0.398 OA
HETATM    9  H   UNK N   1      46.679  20.680   2.754  0.00  0.00     0.209 HD
ENDBRANCH   7   8
ENDBRANCH   3   7
BRANCH   4  10
HETATM   10  O   UNK N   1      45.655  22.093   4.319  0.00  0.00    -0.390 OA
HETATM   11  H   UNK N   1      46.117  21.331   4.705  0.00  0.00     0.210 HD
ENDBRANCH   4  10
BRANCH   1  12
HETATM   12  O   UNK N   1      41.139  20.814   1.095  0.00  0.00    -0.363 OA
HETATM   13  C   UNK N   1      39.971  20.651   1.828  0.00  0.00     0.204 C 
ENDBRANCH   1  12
BRANCH   5  14
HETATM   14  O   UNK N   1      43.790  24.255   3.933  0.00  0.00    -0.390 OA
HETATM   15  H   UNK N   1      43.097  24.677   4.466  0.00  0.00     0.210 HD
ENDBRANCH   5  14
BRANCH   6  16
HETATM   16  O   UNK N   1      41.454  23.773   2.329  0.00  0.00    -0.388 OA
HETATM   17  H   UNK N   1      40.577  23.736   2.744  0.00  0.00     0.210 HD
ENDBRANCH   6  16
TORSDOF 6
ENDMDL
MODEL 9
REMARK VINA RESULT:      -4.6      2.021      2.125
REMARK  6 active torsions:
REMARK  status: ('A' for Active; 'I' for Inactive)
REMARK    1  A    between atoms: C_3  and  O_2 
REMARK    2  A    between atoms: C_5  and  C_6 
REMARK    3  A    between atoms: C_6  and  O_7 
REMARK    4  A    between atoms: C_8  and  O_9 
REMARK    5  A    between atoms: C_10  and  O_11 
REMARK    6  A    between atoms: C_12  and  O_13 
ROOT
HETATM    1  C   UNK N   1      22.630  18.871   3.920  0.00  0.00     0.290 A 
HETATM    2  O   UNK N   1      21.914  17.711   4.183  0.00  0.00    -0.349 OA
HETATM    3  C   UNK N   1      20.668  17.518   3.563  0.00  0.00     0.179 A 
HETATM    4  C   UNK N   1      20.032  18.519   2.599  0.00  0.00     0.180 A 
HETATM    5  C   UNK N   1      20.761  19.771   2.290  0.00  0.00     0.183 A 
HETATM    6  C   UNK N   1      22.090  19.993   2.941  0.00  0.00     0.204 A 
ENDROOT
BRANCH   3   7
HETATM    7  C   UNK N   1      20.036  16.223   3.956  0.00  0.00     0.198 C 
BRANCH   7   8
HETATM    8  O   UNK N   1      18.727  16.491   4.385  0.00  0.00    -0.398 OA
HETATM    9  H   UNK N   1      18.571  17.144   5.086  0.00  0.00     0.209 HD
ENDBRANCH   7   8
ENDBRANCH   3   7
BRANCH   4  10
HETATM   10  O   UNK N   1      18.801  18.273   2.020  0.00  0.00    -0.390 OA
HETATM   11  H   UNK N   1      18.595  17.389   1.676  0.00  0.00     0.210 HD
ENDBRANCH   4  10
BRANCH   1  12
HETATM   12  O   UNK N   1      23.825  18.844   4.639  0.00  0.00    -0.363 OA
HETATM   13  C   UNK N   1      24.821  18.192   3.925  0.00  0.00     0.204 C 
ENDBRANCH   1  12
BRANCH   5  14
HETATM   14  O   UNK N   1      20.214  20.711   1.414  0.00  0.00    -0.390 OA
HETATM   15  H   UNK N   1      19.778  20.417   0.598  0.00  0.00     0.210 HD
ENDBRANCH   5  14
BRANCH   6  16
HETATM   16  O   UNK N   1      22.768  21.153   2.656  0.00  0.00    -0.388 OA
HETATM   17  H   UNK N   1      22.884  21.434   1.734  0.00  0.00     0.210 HD
ENDBRANCH   6  16
TORSDOF 6
ENDMDL
