MODEL 1
REMARK VINA RESULT:      -9.3      0.000      0.000
REMARK  4 active torsions:
REMARK  status: ('A' for Active; 'I' for Inactive)
REMARK    1  A    between atoms: C_7  and  S_12 
REMARK    2  A    between atoms: S_12  and  N_15 
REMARK       I    between atoms: N_18  and  C_21 
REMARK    3  A    between atoms: C_21  and  C_23 
REMARK    4  A    between atoms: N_26  and  C_29 
ROOT
HETATM    1  N   UNK N   1      36.569  13.291  11.702  0.00  0.00    -0.203 NA
HETATM    2  C   UNK N   1      36.755  12.558  10.430  0.00  0.00     0.127 C 
HETATM    3  C   UNK N   1      37.386  13.446   9.328  0.00  0.00     0.141 C 
HETATM    4  N   UNK N   1      36.577  14.630   9.270  0.00  0.00    -0.349 N 
HETATM    5  C   UNK N   1      36.525  15.427  10.470  0.00  0.00     0.141 C 
HETATM    6  C   UNK N   1      35.876  14.574  11.527  0.00  0.00     0.127 C 
HETATM    7  C   UNK N   1      35.648  14.808   8.288  0.00  0.00     0.224 C 
HETATM    8  O   UNK N   1      35.677  14.116   7.273  0.00  0.00    -0.273 OA
ENDROOT
BRANCH   7   9
HETATM    9  C   UNK N   1      34.441  15.634   8.603  0.00  0.00     0.081 C 
HETATM   10  C   UNK N   1      34.181  16.945   7.871  0.00  0.00     0.034 C 
HETATM   11  C   UNK N   1      32.923  17.590   8.499  0.00  0.00     0.123 C 
HETATM   12  N   UNK N   1      31.818  16.637   8.608  0.00  0.00    -0.381 N 
HETATM   13  C   UNK N   1      32.084  15.308   9.110  0.00  0.00     0.123 C 
HETATM   14  C   UNK N   1      33.248  14.717   8.371  0.00  0.00     0.034 C 
BRANCH  12  15
HETATM   15  C   UNK N   1      30.462  17.047   8.446  0.00  0.00     0.032 A 
HETATM   16  C   UNK N   1      29.710  17.501   9.538  0.00  0.00     0.046 A 
HETATM   17  C   UNK N   1      28.367  17.840   9.356  0.00  0.00     0.089 A 
HETATM   18  N   UNK N   1      27.792  17.734   8.127  0.00  0.00    -0.375 N 
HETATM   19  C   UNK N   1      28.497  17.303   7.050  0.00  0.00     0.089 A 
ATOM     20  HN  UNK N   1      26.809  17.983   8.014  1.00  0.00     0.164 HD
HETATM   21  C   UNK N   1      29.838  16.950   7.189  0.00  0.00     0.046 A 
ENDBRANCH  12  15
ENDBRANCH   7   9
BRANCH   1  22
HETATM   22  S   UNK N   1      35.530  12.351  12.804  0.00  0.00     0.243 S 
HETATM   23  O   UNK N   1      34.465  11.559  12.025  0.00  0.00    -0.206 OA
HETATM   24  O   UNK N   1      34.611  13.511  13.215  0.00  0.00    -0.206 OA
BRANCH  22  25
HETATM   25  C   UNK N   1      35.947  11.872  14.463  0.00  0.00     0.075 A 
HETATM   26  C   UNK N   1      35.544  12.672  15.530  0.00  0.00     0.037 A 
HETATM   27  C   UNK N   1      35.618  12.177  16.831  0.00  0.00    -0.024 A 
HETATM   28  C   UNK N   1      35.176  12.956  17.900  0.00  0.00     0.014 A 
HETATM   29  C   UNK N   1      36.088  10.862  17.061  0.00  0.00    -0.024 A 
HETATM   30  C   UNK N   1      35.176  12.426  19.193  0.00  0.00     0.024 A 
HETATM   31  C   UNK N   1      35.622  11.119  19.419  0.00  0.00     0.034 A 
HETATM   32 Cl   UNK N   1      35.567  10.446  21.032  0.00  0.00    -0.084 Cl
HETATM   33  C   UNK N   1      36.086  10.340  18.356  0.00  0.00     0.036 A 
HETATM   34  C   UNK N   1      36.519  10.077  15.991  0.00  0.00     0.014 A 
HETATM   35  C   UNK N   1      36.435  10.579  14.692  0.00  0.00     0.026 A 
ENDBRANCH  22  25
ENDBRANCH   1  22
TORSDOF 4
ENDMDL
MODEL 2
REMARK VINA RESULT:      -9.2     11.532     15.722
REMARK  4 active torsions:
REMARK  status: ('A' for Active; 'I' for Inactive)
REMARK    1  A    between atoms: C_7  and  S_12 
REMARK    2  A    between atoms: S_12  and  N_15 
REMARK       I    between atoms: N_18  and  C_21 
REMARK    3  A    between atoms: C_21  and  C_23 
REMARK    4  A    between atoms: N_26  and  C_29 
ROOT
HETATM    1  N   UNK N   1      20.242  17.961   2.993  0.00  0.00    -0.203 NA
HETATM    2  C   UNK N   1      20.960  17.087   2.038  0.00  0.00     0.127 C 
HETATM    3  C   UNK N   1      20.295  15.695   1.902  0.00  0.00     0.141 C 
HETATM    4  N   UNK N   1      20.154  15.197   3.240  0.00  0.00    -0.349 N 
HETATM    5  C   UNK N   1      19.323  15.971   4.126  0.00  0.00     0.141 C 
HETATM    6  C   UNK N   1      19.993  17.310   4.286  0.00  0.00     0.127 C 
HETATM    7  C   UNK N   1      21.014  14.266   3.745  0.00  0.00     0.224 C 
HETATM    8  O   UNK N   1      21.739  13.619   2.995  0.00  0.00    -0.273 OA
ENDROOT
BRANCH   7   9
HETATM    9  C   UNK N   1      21.267  14.272   5.220  0.00  0.00     0.081 C 
HETATM   10  C   UNK N   1      20.506  13.329   6.144  0.00  0.00     0.034 C 
HETATM   11  C   UNK N   1      20.925  13.657   7.596  0.00  0.00     0.123 C 
HETATM   12  N   UNK N   1      22.380  13.729   7.740  0.00  0.00    -0.381 N 
HETATM   13  C   UNK N   1      23.149  14.450   6.753  0.00  0.00     0.123 C 
HETATM   14  C   UNK N   1      22.755  13.992   5.379  0.00  0.00     0.034 C 
BRANCH  12  15
HETATM   15  C   UNK N   1      23.032  13.304   8.936  0.00  0.00     0.032 A 
HETATM   16  C   UNK N   1      24.429  13.260   9.019  0.00  0.00     0.046 A 
HETATM   17  C   UNK N   1      25.035  12.783  10.184  0.00  0.00     0.089 A 
HETATM   18  N   UNK N   1      24.275  12.366  11.233  0.00  0.00    -0.375 N 
HETATM   19  C   UNK N   1      22.918  12.402  11.183  0.00  0.00     0.089 A 
ATOM     20  HN  UNK N   1      24.734  12.018  12.075  1.00  0.00     0.164 HD
HETATM   21  C   UNK N   1      22.275  12.866  10.037  0.00  0.00     0.046 A 
ENDBRANCH  12  15
ENDBRANCH   7   9
BRANCH   1  22
HETATM   22  S   UNK N   1      21.232  19.392   3.378  0.00  0.00     0.243 S 
HETATM   23  O   UNK N   1      20.357  20.560   3.866  0.00  0.00    -0.206 OA
HETATM   24  O   UNK N   1      21.390  19.893   1.934  0.00  0.00    -0.206 OA
BRANCH  22  25
HETATM   25  C   UNK N   1      22.971  19.380   3.741  0.00  0.00     0.075 A 
HETATM   26  C   UNK N   1      23.521  18.300   4.429  0.00  0.00     0.037 A 
HETATM   27  C   UNK N   1      24.906  18.145   4.476  0.00  0.00    -0.024 A 
HETATM   28  C   UNK N   1      25.462  17.044   5.126  0.00  0.00     0.014 A 
HETATM   29  C   UNK N   1      25.744  19.074   3.814  0.00  0.00    -0.024 A 
HETATM   30  C   UNK N   1      26.846  16.848   5.102  0.00  0.00     0.024 A 
HETATM   31  C   UNK N   1      27.674  17.755   4.431  0.00  0.00     0.034 A 
HETATM   32 Cl   UNK N   1      29.397  17.472   4.359  0.00  0.00    -0.084 Cl
HETATM   33  C   UNK N   1      27.125  18.872   3.795  0.00  0.00     0.036 A 
HETATM   34  C   UNK N   1      25.188  20.169   3.153  0.00  0.00     0.014 A 
HETATM   35  C   UNK N   1      23.801  20.313   3.105  0.00  0.00     0.026 A 
ENDBRANCH  22  25
ENDBRANCH   1  22
TORSDOF 4
ENDMDL
MODEL 3
REMARK VINA RESULT:      -8.8      4.311      9.910
REMARK  4 active torsions:
REMARK  status: ('A' for Active; 'I' for Inactive)
REMARK    1  A    between atoms: C_7  and  S_12 
REMARK    2  A    between atoms: S_12  and  N_15 
REMARK       I    between atoms: N_18  and  C_21 
REMARK    3  A    between atoms: C_21  and  C_23 
REMARK    4  A    between atoms: N_26  and  C_29 
ROOT
HETATM    1  N   UNK N   1      34.477  13.810   8.313  0.00  0.00    -0.203 NA
HETATM    2  C   UNK N   1      35.900  13.971   7.940  0.00  0.00     0.127 C 
HETATM    3  C   UNK N   1      36.686  12.639   8.035  0.00  0.00     0.141 C 
HETATM    4  N   UNK N   1      36.425  12.125   9.349  0.00  0.00    -0.349 N 
HETATM    5  C   UNK N   1      35.050  11.820   9.655  0.00  0.00     0.141 C 
HETATM    6  C   UNK N   1      34.297  13.123   9.599  0.00  0.00     0.127 C 
HETATM    7  C   UNK N   1      37.341  12.245  10.353  0.00  0.00     0.224 C 
HETATM    8  O   UNK N   1      38.509  12.524  10.098  0.00  0.00    -0.273 OA
ENDROOT
BRANCH   7   9
HETATM    9  C   UNK N   1      36.834  12.329  11.759  0.00  0.00     0.081 C 
HETATM   10  C   UNK N   1      37.565  11.621  12.893  0.00  0.00     0.034 C 
HETATM   11  C   UNK N   1      36.734  11.822  14.183  0.00  0.00     0.123 C 
HETATM   12  N   UNK N   1      36.362  13.224  14.378  0.00  0.00    -0.381 N 
HETATM   13  C   UNK N   1      35.857  13.980  13.255  0.00  0.00     0.123 C 
HETATM   14  C   UNK N   1      36.780  13.815  12.084  0.00  0.00     0.034 C 
BRANCH  12  15
HETATM   15  C   UNK N   1      36.273  13.796  15.682  0.00  0.00     0.032 A 
HETATM   16  C   UNK N   1      35.388  13.282  16.637  0.00  0.00     0.046 A 
HETATM   17  C   UNK N   1      35.283  13.902  17.884  0.00  0.00     0.089 A 
HETATM   18  N   UNK N   1      36.038  14.997  18.173  0.00  0.00    -0.375 N 
HETATM   19  C   UNK N   1      36.909  15.514  17.269  0.00  0.00     0.089 A 
ATOM     20  HN  UNK N   1      35.946  15.439  19.088  1.00  0.00     0.164 HD
HETATM   21  C   UNK N   1      37.040  14.929  16.011  0.00  0.00     0.046 A 
ENDBRANCH  12  15
ENDBRANCH   7   9
BRANCH   1  22
HETATM   22  S   UNK N   1      33.717  15.407   8.531  0.00  0.00     0.243 S 
HETATM   23  O   UNK N   1      34.756  16.468   8.935  0.00  0.00    -0.206 OA
HETATM   24  O   UNK N   1      33.176  15.155   9.946  0.00  0.00    -0.206 OA
BRANCH  22  25
HETATM   25  C   UNK N   1      32.159  15.914   7.844  0.00  0.00     0.075 A 
HETATM   26  C   UNK N   1      31.311  16.728   8.593  0.00  0.00     0.037 A 
HETATM   27  C   UNK N   1      30.230  17.353   7.973  0.00  0.00    -0.024 A 
HETATM   28  C   UNK N   1      29.403  18.203   8.707  0.00  0.00     0.014 A 
HETATM   29  C   UNK N   1      30.007  17.171   6.588  0.00  0.00    -0.024 A 
HETATM   30  C   UNK N   1      28.369  18.891   8.065  0.00  0.00     0.024 A 
HETATM   31  C   UNK N   1      28.161  18.728   6.691  0.00  0.00     0.034 A 
HETATM   32 Cl   UNK N   1      26.901  19.635   5.887  0.00  0.00    -0.084 Cl
HETATM   33  C   UNK N   1      28.973  17.862   5.954  0.00  0.00     0.036 A 
HETATM   34  C   UNK N   1      30.842  16.331   5.851  0.00  0.00     0.014 A 
HETATM   35  C   UNK N   1      31.926  15.714   6.477  0.00  0.00     0.026 A 
ENDBRANCH  22  25
ENDBRANCH   1  22
TORSDOF 4
ENDMDL
MODEL 4
REMARK VINA RESULT:      -8.6      8.590     11.723
REMARK  4 active torsions:
REMARK  status: ('A' for Active; 'I' for Inactive)
REMARK    1  A    between atoms: C_7  and  S_12 
REMARK    2  A    between atoms: S_12  and  N_15 
REMARK       I    between atoms: N_18  and  C_21 
REMARK    3  A    between atoms: C_21  and  C_23 
REMARK    4  A    between atoms: N_26  and  C_29 
ROOT
HETATM    1  N   UNK N   1      26.288  17.615   4.078  0.00  0.00    -0.203 NA
HETATM    2  C   UNK N   1      27.061  16.447   3.601  0.00  0.00     0.127 C 
HETATM    3  C   UNK N   1      26.173  15.423   2.850  0.00  0.00     0.141 C 
HETATM    4  N   UNK N   1      25.072  15.144   3.726  0.00  0.00    -0.349 N 
HETATM    5  C   UNK N   1      24.226  16.261   4.064  0.00  0.00     0.141 C 
HETATM    6  C   UNK N   1      25.083  17.236   4.827  0.00  0.00     0.127 C 
HETATM    7  C   UNK N   1      25.026  14.000   4.468  0.00  0.00     0.224 C 
HETATM    8  O   UNK N   1      25.760  13.054   4.196  0.00  0.00    -0.273 OA
ENDROOT
BRANCH   7   9
HETATM    9  C   UNK N   1      24.299  14.039   5.775  0.00  0.00     0.081 C 
HETATM   10  C   UNK N   1      22.899  13.453   5.905  0.00  0.00     0.034 C 
HETATM   11  C   UNK N   1      22.401  13.745   7.340  0.00  0.00     0.123 C 
HETATM   12  N   UNK N   1      23.394  13.372   8.348  0.00  0.00    -0.381 N 
HETATM   13  C   UNK N   1      24.776  13.741   8.143  0.00  0.00     0.123 C 
HETATM   14  C   UNK N   1      25.206  13.324   6.767  0.00  0.00     0.034 C 
BRANCH  12  15
HETATM   15  C   UNK N   1      23.007  12.858   9.621  0.00  0.00     0.032 A 
HETATM   16  C   UNK N   1      23.961  12.372  10.524  0.00  0.00     0.046 A 
HETATM   17  C   UNK N   1      23.544  11.822  11.738  0.00  0.00     0.089 A 
HETATM   18  N   UNK N   1      22.219  11.759  12.045  0.00  0.00    -0.375 N 
HETATM   19  C   UNK N   1      21.272  12.228  11.192  0.00  0.00     0.089 A 
ATOM     20  HN  UNK N   1      21.932  11.352  12.935  1.00  0.00     0.164 HD
HETATM   21  C   UNK N   1      21.646  12.780   9.968  0.00  0.00     0.046 A 
ENDBRANCH  12  15
ENDBRANCH   7   9
BRANCH   1  22
HETATM   22  S   UNK N   1      27.265  18.568   5.225  0.00  0.00     0.243 S 
HETATM   23  O   UNK N   1      26.523  19.844   5.662  0.00  0.00    -0.206 OA
HETATM   24  O   UNK N   1      28.159  19.246   4.175  0.00  0.00    -0.206 OA
BRANCH  22  25
HETATM   25  C   UNK N   1      28.606  17.946   6.209  0.00  0.00     0.075 A 
HETATM   26  C   UNK N   1      29.814  17.621   5.597  0.00  0.00     0.037 A 
HETATM   27  C   UNK N   1      30.947  17.400   6.379  0.00  0.00    -0.024 A 
HETATM   28  C   UNK N   1      32.170  17.117   5.770  0.00  0.00     0.014 A 
HETATM   29  C   UNK N   1      30.869  17.521   7.787  0.00  0.00    -0.024 A 
HETATM   30  C   UNK N   1      33.319  16.976   6.552  0.00  0.00     0.024 A 
HETATM   31  C   UNK N   1      33.247  17.116   7.943  0.00  0.00     0.034 A 
HETATM   32 Cl   UNK N   1      34.700  16.993   8.907  0.00  0.00    -0.084 Cl
HETATM   33  C   UNK N   1      32.022  17.379   8.561  0.00  0.00     0.036 A 
HETATM   34  C   UNK N   1      29.649  17.817   8.395  0.00  0.00     0.014 A 
HETATM   35  C   UNK N   1      28.522  18.043   7.605  0.00  0.00     0.026 A 
ENDBRANCH  22  25
ENDBRANCH   1  22
TORSDOF 4
ENDMDL
MODEL 5
REMARK VINA RESULT:      -8.5      1.919      2.407
REMARK  4 active torsions:
REMARK  status: ('A' for Active; 'I' for Inactive)
REMARK    1  A    between atoms: C_7  and  S_12 
REMARK    2  A    between atoms: S_12  and  N_15 
REMARK       I    between atoms: N_18  and  C_21 
REMARK    3  A    between atoms: C_21  and  C_23 
REMARK    4  A    between atoms: N_26  and  C_29 
ROOT
HETATM    1  N   UNK N   1      35.711  13.652   9.767  0.00  0.00    -0.203 NA
HETATM    2  C   UNK N   1      35.196  12.400   9.170  0.00  0.00     0.127 C 
HETATM    3  C   UNK N   1      35.475  12.318   7.648  0.00  0.00     0.141 C 
HETATM    4  N   UNK N   1      34.975  13.543   7.093  0.00  0.00    -0.349 N 
HETATM    5  C   UNK N   1      35.591  14.757   7.565  0.00  0.00     0.141 C 
HETATM    6  C   UNK N   1      35.285  14.852   9.037  0.00  0.00     0.127 C 
HETATM    7  C   UNK N   1      33.778  13.590   6.441  0.00  0.00     0.224 C 
HETATM    8  O   UNK N   1      33.240  12.556   6.055  0.00  0.00    -0.273 OA
ENDROOT
BRANCH   7   9
HETATM    9  C   UNK N   1      33.007  14.872   6.478  0.00  0.00     0.081 C 
HETATM   10  C   UNK N   1      32.199  15.330   5.270  0.00  0.00     0.034 C 
HETATM   11  C   UNK N   1      31.616  16.725   5.599  0.00  0.00     0.123 C 
HETATM   12  N   UNK N   1      30.962  16.747   6.908  0.00  0.00    -0.381 N 
HETATM   13  C   UNK N   1      31.624  16.131   8.035  0.00  0.00     0.123 C 
HETATM   14  C   UNK N   1      32.060  14.744   7.662  0.00  0.00     0.034 C 
BRANCH  12  15
HETATM   15  C   UNK N   1      29.806  17.547   7.150  0.00  0.00     0.032 A 
HETATM   16  C   UNK N   1      29.456  17.936   8.449  0.00  0.00     0.046 A 
HETATM   17  C   UNK N   1      28.286  18.670   8.658  0.00  0.00     0.089 A 
HETATM   18  N   UNK N   1      27.492  19.010   7.606  0.00  0.00    -0.375 N 
HETATM   19  C   UNK N   1      27.809  18.653   6.335  0.00  0.00     0.089 A 
ATOM     20  HN  UNK N   1      26.640  19.544   7.777  1.00  0.00     0.164 HD
HETATM   21  C   UNK N   1      28.965  17.915   6.085  0.00  0.00     0.046 A 
ENDBRANCH  12  15
ENDBRANCH   7   9
BRANCH   1  22
HETATM   22  S   UNK N   1      35.061  13.857  11.414  0.00  0.00     0.243 S 
HETATM   23  O   UNK N   1      33.973  14.946  11.451  0.00  0.00    -0.206 OA
HETATM   24  O   UNK N   1      36.200  14.739  11.947  0.00  0.00    -0.206 OA
BRANCH  22  25
HETATM   25  C   UNK N   1      35.154  12.657  12.721  0.00  0.00     0.075 A 
HETATM   26  C   UNK N   1      35.526  13.063  14.001  0.00  0.00     0.037 A 
HETATM   27  C   UNK N   1      35.337  12.202  15.080  0.00  0.00    -0.024 A 
HETATM   28  C   UNK N   1      35.667  12.618  16.370  0.00  0.00     0.014 A 
HETATM   29  C   UNK N   1      34.755  10.928  14.875  0.00  0.00    -0.024 A 
HETATM   30  C   UNK N   1      35.401  11.784  17.459  0.00  0.00     0.024 A 
HETATM   31  C   UNK N   1      34.807  10.532  17.259  0.00  0.00     0.034 A 
HETATM   32 Cl   UNK N   1      34.428   9.519  18.632  0.00  0.00    -0.084 Cl
HETATM   33  C   UNK N   1      34.493  10.100  15.968  0.00  0.00     0.036 A 
HETATM   34  C   UNK N   1      34.413  10.516  13.587  0.00  0.00     0.014 A 
HETATM   35  C   UNK N   1      34.600  11.387  12.513  0.00  0.00     0.026 A 
ENDBRANCH  22  25
ENDBRANCH   1  22
TORSDOF 4
ENDMDL
MODEL 6
REMARK VINA RESULT:      -8.5     18.554     22.274
REMARK  4 active torsions:
REMARK  status: ('A' for Active; 'I' for Inactive)
REMARK    1  A    between atoms: C_7  and  S_12 
REMARK    2  A    between atoms: S_12  and  N_15 
REMARK       I    between atoms: N_18  and  C_21 
REMARK    3  A    between atoms: C_21  and  C_23 
REMARK    4  A    between atoms: N_26  and  C_29 
ROOT
HETATM    1  N   UNK N   1      26.541  24.491  -6.347  0.00  0.00    -0.203 NA
HETATM    2  C   UNK N   1      25.881  23.989  -5.122  0.00  0.00     0.127 C 
HETATM    3  C   UNK N   1      26.358  24.736  -3.851  0.00  0.00     0.141 C 
HETATM    4  N   UNK N   1      27.792  24.672  -3.875  0.00  0.00    -0.349 N 
HETATM    5  C   UNK N   1      28.440  25.301  -4.998  0.00  0.00     0.141 C 
HETATM    6  C   UNK N   1      28.004  24.549  -6.226  0.00  0.00     0.127 C 
HETATM    7  C   UNK N   1      28.476  23.785  -3.097  0.00  0.00     0.224 C 
HETATM    8  O   UNK N   1      27.921  23.231  -2.152  0.00  0.00    -0.273 OA
ENDROOT
BRANCH   7   9
HETATM    9  C   UNK N   1      29.796  23.285  -3.595  0.00  0.00     0.081 C 
HETATM   10  C   UNK N   1      30.903  22.904  -2.619  0.00  0.00     0.034 C 
HETATM   11  C   UNK N   1      32.152  22.531  -3.452  0.00  0.00     0.123 C 
HETATM   12  N   UNK N   1      31.830  21.587  -4.523  0.00  0.00    -0.381 N 
HETATM   13  C   UNK N   1      30.658  21.820  -5.335  0.00  0.00     0.123 C 
HETATM   14  C   UNK N   1      29.474  22.065  -4.446  0.00  0.00     0.034 C 
BRANCH  12  15
HETATM   15  C   UNK N   1      32.754  20.580  -4.931  0.00  0.00     0.032 A 
HETATM   16  C   UNK N   1      33.670  20.031  -4.024  0.00  0.00     0.046 A 
HETATM   17  C   UNK N   1      34.600  19.089  -4.469  0.00  0.00     0.089 A 
HETATM   18  N   UNK N   1      34.616  18.702  -5.774  0.00  0.00    -0.375 N 
HETATM   19  C   UNK N   1      33.736  19.212  -6.675  0.00  0.00     0.089 A 
ATOM     20  HN  UNK N   1      35.303  18.015  -6.083  1.00  0.00     0.164 HD
HETATM   21  C   UNK N   1      32.795  20.159  -6.272  0.00  0.00     0.046 A 
ENDBRANCH  12  15
ENDBRANCH   7   9
BRANCH   1  22
HETATM   22  S   UNK N   1      26.233  23.380  -7.707  0.00  0.00     0.243 S 
HETATM   23  O   UNK N   1      24.933  23.750  -8.444  0.00  0.00    -0.206 OA
HETATM   24  O   UNK N   1      25.632  22.239  -6.872  0.00  0.00    -0.206 OA
BRANCH  22  25
HETATM   25  C   UNK N   1      27.450  22.371  -8.516  0.00  0.00     0.075 A 
HETATM   26  C   UNK N   1      28.038  21.315  -7.822  0.00  0.00     0.037 A 
HETATM   27  C   UNK N   1      28.777  20.359  -8.518  0.00  0.00    -0.024 A 
HETATM   28  C   UNK N   1      29.332  19.276  -7.836  0.00  0.00     0.014 A 
HETATM   29  C   UNK N   1      28.913  20.455  -9.923  0.00  0.00    -0.024 A 
HETATM   30  C   UNK N   1      30.001  18.276  -8.547  0.00  0.00     0.024 A 
HETATM   31  C   UNK N   1      30.119  18.361  -9.939  0.00  0.00     0.034 A 
HETATM   32 Cl   UNK N   1      30.911  17.078 -10.824  0.00  0.00    -0.084 Cl
HETATM   33  C   UNK N   1      29.584  19.453 -10.626  0.00  0.00     0.036 A 
HETATM   34  C   UNK N   1      28.347  21.531 -10.607  0.00  0.00     0.014 A 
HETATM   35  C   UNK N   1      27.604  22.481  -9.905  0.00  0.00     0.026 A 
ENDBRANCH  22  25
ENDBRANCH   1  22
TORSDOF 4
ENDMDL
MODEL 7
REMARK VINA RESULT:      -8.5      8.023     11.911
REMARK  4 active torsions:
REMARK  status: ('A' for Active; 'I' for Inactive)
REMARK    1  A    between atoms: C_7  and  S_12 
REMARK    2  A    between atoms: S_12  and  N_15 
REMARK       I    between atoms: N_18  and  C_21 
REMARK    3  A    between atoms: C_21  and  C_23 
REMARK    4  A    between atoms: N_26  and  C_29 
ROOT
HETATM    1  N   UNK N   1      23.958  15.991   4.101  0.00  0.00    -0.203 NA
HETATM    2  C   UNK N   1      23.536  17.118   4.961  0.00  0.00     0.127 C 
HETATM    3  C   UNK N   1      24.051  18.482   4.436  0.00  0.00     0.141 C 
HETATM    4  N   UNK N   1      25.464  18.318   4.247  0.00  0.00    -0.349 N 
HETATM    5  C   UNK N   1      25.869  17.322   3.287  0.00  0.00     0.141 C 
HETATM    6  C   UNK N   1      25.400  15.994   3.820  0.00  0.00     0.127 C 
HETATM    7  C   UNK N   1      26.363  18.806   5.149  0.00  0.00     0.224 C 
HETATM    8  O   UNK N   1      26.017  19.640   5.982  0.00  0.00    -0.273 OA
ENDROOT
BRANCH   7   9
HETATM    9  C   UNK N   1      27.670  18.092   5.295  0.00  0.00     0.081 C 
HETATM   10  C   UNK N   1      28.866  18.475   4.432  0.00  0.00     0.034 C 
HETATM   11  C   UNK N   1      30.012  17.488   4.758  0.00  0.00     0.123 C 
HETATM   12  N   UNK N   1      30.224  17.356   6.200  0.00  0.00    -0.381 N 
HETATM   13  C   UNK N   1      29.078  17.198   7.066  0.00  0.00     0.123 C 
HETATM   14  C   UNK N   1      28.066  18.261   6.755  0.00  0.00     0.034 C 
BRANCH  12  15
HETATM   15  C   UNK N   1      31.526  17.153   6.747  0.00  0.00     0.032 A 
HETATM   16  C   UNK N   1      31.699  16.840   8.100  0.00  0.00     0.046 A 
HETATM   17  C   UNK N   1      32.991  16.706   8.617  0.00  0.00     0.089 A 
HETATM   18  N   UNK N   1      34.074  16.876   7.810  0.00  0.00    -0.375 N 
HETATM   19  C   UNK N   1      33.936  17.174   6.492  0.00  0.00     0.089 A 
ATOM     20  HN  UNK N   1      35.010  16.777   8.205  1.00  0.00     0.164 HD
HETATM   21  C   UNK N   1      32.665  17.321   5.940  0.00  0.00     0.046 A 
ENDBRANCH  12  15
ENDBRANCH   7   9
BRANCH   1  22
HETATM   22  S   UNK N   1      23.651  14.441   4.927  0.00  0.00     0.243 S 
HETATM   23  O   UNK N   1      23.797  13.255   3.957  0.00  0.00    -0.206 OA
HETATM   24  O   UNK N   1      22.118  14.513   4.876  0.00  0.00    -0.206 OA
BRANCH  22  25
HETATM   25  C   UNK N   1      23.747  14.166   6.679  0.00  0.00     0.075 A 
HETATM   26  C   UNK N   1      22.580  13.933   7.403  0.00  0.00     0.037 A 
HETATM   27  C   UNK N   1      22.661  13.447   8.707  0.00  0.00    -0.024 A 
HETATM   28  C   UNK N   1      21.495  13.170   9.421  0.00  0.00     0.014 A 
HETATM   29  C   UNK N   1      23.925  13.178   9.284  0.00  0.00    -0.024 A 
HETATM   30  C   UNK N   1      21.580  12.607  10.697  0.00  0.00     0.024 A 
HETATM   31  C   UNK N   1      22.829  12.322  11.260  0.00  0.00     0.034 A 
HETATM   32 Cl   UNK N   1      22.922  11.566  12.834  0.00  0.00    -0.084 Cl
HETATM   33  C   UNK N   1      24.001  12.615  10.559  0.00  0.00     0.036 A 
HETATM   34  C   UNK N   1      25.091  13.442   8.564  0.00  0.00     0.014 A 
HETATM   35  C   UNK N   1      25.000  13.923   7.258  0.00  0.00     0.026 A 
ENDBRANCH  22  25
ENDBRANCH   1  22
TORSDOF 4
ENDMDL
MODEL 8
REMARK VINA RESULT:      -8.3      7.029     10.045
REMARK  4 active torsions:
REMARK  status: ('A' for Active; 'I' for Inactive)
REMARK    1  A    between atoms: C_7  and  S_12 
REMARK    2  A    between atoms: S_12  and  N_15 
REMARK       I    between atoms: N_18  and  C_21 
REMARK    3  A    between atoms: C_21  and  C_23 
REMARK    4  A    between atoms: N_26  and  C_29 
ROOT
HETATM    1  N   UNK N   1      33.842  14.042   6.905  0.00  0.00    -0.203 NA
HETATM    2  C   UNK N   1      34.756  15.203   6.981  0.00  0.00     0.127 C 
HETATM    3  C   UNK N   1      34.789  15.832   8.396  0.00  0.00     0.141 C 
HETATM    4  N   UNK N   1      33.419  16.076   8.747  0.00  0.00    -0.349 N 
HETATM    5  C   UNK N   1      32.564  14.919   8.824  0.00  0.00     0.141 C 
HETATM    6  C   UNK N   1      32.505  14.332   7.439  0.00  0.00     0.127 C 
HETATM    7  C   UNK N   1      32.877  17.325   8.666  0.00  0.00     0.224 C 
HETATM    8  O   UNK N   1      33.602  18.312   8.579  0.00  0.00    -0.273 OA
ENDROOT
BRANCH   7   9
HETATM    9  C   UNK N   1      31.412  17.438   8.383  0.00  0.00     0.081 C 
HETATM   10  C   UNK N   1      30.585  18.563   8.995  0.00  0.00     0.034 C 
HETATM   11  C   UNK N   1      29.110  18.333   8.590  0.00  0.00     0.123 C 
HETATM   12  N   UNK N   1      28.972  18.085   7.154  0.00  0.00    -0.381 N 
HETATM   13  C   UNK N   1      29.885  17.170   6.508  0.00  0.00     0.123 C 
HETATM   14  C   UNK N   1      31.295  17.534   6.869  0.00  0.00     0.034 C 
BRANCH  12  15
HETATM   15  C   UNK N   1      27.833  18.541   6.426  0.00  0.00     0.032 A 
HETATM   16  C   UNK N   1      27.134  17.683   5.568  0.00  0.00     0.046 A 
HETATM   17  C   UNK N   1      26.059  18.176   4.825  0.00  0.00     0.089 A 
HETATM   18  N   UNK N   1      25.689  19.482   4.935  0.00  0.00    -0.375 N 
HETATM   19  C   UNK N   1      26.344  20.335   5.765  0.00  0.00     0.089 A 
ATOM     20  HN  UNK N   1      24.903  19.826   4.384  1.00  0.00     0.164 HD
HETATM   21  C   UNK N   1      27.425  19.883   6.519  0.00  0.00     0.046 A 
ENDBRANCH  12  15
ENDBRANCH   7   9
BRANCH   1  22
HETATM   22  S   UNK N   1      33.571  13.587   5.203  0.00  0.00     0.243 S 
HETATM   23  O   UNK N   1      34.314  12.285   4.850  0.00  0.00    -0.206 OA
HETATM   24  O   UNK N   1      34.610  14.542   4.595  0.00  0.00    -0.206 OA
BRANCH  22  25
HETATM   25  C   UNK N   1      32.223  14.137   4.185  0.00  0.00     0.075 A 
HETATM   26  C   UNK N   1      31.060  13.374   4.114  0.00  0.00     0.037 A 
HETATM   27  C   UNK N   1      29.908  13.921   3.552  0.00  0.00    -0.024 A 
HETATM   28  C   UNK N   1      28.728  13.178   3.517  0.00  0.00     0.014 A 
HETATM   29  C   UNK N   1      29.919  15.252   3.072  0.00  0.00    -0.024 A 
HETATM   30  C   UNK N   1      27.555  13.758   3.028  0.00  0.00     0.024 A 
HETATM   31  C   UNK N   1      27.561  15.081   2.571  0.00  0.00     0.034 A 
HETATM   32 Cl   UNK N   1      26.077  15.816   2.012  0.00  0.00    -0.084 Cl
HETATM   33  C   UNK N   1      28.744  15.825   2.584  0.00  0.00     0.036 A 
HETATM   34  C   UNK N   1      31.096  16.001   3.119  0.00  0.00     0.014 A 
HETATM   35  C   UNK N   1      32.243  15.447   3.688  0.00  0.00     0.026 A 
ENDBRANCH  22  25
ENDBRANCH   1  22
TORSDOF 4
ENDMDL
MODEL 9
REMARK VINA RESULT:      -8.3      2.212      3.218
REMARK  4 active torsions:
REMARK  status: ('A' for Active; 'I' for Inactive)
REMARK    1  A    between atoms: C_7  and  S_12 
REMARK    2  A    between atoms: S_12  and  N_15 
REMARK       I    between atoms: N_18  and  C_21 
REMARK    3  A    between atoms: C_21  and  C_23 
REMARK    4  A    between atoms: N_26  and  C_29 
ROOT
HETATM    1  N   UNK N   1      37.078  12.353  12.748  0.00  0.00    -0.203 NA
HETATM    2  C   UNK N   1      36.719  11.011  12.237  0.00  0.00     0.127 C 
HETATM    3  C   UNK N   1      37.621  10.571  11.057  0.00  0.00     0.141 C 
HETATM    4  N   UNK N   1      37.576  11.647  10.109  0.00  0.00    -0.349 N 
HETATM    5  C   UNK N   1      38.076  12.920  10.564  0.00  0.00     0.141 C 
HETATM    6  C   UNK N   1      37.173  13.362  11.685  0.00  0.00     0.127 C 
HETATM    7  C   UNK N   1      36.802  11.575   8.989  0.00  0.00     0.224 C 
HETATM    8  O   UNK N   1      36.357  10.495   8.610  0.00  0.00    -0.273 OA
ENDROOT
BRANCH   7   9
HETATM    9  C   UNK N   1      36.266  12.852   8.422  0.00  0.00     0.081 C 
HETATM   10  C   UNK N   1      36.496  13.212   6.959  0.00  0.00     0.034 C 
HETATM   11  C   UNK N   1      35.909  14.624   6.727  0.00  0.00     0.123 C 
HETATM   12  N   UNK N   1      34.549  14.743   7.255  0.00  0.00    -0.381 N 
HETATM   13  C   UNK N   1      34.258  14.218   8.569  0.00  0.00     0.123 C 
HETATM   14  C   UNK N   1      34.765  12.810   8.669  0.00  0.00     0.034 C 
BRANCH  12  15
HETATM   15  C   UNK N   1      33.568  15.553   6.610  0.00  0.00     0.032 A 
HETATM   16  C   UNK N   1      33.943  16.584   5.739  0.00  0.00     0.046 A 
HETATM   17  C   UNK N   1      32.959  17.396   5.169  0.00  0.00     0.089 A 
HETATM   18  N   UNK N   1      31.645  17.187   5.455  0.00  0.00    -0.375 N 
HETATM   19  C   UNK N   1      31.252  16.191   6.291  0.00  0.00     0.089 A 
ATOM     20  HN  UNK N   1      30.940  17.792   5.032  1.00  0.00     0.164 HD
HETATM   21  C   UNK N   1      32.202  15.362   6.884  0.00  0.00     0.046 A 
ENDBRANCH  12  15
ENDBRANCH   7   9
BRANCH   1  22
HETATM   22  S   UNK N   1      35.807  12.952  13.844  0.00  0.00     0.243 S 
HETATM   23  O   UNK N   1      34.678  13.645  13.060  0.00  0.00    -0.206 OA
HETATM   24  O   UNK N   1      36.530  14.239  14.268  0.00  0.00    -0.206 OA
BRANCH  22  25
HETATM   25  C   UNK N   1      35.509  12.375  15.497  0.00  0.00     0.075 A 
HETATM   26  C   UNK N   1      36.017  11.140  15.895  0.00  0.00     0.037 A 
HETATM   27  C   UNK N   1      36.031  10.803  17.248  0.00  0.00    -0.024 A 
HETATM   28  C   UNK N   1      36.578   9.587  17.658  0.00  0.00     0.014 A 
HETATM   29  C   UNK N   1      35.546  11.720  18.210  0.00  0.00    -0.024 A 
HETATM   30  C   UNK N   1      36.665   9.288  19.020  0.00  0.00     0.024 A 
HETATM   31  C   UNK N   1      36.203  10.203  19.973  0.00  0.00     0.034 A 
HETATM   32 Cl   UNK N   1      36.366   9.843  21.676  0.00  0.00    -0.084 Cl
HETATM   33  C   UNK N   1      35.635  11.414  19.569  0.00  0.00     0.036 A 
HETATM   34  C   UNK N   1      35.010  12.943  17.802  0.00  0.00     0.014 A 
HETATM   35  C   UNK N   1      35.006  13.274  16.446  0.00  0.00     0.026 A 
ENDBRANCH  22  25
ENDBRANCH   1  22
TORSDOF 4
ENDMDL
