MODEL 1
REMARK VINA RESULT:      -7.9      0.000      0.000
REMARK  7 active torsions:
REMARK  status: ('A' for Active; 'I' for Inactive)
REMARK    1  A    between atoms: O_1  and  C_2 
REMARK    2  A    between atoms: C_2  and  C_4 
REMARK    3  A    between atoms: C_4  and  N_5 
REMARK       I    between atoms: N_5  and  C_6 
REMARK    4  A    between atoms: C_6  and  C_8 
REMARK    5  A    between atoms: C_14  and  C_15 
REMARK    6  A    between atoms: C_18  and  O_19 
REMARK    7  A    between atoms: O_19  and  C_20 
ROOT
HETATM    1  C   UNK N   1      22.146  19.565   3.067  0.00  0.00     0.110 C 
HETATM    2  C   UNK N   1      21.200  18.667   3.431  0.00  0.00     0.048 C 
ENDROOT
BRANCH   1   3
HETATM    3  C   UNK N   1      21.750  20.710   2.202  0.00  0.00     0.193 C 
HETATM    4  O   UNK N   1      21.401  20.532   1.048  0.00  0.00    -0.645 OA
BRANCH   3   5
HETATM    5  O   UNK N   1      21.832  21.969   2.676  0.00  0.00    -0.772 OA
HETATM    6  H   UNK N   1      21.739  22.147   3.591  0.00  0.00     0.167 HD
ENDBRANCH   3   5
ENDBRANCH   1   3
BRANCH   1   7
HETATM    7  N   UNK N   1      23.492  19.364   3.519  0.00  0.00    -0.317 N 
HETATM    8  C   UNK N   1      24.642  19.951   3.099  0.00  0.00     0.256 C 
HETATM    9  O   UNK N   1      24.638  20.759   2.181  0.00  0.00    -0.267 OA
HETATM   10  H   UNK N   1      23.598  18.705   4.243  0.00  0.00     0.169 HD
BRANCH   8  11
HETATM   11  C   UNK N   1      25.929  19.524   3.698  0.00  0.00     0.032 A 
HETATM   12  C   UNK N   1      26.752  20.462   4.345  0.00  0.00     0.017 A 
HETATM   13  C   UNK N   1      27.953  20.059   4.938  0.00  0.00     0.001 A 
HETATM   14  C   UNK N   1      28.342  18.719   4.887  0.00  0.00     0.000 A 
HETATM   15  C   UNK N   1      27.530  17.779   4.245  0.00  0.00     0.001 A 
HETATM   16  C   UNK N   1      26.326  18.180   3.654  0.00  0.00     0.017 A 
ENDBRANCH   8  11
ENDBRANCH   1   7
BRANCH   2  17
HETATM   17  C   UNK N   1      21.481  17.524   4.337  0.00  0.00    -0.034 A 
HETATM   18  C   UNK N   1      21.441  17.685   5.730  0.00  0.00     0.014 A 
HETATM   19  C   UNK N   1      21.559  16.562   6.569  0.00  0.00     0.038 A 
HETATM   20  C   UNK N   1      21.713  15.284   6.011  0.00  0.00     0.076 A 
HETATM   21  C   UNK N   1      21.837  15.153   4.623  0.00  0.00     0.038 A 
HETATM   22  C   UNK N   1      21.719  16.255   3.803  0.00  0.00     0.014 A 
BRANCH  20  23
HETATM   23  O   UNK N   1      21.718  14.177   6.796  0.00  0.00    -0.309 OA
BRANCH  23  24
HETATM   24  C   UNK N   1      22.754  13.894   7.634  0.00  0.00     0.093 A 
HETATM   25  C   UNK N   1      24.054  13.885   7.122  0.00  0.00     0.039 A 
HETATM   26  C   UNK N   1      25.134  13.537   7.939  0.00  0.00     0.003 A 
HETATM   27  C   UNK N   1      24.922  13.204   9.278  0.00  0.00     0.002 A 
HETATM   28  C   UNK N   1      23.634  13.237   9.811  0.00  0.00     0.022 A 
HETATM   29  C   UNK N   1      22.545  13.581   9.006  0.00  0.00     0.044 A 
HETATM   30 Br   UNK N   1      20.814  13.640   9.838  0.00  0.00    -0.048 Br
ENDBRANCH  23  24
ENDBRANCH  20  23
ENDBRANCH   2  17
TORSDOF 7
ENDMDL
MODEL 2
REMARK VINA RESULT:      -7.9      3.241      6.194
REMARK  7 active torsions:
REMARK  status: ('A' for Active; 'I' for Inactive)
REMARK    1  A    between atoms: O_1  and  C_2 
REMARK    2  A    between atoms: C_2  and  C_4 
REMARK    3  A    between atoms: C_4  and  N_5 
REMARK       I    between atoms: N_5  and  C_6 
REMARK    4  A    between atoms: C_6  and  C_8 
REMARK    5  A    between atoms: C_14  and  C_15 
REMARK    6  A    between atoms: C_18  and  O_19 
REMARK    7  A    between atoms: O_19  and  C_20 
ROOT
HETATM    1  C   UNK N   1      22.953  19.886   3.201  0.00  0.00     0.110 C 
HETATM    2  C   UNK N   1      24.208  20.388   3.106  0.00  0.00     0.048 C 
ENDROOT
BRANCH   1   3
HETATM    3  C   UNK N   1      21.866  20.521   2.406  0.00  0.00     0.193 C 
HETATM    4  O   UNK N   1      21.834  20.413   1.193  0.00  0.00    -0.645 OA
BRANCH   3   5
HETATM    5  O   UNK N   1      20.936  21.277   3.023  0.00  0.00    -0.772 OA
HETATM    6  H   UNK N   1      20.398  21.870   2.537  0.00  0.00     0.167 HD
ENDBRANCH   3   5
ENDBRANCH   1   3
BRANCH   1   7
HETATM    7  N   UNK N   1      22.725  18.771   4.075  0.00  0.00    -0.317 N 
HETATM    8  C   UNK N   1      21.798  18.617   5.055  0.00  0.00     0.256 C 
HETATM    9  O   UNK N   1      21.018  19.517   5.332  0.00  0.00    -0.267 OA
HETATM   10  H   UNK N   1      23.328  18.005   3.944  0.00  0.00     0.169 HD
BRANCH   8  11
HETATM   11  C   UNK N   1      21.806  17.375   5.864  0.00  0.00     0.032 A 
HETATM   12  C   UNK N   1      22.919  16.518   5.831  0.00  0.00     0.017 A 
HETATM   13  C   UNK N   1      22.945  15.359   6.614  0.00  0.00     0.001 A 
HETATM   14  C   UNK N   1      21.858  15.049   7.436  0.00  0.00     0.000 A 
HETATM   15  C   UNK N   1      20.747  15.896   7.475  0.00  0.00     0.001 A 
HETATM   16  C   UNK N   1      20.722  17.056   6.694  0.00  0.00     0.017 A 
ENDBRANCH   8  11
ENDBRANCH   1   7
BRANCH   2  17
HETATM   17  C   UNK N   1      25.369  19.791   3.813  0.00  0.00    -0.034 A 
HETATM   18  C   UNK N   1      25.736  18.455   3.589  0.00  0.00     0.014 A 
HETATM   19  C   UNK N   1      26.925  17.952   4.148  0.00  0.00     0.038 A 
HETATM   20  C   UNK N   1      27.742  18.788   4.924  0.00  0.00     0.076 A 
HETATM   21  C   UNK N   1      27.317  20.091   5.207  0.00  0.00     0.038 A 
HETATM   22  C   UNK N   1      26.152  20.582   4.657  0.00  0.00     0.014 A 
BRANCH  20  23
HETATM   23  O   UNK N   1      28.945  18.357   5.381  0.00  0.00    -0.309 OA
BRANCH  23  24
HETATM   24  C   UNK N   1      29.136  17.999   6.681  0.00  0.00     0.093 A 
HETATM   25  C   UNK N   1      28.143  18.301   7.617  0.00  0.00     0.039 A 
HETATM   26  C   UNK N   1      28.332  18.003   8.970  0.00  0.00     0.003 A 
HETATM   27  C   UNK N   1      29.513  17.394   9.396  0.00  0.00     0.002 A 
HETATM   28  C   UNK N   1      30.501  17.061   8.470  0.00  0.00     0.022 A 
HETATM   29  C   UNK N   1      30.327  17.354   7.115  0.00  0.00     0.044 A 
HETATM   30 Br   UNK N   1      31.723  16.819   5.908  0.00  0.00    -0.048 Br
ENDBRANCH  23  24
ENDBRANCH  20  23
ENDBRANCH   2  17
TORSDOF 7
ENDMDL
MODEL 3
REMARK VINA RESULT:      -7.8      4.602      7.522
REMARK  7 active torsions:
REMARK  status: ('A' for Active; 'I' for Inactive)
REMARK    1  A    between atoms: O_1  and  C_2 
REMARK    2  A    between atoms: C_2  and  C_4 
REMARK    3  A    between atoms: C_4  and  N_5 
REMARK       I    between atoms: N_5  and  C_6 
REMARK    4  A    between atoms: C_6  and  C_8 
REMARK    5  A    between atoms: C_14  and  C_15 
REMARK    6  A    between atoms: C_18  and  O_19 
REMARK    7  A    between atoms: O_19  and  C_20 
ROOT
HETATM    1  C   UNK N   1      20.335  16.887   8.217  0.00  0.00     0.110 C 
HETATM    2  C   UNK N   1      20.550  17.147   6.905  0.00  0.00     0.048 C 
ENDROOT
BRANCH   1   3
HETATM    3  C   UNK N   1      19.452  17.802   8.991  0.00  0.00     0.193 C 
HETATM    4  O   UNK N   1      19.866  18.872   9.402  0.00  0.00    -0.645 OA
BRANCH   3   5
HETATM    5  O   UNK N   1      18.195  17.424   9.298  0.00  0.00    -0.772 OA
HETATM    6  H   UNK N   1      17.504  17.494   8.669  0.00  0.00     0.167 HD
ENDBRANCH   3   5
ENDBRANCH   1   3
BRANCH   1   7
HETATM    7  N   UNK N   1      20.979  15.749   8.806  0.00  0.00    -0.317 N 
HETATM    8  C   UNK N   1      20.432  14.632   9.350  0.00  0.00     0.256 C 
HETATM    9  O   UNK N   1      19.219  14.497   9.426  0.00  0.00    -0.267 OA
HETATM   10  H   UNK N   1      21.963  15.781   8.815  0.00  0.00     0.169 HD
BRANCH   8  11
HETATM   11  C   UNK N   1      21.325  13.612   9.950  0.00  0.00     0.032 A 
HETATM   12  C   UNK N   1      22.676  13.544   9.568  0.00  0.00     0.017 A 
HETATM   13  C   UNK N   1      23.530  12.603  10.152  0.00  0.00     0.001 A 
HETATM   14  C   UNK N   1      23.041  11.723  11.121  0.00  0.00     0.000 A 
HETATM   15  C   UNK N   1      21.698  11.784  11.507  0.00  0.00     0.001 A 
HETATM   16  C   UNK N   1      20.844  12.727  10.925  0.00  0.00     0.017 A 
ENDBRANCH   8  11
ENDBRANCH   1   7
BRANCH   2  17
HETATM   17  C   UNK N   1      21.367  16.264   6.034  0.00  0.00    -0.034 A 
HETATM   18  C   UNK N   1      22.758  16.429   5.946  0.00  0.00     0.014 A 
HETATM   19  C   UNK N   1      23.531  15.491   5.239  0.00  0.00     0.038 A 
HETATM   20  C   UNK N   1      22.912  14.391   4.627  0.00  0.00     0.076 A 
HETATM   21  C   UNK N   1      21.516  14.289   4.653  0.00  0.00     0.038 A 
HETATM   22  C   UNK N   1      20.760  15.209   5.348  0.00  0.00     0.014 A 
BRANCH  20  23
HETATM   23  O   UNK N   1      23.648  13.417   4.035  0.00  0.00    -0.309 OA
BRANCH  23  24
HETATM   24  C   UNK N   1      23.561  13.160   2.700  0.00  0.00     0.093 A 
HETATM   25  C   UNK N   1      23.995  14.133   1.795  0.00  0.00     0.039 A 
HETATM   26  C   UNK N   1      23.862  13.927   0.418  0.00  0.00     0.003 A 
HETATM   27  C   UNK N   1      23.302  12.743  -0.064  0.00  0.00     0.002 A 
HETATM   28  C   UNK N   1      22.891  11.752   0.826  0.00  0.00     0.022 A 
HETATM   29  C   UNK N   1      23.015  11.943   2.204  0.00  0.00     0.044 A 
HETATM   30 Br   UNK N   1      22.462  10.505   3.351  0.00  0.00    -0.048 Br
ENDBRANCH  23  24
ENDBRANCH  20  23
ENDBRANCH   2  17
TORSDOF 7
ENDMDL
MODEL 4
REMARK VINA RESULT:      -7.7     11.730     14.642
REMARK  7 active torsions:
REMARK  status: ('A' for Active; 'I' for Inactive)
REMARK    1  A    between atoms: O_1  and  C_2 
REMARK    2  A    between atoms: C_2  and  C_4 
REMARK    3  A    between atoms: C_4  and  N_5 
REMARK       I    between atoms: N_5  and  C_6 
REMARK    4  A    between atoms: C_6  and  C_8 
REMARK    5  A    between atoms: C_14  and  C_15 
REMARK    6  A    between atoms: C_18  and  O_19 
REMARK    7  A    between atoms: O_19  and  C_20 
ROOT
HETATM    1  C   UNK N   1      32.166  21.272  -3.677  0.00  0.00     0.110 C 
HETATM    2  C   UNK N   1      31.915  22.286  -2.815  0.00  0.00     0.048 C 
ENDROOT
BRANCH   1   3
HETATM    3  C   UNK N   1      33.454  20.535  -3.558  0.00  0.00     0.193 C 
HETATM    4  O   UNK N   1      34.514  21.132  -3.495  0.00  0.00    -0.645 OA
BRANCH   3   5
HETATM    5  O   UNK N   1      33.461  19.187  -3.579  0.00  0.00    -0.772 OA
HETATM    6  H   UNK N   1      32.660  18.701  -3.600  0.00  0.00     0.167 HD
ENDBRANCH   3   5
ENDBRANCH   1   3
BRANCH   1   7
HETATM    7  N   UNK N   1      31.185  20.962  -4.676  0.00  0.00    -0.317 N 
HETATM    8  C   UNK N   1      31.080  21.411  -5.952  0.00  0.00     0.256 C 
HETATM    9  O   UNK N   1      31.872  22.227  -6.401  0.00  0.00    -0.267 OA
HETATM   10  H   UNK N   1      30.485  20.329  -4.395  0.00  0.00     0.169 HD
BRANCH   8  11
HETATM   11  C   UNK N   1      29.926  20.977  -6.775  0.00  0.00     0.032 A 
HETATM   12  C   UNK N   1      28.890  21.880  -7.071  0.00  0.00     0.017 A 
HETATM   13  C   UNK N   1      27.813  21.485  -7.871  0.00  0.00     0.001 A 
HETATM   14  C   UNK N   1      27.762  20.185  -8.381  0.00  0.00     0.000 A 
HETATM   15  C   UNK N   1      28.788  19.280  -8.092  0.00  0.00     0.001 A 
HETATM   16  C   UNK N   1      29.867  19.676  -7.294  0.00  0.00     0.017 A 
ENDBRANCH   8  11
ENDBRANCH   1   7
BRANCH   2  17
HETATM   17  C   UNK N   1      30.638  23.044  -2.814  0.00  0.00    -0.034 A 
HETATM   18  C   UNK N   1      30.481  24.187  -3.614  0.00  0.00     0.014 A 
HETATM   19  C   UNK N   1      29.220  24.801  -3.718  0.00  0.00     0.038 A 
HETATM   20  C   UNK N   1      28.122  24.268  -3.026  0.00  0.00     0.076 A 
HETATM   21  C   UNK N   1      28.316  23.180  -2.168  0.00  0.00     0.038 A 
HETATM   22  C   UNK N   1      29.553  22.579  -2.068  0.00  0.00     0.014 A 
BRANCH  20  23
HETATM   23  O   UNK N   1      26.876  24.778  -3.198  0.00  0.00    -0.309 OA
BRANCH  23  24
HETATM   24  C   UNK N   1      26.398  25.110  -4.429  0.00  0.00     0.093 A 
HETATM   25  C   UNK N   1      26.314  24.118  -5.411  0.00  0.00     0.039 A 
HETATM   26  C   UNK N   1      25.887  24.438  -6.704  0.00  0.00     0.003 A 
HETATM   27  C   UNK N   1      25.533  25.750  -7.022  0.00  0.00     0.002 A 
HETATM   28  C   UNK N   1      25.585  26.744  -6.046  0.00  0.00     0.022 A 
HETATM   29  C   UNK N   1      26.011  26.440  -4.750  0.00  0.00     0.044 A 
HETATM   30 Br   UNK N   1      26.008  27.866  -3.462  0.00  0.00    -0.048 Br
ENDBRANCH  23  24
ENDBRANCH  20  23
ENDBRANCH   2  17
TORSDOF 7
ENDMDL
MODEL 5
REMARK VINA RESULT:      -7.6      1.265      2.187
REMARK  7 active torsions:
REMARK  status: ('A' for Active; 'I' for Inactive)
REMARK    1  A    between atoms: O_1  and  C_2 
REMARK    2  A    between atoms: C_2  and  C_4 
REMARK    3  A    between atoms: C_4  and  N_5 
REMARK       I    between atoms: N_5  and  C_6 
REMARK    4  A    between atoms: C_6  and  C_8 
REMARK    5  A    between atoms: C_14  and  C_15 
REMARK    6  A    between atoms: C_18  and  O_19 
REMARK    7  A    between atoms: O_19  and  C_20 
ROOT
HETATM    1  C   UNK N   1      21.911  19.449   3.090  0.00  0.00     0.110 C 
HETATM    2  C   UNK N   1      21.051  18.467   3.455  0.00  0.00     0.048 C 
ENDROOT
BRANCH   1   3
HETATM    3  C   UNK N   1      21.453  20.474   2.113  0.00  0.00     0.193 C 
HETATM    4  O   UNK N   1      21.150  20.163   0.975  0.00  0.00    -0.645 OA
BRANCH   3   5
HETATM    5  O   UNK N   1      21.428  21.775   2.466  0.00  0.00    -0.772 OA
HETATM    6  H   UNK N   1      21.720  22.049   3.313  0.00  0.00     0.167 HD
ENDBRANCH   3   5
ENDBRANCH   1   3
BRANCH   1   7
HETATM    7  N   UNK N   1      23.231  19.448   3.653  0.00  0.00    -0.317 N 
HETATM    8  C   UNK N   1      24.344  20.110   3.246  0.00  0.00     0.256 C 
HETATM    9  O   UNK N   1      24.329  20.810   2.244  0.00  0.00    -0.267 OA
HETATM   10  H   UNK N   1      23.346  18.886   4.452  0.00  0.00     0.169 HD
BRANCH   8  11
HETATM   11  C   UNK N   1      25.616  19.894   3.975  0.00  0.00     0.032 A 
HETATM   12  C   UNK N   1      26.477  18.848   3.599  0.00  0.00     0.017 A 
HETATM   13  C   UNK N   1      27.692  18.658   4.265  0.00  0.00     0.001 A 
HETATM   14  C   UNK N   1      28.056  19.510   5.311  0.00  0.00     0.000 A 
HETATM   15  C   UNK N   1      27.206  20.553   5.691  0.00  0.00     0.001 A 
HETATM   16  C   UNK N   1      25.991  20.746   5.024  0.00  0.00     0.017 A 
ENDBRANCH   8  11
ENDBRANCH   1   7
BRANCH   2  17
HETATM   17  C   UNK N   1      21.392  17.433   4.464  0.00  0.00    -0.034 A 
HETATM   18  C   UNK N   1      21.755  16.136   4.069  0.00  0.00     0.014 A 
HETATM   19  C   UNK N   1      22.222  15.217   5.026  0.00  0.00     0.038 A 
HETATM   20  C   UNK N   1      22.326  15.599   6.371  0.00  0.00     0.076 A 
HETATM   21  C   UNK N   1      21.880  16.868   6.760  0.00  0.00     0.038 A 
HETATM   22  C   UNK N   1      21.425  17.767   5.820  0.00  0.00     0.014 A 
BRANCH  20  23
HETATM   23  O   UNK N   1      22.876  14.767   7.291  0.00  0.00    -0.309 OA
BRANCH  23  24
HETATM   24  C   UNK N   1      22.145  14.236   8.310  0.00  0.00     0.093 A 
HETATM   25  C   UNK N   1      20.817  14.644   8.472  0.00  0.00     0.039 A 
HETATM   26  C   UNK N   1      20.057  14.167   9.544  0.00  0.00     0.003 A 
HETATM   27  C   UNK N   1      20.616  13.272  10.459  0.00  0.00     0.002 A 
HETATM   28  C   UNK N   1      21.929  12.835  10.294  0.00  0.00     0.022 A 
HETATM   29  C   UNK N   1      22.702  13.304   9.228  0.00  0.00     0.044 A 
HETATM   30 Br   UNK N   1      24.487  12.613   9.059  0.00  0.00    -0.048 Br
ENDBRANCH  23  24
ENDBRANCH  20  23
ENDBRANCH   2  17
TORSDOF 7
ENDMDL
MODEL 6
REMARK VINA RESULT:      -7.6      6.628     10.169
REMARK  7 active torsions:
REMARK  status: ('A' for Active; 'I' for Inactive)
REMARK    1  A    between atoms: O_1  and  C_2 
REMARK    2  A    between atoms: C_2  and  C_4 
REMARK    3  A    between atoms: C_4  and  N_5 
REMARK       I    between atoms: N_5  and  C_6 
REMARK    4  A    between atoms: C_6  and  C_8 
REMARK    5  A    between atoms: C_14  and  C_15 
REMARK    6  A    between atoms: C_18  and  O_19 
REMARK    7  A    between atoms: O_19  and  C_20 
ROOT
HETATM    1  C   UNK N   1      34.000  17.699   7.709  0.00  0.00     0.110 C 
HETATM    2  C   UNK N   1      34.514  17.122   6.595  0.00  0.00     0.048 C 
ENDROOT
BRANCH   1   3
HETATM    3  C   UNK N   1      34.937  18.186   8.758  0.00  0.00     0.193 C 
HETATM    4  O   UNK N   1      35.221  17.489   9.716  0.00  0.00    -0.645 OA
BRANCH   3   5
HETATM    5  O   UNK N   1      35.433  19.438   8.687  0.00  0.00    -0.772 OA
HETATM    6  H   UNK N   1      36.253  19.653   9.086  0.00  0.00     0.167 HD
ENDBRANCH   3   5
ENDBRANCH   1   3
BRANCH   1   7
HETATM    7  N   UNK N   1      32.575  17.803   7.832  0.00  0.00    -0.317 N 
HETATM    8  C   UNK N   1      31.689  16.928   8.372  0.00  0.00     0.256 C 
HETATM    9  O   UNK N   1      32.058  15.850   8.816  0.00  0.00    -0.267 OA
HETATM   10  H   UNK N   1      32.182  18.631   7.473  0.00  0.00     0.169 HD
BRANCH   8  11
HETATM   11  C   UNK N   1      30.242  17.249   8.326  0.00  0.00     0.032 A 
HETATM   12  C   UNK N   1      29.526  17.111   7.124  0.00  0.00     0.017 A 
HETATM   13  C   UNK N   1      28.155  17.384   7.082  0.00  0.00     0.001 A 
HETATM   14  C   UNK N   1      27.489  17.797   8.238  0.00  0.00     0.000 A 
HETATM   15  C   UNK N   1      28.194  17.937   9.437  0.00  0.00     0.001 A 
HETATM   16  C   UNK N   1      29.565  17.662   9.482  0.00  0.00     0.017 A 
ENDBRANCH   8  11
ENDBRANCH   1   7
BRANCH   2  17
HETATM   17  C   UNK N   1      33.668  16.657   5.467  0.00  0.00    -0.034 A 
HETATM   18  C   UNK N   1      33.206  15.333   5.415  0.00  0.00     0.014 A 
HETATM   19  C   UNK N   1      32.283  14.951   4.424  0.00  0.00     0.038 A 
HETATM   20  C   UNK N   1      31.826  15.896   3.493  0.00  0.00     0.076 A 
HETATM   21  C   UNK N   1      32.362  17.189   3.508  0.00  0.00     0.038 A 
HETATM   22  C   UNK N   1      33.265  17.560   4.481  0.00  0.00     0.014 A 
BRANCH  20  23
HETATM   23  O   UNK N   1      30.855  15.579   2.599  0.00  0.00    -0.309 OA
BRANCH  23  24
HETATM   24  C   UNK N   1      29.540  15.533   2.950  0.00  0.00     0.093 A 
HETATM   25  C   UNK N   1      28.861  16.732   3.184  0.00  0.00     0.039 A 
HETATM   26  C   UNK N   1      27.528  16.720   3.606  0.00  0.00     0.003 A 
HETATM   27  C   UNK N   1      26.861  15.508   3.790  0.00  0.00     0.002 A 
HETATM   28  C   UNK N   1      27.517  14.304   3.534  0.00  0.00     0.022 A 
HETATM   29  C   UNK N   1      28.849  14.300   3.113  0.00  0.00     0.044 A 
HETATM   30 Br   UNK N   1      29.655  12.596   2.743  0.00  0.00    -0.048 Br
ENDBRANCH  23  24
ENDBRANCH  20  23
ENDBRANCH   2  17
TORSDOF 7
ENDMDL
MODEL 7
REMARK VINA RESULT:      -7.6      6.212      9.248
REMARK  7 active torsions:
REMARK  status: ('A' for Active; 'I' for Inactive)
REMARK    1  A    between atoms: O_1  and  C_2 
REMARK    2  A    between atoms: C_2  and  C_4 
REMARK    3  A    between atoms: C_4  and  N_5 
REMARK       I    between atoms: N_5  and  C_6 
REMARK    4  A    between atoms: C_6  and  C_8 
REMARK    5  A    between atoms: C_14  and  C_15 
REMARK    6  A    between atoms: C_18  and  O_19 
REMARK    7  A    between atoms: O_19  and  C_20 
ROOT
HETATM    1  C   UNK N   1      28.516  16.105   3.464  0.00  0.00     0.110 C 
HETATM    2  C   UNK N   1      29.620  15.874   2.714  0.00  0.00     0.048 C 
ENDROOT
BRANCH   1   3
HETATM    3  C   UNK N   1      27.179  16.010   2.816  0.00  0.00     0.193 C 
HETATM    4  O   UNK N   1      26.959  15.178   1.954  0.00  0.00    -0.645 OA
BRANCH   3   5
HETATM    5  O   UNK N   1      26.212  16.892   3.139  0.00  0.00    -0.772 OA
HETATM    6  H   UNK N   1      25.307  16.675   3.030  0.00  0.00     0.167 HD
ENDBRANCH   3   5
ENDBRANCH   1   3
BRANCH   1   7
HETATM    7  N   UNK N   1      28.685  16.444   4.847  0.00  0.00    -0.317 N 
HETATM    8  C   UNK N   1      28.845  17.661   5.425  0.00  0.00     0.256 C 
HETATM    9  O   UNK N   1      28.897  18.678   4.748  0.00  0.00    -0.267 OA
HETATM   10  H   UNK N   1      28.684  15.681   5.470  0.00  0.00     0.169 HD
BRANCH   8  11
HETATM   11  C   UNK N   1      29.059  17.740   6.890  0.00  0.00     0.032 A 
HETATM   12  C   UNK N   1      30.309  17.407   7.440  0.00  0.00     0.017 A 
HETATM   13  C   UNK N   1      30.526  17.507   8.818  0.00  0.00     0.001 A 
HETATM   14  C   UNK N   1      29.496  17.940   9.657  0.00  0.00     0.000 A 
HETATM   15  C   UNK N   1      28.250  18.274   9.118  0.00  0.00     0.001 A 
HETATM   16  C   UNK N   1      28.033  18.176   7.740  0.00  0.00     0.017 A 
ENDBRANCH   8  11
ENDBRANCH   1   7
BRANCH   2  17
HETATM   17  C   UNK N   1      30.993  15.888   3.278  0.00  0.00    -0.034 A 
HETATM   18  C   UNK N   1      31.820  17.013   3.130  0.00  0.00     0.014 A 
HETATM   19  C   UNK N   1      33.055  17.068   3.800  0.00  0.00     0.038 A 
HETATM   20  C   UNK N   1      33.457  16.001   4.617  0.00  0.00     0.076 A 
HETATM   21  C   UNK N   1      32.659  14.852   4.686  0.00  0.00     0.038 A 
HETATM   22  C   UNK N   1      31.448  14.801   4.029  0.00  0.00     0.014 A 
BRANCH  20  23
HETATM   23  O   UNK N   1      34.591  16.079   5.358  0.00  0.00    -0.309 OA
BRANCH  23  24
HETATM   24  C   UNK N   1      34.560  16.324   6.698  0.00  0.00     0.093 A 
HETATM   25  C   UNK N   1      34.177  17.593   7.143  0.00  0.00     0.039 A 
HETATM   26  C   UNK N   1      34.194  17.898   8.507  0.00  0.00     0.003 A 
HETATM   27  C   UNK N   1      34.588  16.935   9.438  0.00  0.00     0.002 A 
HETATM   28  C   UNK N   1      34.945  15.657   9.011  0.00  0.00     0.022 A 
HETATM   29  C   UNK N   1      34.934  15.337   7.650  0.00  0.00     0.044 A 
HETATM   30 Br   UNK N   1      35.401  13.539   7.161  0.00  0.00    -0.048 Br
ENDBRANCH  23  24
ENDBRANCH  20  23
ENDBRANCH   2  17
TORSDOF 7
ENDMDL
MODEL 8
REMARK VINA RESULT:      -7.5     16.243     17.917
REMARK  7 active torsions:
REMARK  status: ('A' for Active; 'I' for Inactive)
REMARK    1  A    between atoms: O_1  and  C_2 
REMARK    2  A    between atoms: C_2  and  C_4 
REMARK    3  A    between atoms: C_4  and  N_5 
REMARK       I    between atoms: N_5  and  C_6 
REMARK    4  A    between atoms: C_6  and  C_8 
REMARK    5  A    between atoms: C_14  and  C_15 
REMARK    6  A    between atoms: C_18  and  O_19 
REMARK    7  A    between atoms: O_19  and  C_20 
ROOT
HETATM    1  C   UNK N   1      37.321  12.083  12.536  0.00  0.00     0.110 C 
HETATM    2  C   UNK N   1      37.260  10.729  12.554  0.00  0.00     0.048 C 
ENDROOT
BRANCH   1   3
HETATM    3  C   UNK N   1      37.561  12.770  11.237  0.00  0.00     0.193 C 
HETATM    4  O   UNK N   1      36.673  12.870  10.409  0.00  0.00    -0.645 OA
BRANCH   3   5
HETATM    5  O   UNK N   1      38.790  13.238  10.942  0.00  0.00    -0.772 OA
HETATM    6  H   UNK N   1      39.203  13.883  11.482  0.00  0.00     0.167 HD
ENDBRANCH   3   5
ENDBRANCH   1   3
BRANCH   1   7
HETATM    7  N   UNK N   1      37.165  12.793  13.772  0.00  0.00    -0.317 N 
HETATM    8  C   UNK N   1      36.042  13.300  14.342  0.00  0.00     0.256 C 
HETATM    9  O   UNK N   1      34.958  13.218  13.780  0.00  0.00    -0.267 OA
HETATM   10  H   UNK N   1      37.994  12.933  14.284  0.00  0.00     0.169 HD
BRANCH   8  11
HETATM   11  C   UNK N   1      36.156  14.051  15.615  0.00  0.00     0.032 A 
HETATM   12  C   UNK N   1      35.353  13.701  16.715  0.00  0.00     0.017 A 
HETATM   13  C   UNK N   1      35.477  14.387  17.927  0.00  0.00     0.001 A 
HETATM   14  C   UNK N   1      36.402  15.427  18.050  0.00  0.00     0.000 A 
HETATM   15  C   UNK N   1      37.204  15.781  16.961  0.00  0.00     0.001 A 
HETATM   16  C   UNK N   1      37.083  15.093  15.749  0.00  0.00     0.017 A 
ENDBRANCH   8  11
ENDBRANCH   1   7
BRANCH   2  17
HETATM   17  C   UNK N   1      36.969   9.954  13.786  0.00  0.00    -0.034 A 
HETATM   18  C   UNK N   1      38.007   9.521  14.625  0.00  0.00     0.014 A 
HETATM   19  C   UNK N   1      37.706   8.923  15.862  0.00  0.00     0.038 A 
HETATM   20  C   UNK N   1      36.369   8.765  16.256  0.00  0.00     0.076 A 
HETATM   21  C   UNK N   1      35.347   9.126  15.371  0.00  0.00     0.038 A 
HETATM   22  C   UNK N   1      35.645   9.712  14.160  0.00  0.00     0.014 A 
BRANCH  20  23
HETATM   23  O   UNK N   1      36.058   8.293  17.490  0.00  0.00    -0.309 OA
BRANCH  23  24
HETATM   24  C   UNK N   1      35.534   9.096  18.457  0.00  0.00     0.093 A 
HETATM   25  C   UNK N   1      36.026  10.398  18.594  0.00  0.00     0.039 A 
HETATM   26  C   UNK N   1      35.555  11.228  19.615  0.00  0.00     0.003 A 
HETATM   27  C   UNK N   1      34.582  10.766  20.503  0.00  0.00     0.002 A 
HETATM   28  C   UNK N   1      34.061   9.481  20.362  0.00  0.00     0.022 A 
HETATM   29  C   UNK N   1      34.523   8.638  19.347  0.00  0.00     0.044 A 
HETATM   30 Br   UNK N   1      33.716   6.901  19.204  0.00  0.00    -0.048 Br
ENDBRANCH  23  24
ENDBRANCH  20  23
ENDBRANCH   2  17
TORSDOF 7
ENDMDL
MODEL 9
REMARK VINA RESULT:      -7.3     12.652     15.716
REMARK  7 active torsions:
REMARK  status: ('A' for Active; 'I' for Inactive)
REMARK    1  A    between atoms: O_1  and  C_2 
REMARK    2  A    between atoms: C_2  and  C_4 
REMARK    3  A    between atoms: C_4  and  N_5 
REMARK       I    between atoms: N_5  and  C_6 
REMARK    4  A    between atoms: C_6  and  C_8 
REMARK    5  A    between atoms: C_14  and  C_15 
REMARK    6  A    between atoms: C_18  and  O_19 
REMARK    7  A    between atoms: O_19  and  C_20 
ROOT
HETATM    1  C   UNK N   1      25.959  24.810  -7.691  0.00  0.00     0.110 C 
HETATM    2  C   UNK N   1      25.632  26.125  -7.688  0.00  0.00     0.048 C 
ENDROOT
BRANCH   1   3
HETATM    3  C   UNK N   1      25.269  23.903  -8.650  0.00  0.00     0.193 C 
HETATM    4  O   UNK N   1      25.276  24.135  -9.845  0.00  0.00    -0.645 OA
BRANCH   3   5
HETATM    5  O   UNK N   1      24.574  22.843  -8.190  0.00  0.00    -0.772 OA
HETATM    6  H   UNK N   1      23.850  22.497  -8.673  0.00  0.00     0.167 HD
ENDBRANCH   3   5
ENDBRANCH   1   3
BRANCH   1   7
HETATM    7  N   UNK N   1      26.947  24.347  -6.760  0.00  0.00    -0.317 N 
HETATM    8  C   UNK N   1      26.811  24.004  -5.454  0.00  0.00     0.256 C 
HETATM    9  O   UNK N   1      25.731  24.100  -4.887  0.00  0.00    -0.267 OA
HETATM   10  H   UNK N   1      27.859  24.265  -7.122  0.00  0.00     0.169 HD
BRANCH   8  11
HETATM   11  C   UNK N   1      28.013  23.605  -4.685  0.00  0.00     0.032 A 
HETATM   12  C   UNK N   1      28.058  23.799  -3.293  0.00  0.00     0.017 A 
HETATM   13  C   UNK N   1      29.178  23.398  -2.558  0.00  0.00     0.001 A 
HETATM   14  C   UNK N   1      30.262  22.801  -3.207  0.00  0.00     0.000 A 
HETATM   15  C   UNK N   1      30.226  22.605  -4.591  0.00  0.00     0.001 A 
HETATM   16  C   UNK N   1      29.105  23.003  -5.327  0.00  0.00     0.017 A 
ENDBRANCH   8  11
ENDBRANCH   1   7
BRANCH   2  17
HETATM   17  C   UNK N   1      26.302  27.118  -6.812  0.00  0.00    -0.034 A 
HETATM   18  C   UNK N   1      27.491  27.746  -7.217  0.00  0.00     0.014 A 
HETATM   19  C   UNK N   1      28.028  28.793  -6.446  0.00  0.00     0.038 A 
HETATM   20  C   UNK N   1      27.373  29.209  -5.277  0.00  0.00     0.076 A 
HETATM   21  C   UNK N   1      26.237  28.516  -4.845  0.00  0.00     0.038 A 
HETATM   22  C   UNK N   1      25.712  27.491  -5.603  0.00  0.00     0.014 A 
BRANCH  20  23
HETATM   23  O   UNK N   1      27.812  30.287  -4.579  0.00  0.00    -0.309 OA
BRANCH  23  24
HETATM   24  C   UNK N   1      28.481  30.156  -3.399  0.00  0.00     0.093 A 
HETATM   25  C   UNK N   1      27.746  29.996  -2.220  0.00  0.00     0.039 A 
HETATM   26  C   UNK N   1      28.398  29.922  -0.986  0.00  0.00     0.003 A 
HETATM   27  C   UNK N   1      29.791  30.000  -0.921  0.00  0.00     0.002 A 
HETATM   28  C   UNK N   1      30.538  30.131  -2.091  0.00  0.00     0.022 A 
HETATM   29  C   UNK N   1      29.900  30.208  -3.332  0.00  0.00     0.044 A 
HETATM   30 Br   UNK N   1      31.014  30.345  -4.891  0.00  0.00    -0.048 Br
ENDBRANCH  23  24
ENDBRANCH  20  23
ENDBRANCH   2  17
TORSDOF 7
ENDMDL
