MODEL 1
REMARK VINA RESULT:      -5.3      0.000      0.000
REMARK  13 active torsions:
REMARK  status: ('A' for Active; 'I' for Inactive)
REMARK    1  A    between atoms: C_2  and  N_1 
REMARK    2  A    between atoms: C_2  and  C_3 
REMARK    3  A    between atoms: C_2  and  C_15 
REMARK    4  A    between atoms: C_3  and  C_4 
REMARK    5  A    between atoms: C_4  and  C_5 
REMARK    6  A    between atoms: C_5  and  C_6 
REMARK    7  A    between atoms: C_6  and  N_7 
REMARK    8  A    between atoms: N_7  and  C_8 
REMARK    9  A    between atoms: C_8  and  C_9 
REMARK   10  A    between atoms: C_8  and  C_12 
REMARK   11  A    between atoms: C_9  and  O_10 
REMARK   12  A    between atoms: C_12  and  O_13 
REMARK   13  A    between atoms: C_15  and  O_16 
ROOT
HETATM    1  C   UNK N   1      34.498  14.037   9.944  0.00  0.00     0.115 C 
ENDROOT
BRANCH   1   2
HETATM    2  C   UNK N   1      33.730  14.083   8.633  0.00  0.00     0.019 C 
BRANCH   2   3
HETATM    3  C   UNK N   1      32.559  15.052   8.704  0.00  0.00     0.004 C 
BRANCH   3   4
HETATM    4  C   UNK N   1      32.392  15.802   7.391  0.00  0.00     0.035 C 
BRANCH   4   5
HETATM    5  C   UNK N   1      32.614  17.298   7.592  0.00  0.00     0.173 C 
BRANCH   5   6
HETATM    6  N   UNK N   1      32.607  17.594   9.014  0.00  0.00    -0.418 N 
HETATM    7  H   UNK N   1      31.875  17.391   9.695  0.00  0.00     0.150 HD
HETATM    8  H   UNK N   1      33.436  18.063   9.376  0.00  0.00     0.150 HD
ENDBRANCH   5   6
BRANCH   5   9
HETATM    9  C   UNK N   1      33.900  17.799   6.985  0.00  0.00     0.163 C 
HETATM   10  O   UNK N   1      34.166  17.591   5.811  0.00  0.00    -0.648 OA
BRANCH   9  11
HETATM   11  O   UNK N   1      34.770  18.485   7.749  0.00  0.00    -0.775 OA
HETATM   12  H   UNK N   1      35.629  18.160   7.933  0.00  0.00     0.167 HD
ENDBRANCH   9  11
ENDBRANCH   5   9
ENDBRANCH   4   5
ENDBRANCH   3   4
ENDBRANCH   2   3
ENDBRANCH   1   2
BRANCH   1  13
HETATM   13  N   UNK N   1      33.867  14.901  10.932  0.00  0.00    -0.400 N 
HETATM   14  H   UNK N   1      32.870  15.088  11.032  0.00  0.00     0.154 HD
BRANCH  13  15
HETATM   15  C   UNK N   1      34.943  15.445  11.748  0.00  0.00     0.274 C 
BRANCH  15  16
HETATM   16  C   UNK N   1      35.866  16.277  10.884  0.00  0.00     0.174 C 
HETATM   17  O   UNK N   1      35.410  17.234  10.278  0.00  0.00    -0.648 OA
BRANCH  16  18
HETATM   18  O   UNK N   1      37.177  15.994  10.771  0.00  0.00    -0.774 OA
HETATM   19  H   UNK N   1      37.788  16.493  10.263  0.00  0.00     0.167 HD
ENDBRANCH  16  18
ENDBRANCH  15  16
BRANCH  15  20
HETATM   20  C   UNK N   1      35.588  14.336  12.555  0.00  0.00     0.174 C 
HETATM   21  O   UNK N   1      34.889  13.635  13.270  0.00  0.00    -0.648 OA
BRANCH  20  22
HETATM   22  O   UNK N   1      36.915  14.115  12.517  0.00  0.00    -0.774 OA
HETATM   23  H   UNK N   1      37.341  13.444  13.015  0.00  0.00     0.167 HD
ENDBRANCH  20  22
ENDBRANCH  15  20
ENDBRANCH  13  15
ENDBRANCH   1  13
TORSDOF 13
ENDMDL
MODEL 2
REMARK VINA RESULT:      -5.2      3.207      4.064
REMARK  13 active torsions:
REMARK  status: ('A' for Active; 'I' for Inactive)
REMARK    1  A    between atoms: C_2  and  N_1 
REMARK    2  A    between atoms: C_2  and  C_3 
REMARK    3  A    between atoms: C_2  and  C_15 
REMARK    4  A    between atoms: C_3  and  C_4 
REMARK    5  A    between atoms: C_4  and  C_5 
REMARK    6  A    between atoms: C_5  and  C_6 
REMARK    7  A    between atoms: C_6  and  N_7 
REMARK    8  A    between atoms: N_7  and  C_8 
REMARK    9  A    between atoms: C_8  and  C_9 
REMARK   10  A    between atoms: C_8  and  C_12 
REMARK   11  A    between atoms: C_9  and  O_10 
REMARK   12  A    between atoms: C_12  and  O_13 
REMARK   13  A    between atoms: C_15  and  O_16 
ROOT
HETATM    1  C   UNK N   1      34.344  17.473   8.547  0.00  0.00     0.115 C 
ENDROOT
BRANCH   1   2
HETATM    2  C   UNK N   1      32.961  18.087   8.408  0.00  0.00     0.019 C 
BRANCH   2   3
HETATM    3  C   UNK N   1      32.010  17.160   7.663  0.00  0.00     0.004 C 
BRANCH   3   4
HETATM    4  C   UNK N   1      30.782  16.848   8.505  0.00  0.00     0.035 C 
BRANCH   4   5
HETATM    5  C   UNK N   1      29.620  17.759   8.122  0.00  0.00     0.173 C 
BRANCH   5   6
HETATM    6  N   UNK N   1      28.673  17.011   7.314  0.00  0.00    -0.418 N 
HETATM    7  H   UNK N   1      28.870  16.374   6.542  0.00  0.00     0.150 HD
HETATM    8  H   UNK N   1      27.689  17.137   7.549  0.00  0.00     0.150 HD
ENDBRANCH   5   6
BRANCH   5   9
HETATM    9  C   UNK N   1      28.905  18.348   9.311  0.00  0.00     0.163 C 
HETATM   10  O   UNK N   1      29.527  18.810  10.255  0.00  0.00    -0.648 OA
BRANCH   9  11
HETATM   11  O   UNK N   1      27.559  18.364   9.334  0.00  0.00    -0.775 OA
HETATM   12  H   UNK N   1      27.078  19.111   9.630  0.00  0.00     0.167 HD
ENDBRANCH   9  11
ENDBRANCH   5   9
ENDBRANCH   4   5
ENDBRANCH   3   4
ENDBRANCH   2   3
ENDBRANCH   1   2
BRANCH   1  13
HETATM   13  N   UNK N   1      34.590  17.083   9.928  0.00  0.00    -0.400 N 
HETATM   14  H   UNK N   1      34.609  17.697  10.742  0.00  0.00     0.154 HD
BRANCH  13  15
HETATM   15  C   UNK N   1      34.805  15.643   9.915  0.00  0.00     0.274 C 
BRANCH  15  16
HETATM   16  C   UNK N   1      33.927  14.989  10.958  0.00  0.00     0.174 C 
HETATM   17  O   UNK N   1      34.449  14.394  11.888  0.00  0.00    -0.648 OA
BRANCH  16  18
HETATM   18  O   UNK N   1      32.583  15.050  10.893  0.00  0.00    -0.774 OA
HETATM   19  H   UNK N   1      32.102  15.692  10.408  0.00  0.00     0.167 HD
ENDBRANCH  16  18
ENDBRANCH  15  16
BRANCH  15  20
HETATM   20  C   UNK N   1      36.289  15.343   9.993  0.00  0.00     0.174 C 
HETATM   21  O   UNK N   1      36.770  14.513   9.238  0.00  0.00    -0.648 OA
BRANCH  20  22
HETATM   22  O   UNK N   1      37.087  15.958  10.886  0.00  0.00    -0.774 OA
HETATM   23  H   UNK N   1      36.846  16.743  11.339  0.00  0.00     0.167 HD
ENDBRANCH  20  22
ENDBRANCH  15  20
ENDBRANCH  13  15
ENDBRANCH   1  13
TORSDOF 13
ENDMDL
MODEL 3
REMARK VINA RESULT:      -5.0      3.126      4.174
REMARK  13 active torsions:
REMARK  status: ('A' for Active; 'I' for Inactive)
REMARK    1  A    between atoms: C_2  and  N_1 
REMARK    2  A    between atoms: C_2  and  C_3 
REMARK    3  A    between atoms: C_2  and  C_15 
REMARK    4  A    between atoms: C_3  and  C_4 
REMARK    5  A    between atoms: C_4  and  C_5 
REMARK    6  A    between atoms: C_5  and  C_6 
REMARK    7  A    between atoms: C_6  and  N_7 
REMARK    8  A    between atoms: N_7  and  C_8 
REMARK    9  A    between atoms: C_8  and  C_9 
REMARK   10  A    between atoms: C_8  and  C_12 
REMARK   11  A    between atoms: C_9  and  O_10 
REMARK   12  A    between atoms: C_12  and  O_13 
REMARK   13  A    between atoms: C_15  and  O_16 
ROOT
HETATM    1  C   UNK N   1      32.343  15.769   8.441  0.00  0.00     0.115 C 
ENDROOT
BRANCH   1   2
HETATM    2  C   UNK N   1      31.662  15.447   7.121  0.00  0.00     0.019 C 
BRANCH   2   3
HETATM    3  C   UNK N   1      30.667  16.529   6.727  0.00  0.00     0.004 C 
BRANCH   3   4
HETATM    4  C   UNK N   1      30.696  17.683   7.718  0.00  0.00     0.035 C 
BRANCH   4   5
HETATM    5  C   UNK N   1      29.285  18.193   7.994  0.00  0.00     0.173 C 
BRANCH   5   6
HETATM    6  N   UNK N   1      28.348  17.491   7.134  0.00  0.00    -0.418 N 
HETATM    7  H   UNK N   1      28.456  17.251   6.148  0.00  0.00     0.150 HD
HETATM    8  H   UNK N   1      27.473  17.200   7.570  0.00  0.00     0.150 HD
ENDBRANCH   5   6
BRANCH   5   9
HETATM    9  C   UNK N   1      28.860  18.030   9.431  0.00  0.00     0.163 C 
HETATM   10  O   UNK N   1      27.832  17.439   9.721  0.00  0.00    -0.648 OA
BRANCH   9  11
HETATM   11  O   UNK N   1      29.626  18.547  10.410  0.00  0.00    -0.775 OA
HETATM   12  H   UNK N   1      30.138  18.003  10.975  0.00  0.00     0.167 HD
ENDBRANCH   9  11
ENDBRANCH   5   9
ENDBRANCH   4   5
ENDBRANCH   3   4
ENDBRANCH   2   3
ENDBRANCH   1   2
BRANCH   1  13
HETATM   13  N   UNK N   1      33.779  15.917   8.249  0.00  0.00    -0.400 N 
HETATM   14  H   UNK N   1      34.383  15.324   7.681  0.00  0.00     0.154 HD
BRANCH  13  15
HETATM   15  C   UNK N   1      34.180  17.078   9.030  0.00  0.00     0.274 C 
BRANCH  15  16
HETATM   16  C   UNK N   1      34.640  18.181   8.102  0.00  0.00     0.174 C 
HETATM   17  O   UNK N   1      34.412  18.086   6.907  0.00  0.00    -0.648 OA
BRANCH  16  18
HETATM   18  O   UNK N   1      35.288  19.269   8.561  0.00  0.00    -0.774 OA
HETATM   19  H   UNK N   1      36.213  19.318   8.700  0.00  0.00     0.167 HD
ENDBRANCH  16  18
ENDBRANCH  15  16
BRANCH  15  20
HETATM   20  C   UNK N   1      35.151  16.657  10.116  0.00  0.00     0.174 C 
HETATM   21  O   UNK N   1      36.070  15.905   9.835  0.00  0.00    -0.648 OA
BRANCH  20  22
HETATM   22  O   UNK N   1      35.014  17.079  11.387  0.00  0.00    -0.774 OA
HETATM   23  H   UNK N   1      35.611  17.674  11.800  0.00  0.00     0.167 HD
ENDBRANCH  20  22
ENDBRANCH  15  20
ENDBRANCH  13  15
ENDBRANCH   1  13
TORSDOF 13
ENDMDL
MODEL 4
REMARK VINA RESULT:      -4.9      2.388      4.346
REMARK  13 active torsions:
REMARK  status: ('A' for Active; 'I' for Inactive)
REMARK    1  A    between atoms: C_2  and  N_1 
REMARK    2  A    between atoms: C_2  and  C_3 
REMARK    3  A    between atoms: C_2  and  C_15 
REMARK    4  A    between atoms: C_3  and  C_4 
REMARK    5  A    between atoms: C_4  and  C_5 
REMARK    6  A    between atoms: C_5  and  C_6 
REMARK    7  A    between atoms: C_6  and  N_7 
REMARK    8  A    between atoms: N_7  and  C_8 
REMARK    9  A    between atoms: C_8  and  C_9 
REMARK   10  A    between atoms: C_8  and  C_12 
REMARK   11  A    between atoms: C_9  and  O_10 
REMARK   12  A    between atoms: C_12  and  O_13 
REMARK   13  A    between atoms: C_15  and  O_16 
ROOT
HETATM    1  C   UNK N   1      31.679  16.637   8.236  0.00  0.00     0.115 C 
ENDROOT
BRANCH   1   2
HETATM    2  C   UNK N   1      30.459  17.448   7.833  0.00  0.00     0.019 C 
BRANCH   2   3
HETATM    3  C   UNK N   1      29.979  17.080   6.437  0.00  0.00     0.004 C 
BRANCH   3   4
HETATM    4  C   UNK N   1      30.792  15.927   5.867  0.00  0.00     0.035 C 
BRANCH   4   5
HETATM    5  C   UNK N   1      31.151  16.189   4.408  0.00  0.00     0.173 C 
BRANCH   5   6
HETATM    6  N   UNK N   1      30.391  17.330   3.928  0.00  0.00    -0.418 N 
HETATM    7  H   UNK N   1      29.775  17.380   3.116  0.00  0.00     0.150 HD
HETATM    8  H   UNK N   1      30.484  18.189   4.470  0.00  0.00     0.150 HD
ENDBRANCH   5   6
BRANCH   5   9
HETATM    9  C   UNK N   1      32.621  16.442   4.189  0.00  0.00     0.163 C 
HETATM   10  O   UNK N   1      33.011  17.118   3.250  0.00  0.00    -0.648 OA
BRANCH   9  11
HETATM   11  O   UNK N   1      33.518  15.913   5.042  0.00  0.00    -0.775 OA
HETATM   12  H   UNK N   1      34.423  15.826   4.816  0.00  0.00     0.167 HD
ENDBRANCH   9  11
ENDBRANCH   5   9
ENDBRANCH   4   5
ENDBRANCH   3   4
ENDBRANCH   2   3
ENDBRANCH   1   2
BRANCH   1  13
HETATM   13  N   UNK N   1      32.531  17.411   9.128  0.00  0.00    -0.400 N 
HETATM   14  H   UNK N   1      32.227  18.065   9.849  0.00  0.00     0.154 HD
BRANCH  13  15
HETATM   15  C   UNK N   1      33.904  17.065   8.788  0.00  0.00     0.274 C 
BRANCH  15  16
HETATM   16  C   UNK N   1      34.664  16.705  10.045  0.00  0.00     0.174 C 
HETATM   17  O   UNK N   1      35.673  17.331  10.330  0.00  0.00    -0.648 OA
BRANCH  16  18
HETATM   18  O   UNK N   1      34.255  15.716  10.862  0.00  0.00    -0.774 OA
HETATM   19  H   UNK N   1      34.682  15.473  11.660  0.00  0.00     0.167 HD
ENDBRANCH  16  18
ENDBRANCH  15  16
BRANCH  15  20
HETATM   20  C   UNK N   1      34.507  18.150   7.918  0.00  0.00     0.174 C 
HETATM   21  O   UNK N   1      34.467  18.031   6.703  0.00  0.00    -0.648 OA
BRANCH  20  22
HETATM   22  O   UNK N   1      35.101  19.234   8.451  0.00  0.00    -0.774 OA
HETATM   23  H   UNK N   1      35.872  19.628   8.092  0.00  0.00     0.167 HD
ENDBRANCH  20  22
ENDBRANCH  15  20
ENDBRANCH  13  15
ENDBRANCH   1  13
TORSDOF 13
ENDMDL
MODEL 5
REMARK VINA RESULT:      -4.9      2.390      6.503
REMARK  13 active torsions:
REMARK  status: ('A' for Active; 'I' for Inactive)
REMARK    1  A    between atoms: C_2  and  N_1 
REMARK    2  A    between atoms: C_2  and  C_3 
REMARK    3  A    between atoms: C_2  and  C_15 
REMARK    4  A    between atoms: C_3  and  C_4 
REMARK    5  A    between atoms: C_4  and  C_5 
REMARK    6  A    between atoms: C_5  and  C_6 
REMARK    7  A    between atoms: C_6  and  N_7 
REMARK    8  A    between atoms: N_7  and  C_8 
REMARK    9  A    between atoms: C_8  and  C_9 
REMARK   10  A    between atoms: C_8  and  C_12 
REMARK   11  A    between atoms: C_9  and  O_10 
REMARK   12  A    between atoms: C_12  and  O_13 
REMARK   13  A    between atoms: C_15  and  O_16 
ROOT
HETATM    1  C   UNK N   1      35.596  16.231  10.642  0.00  0.00     0.115 C 
ENDROOT
BRANCH   1   2
HETATM    2  C   UNK N   1      35.010  15.328  11.714  0.00  0.00     0.019 C 
BRANCH   2   3
HETATM    3  C   UNK N   1      36.053  14.367  12.267  0.00  0.00     0.004 C 
BRANCH   3   4
HETATM    4  C   UNK N   1      35.399  13.264  13.084  0.00  0.00     0.035 C 
BRANCH   4   5
HETATM    5  C   UNK N   1      36.387  12.678  14.089  0.00  0.00     0.173 C 
BRANCH   5   6
HETATM    6  N   UNK N   1      37.675  12.500  13.442  0.00  0.00    -0.418 N 
HETATM    7  H   UNK N   1      38.561  12.950  13.670  0.00  0.00     0.150 HD
HETATM    8  H   UNK N   1      37.696  11.842  12.664  0.00  0.00     0.150 HD
ENDBRANCH   5   6
BRANCH   5   9
HETATM    9  C   UNK N   1      36.562  13.530  15.321  0.00  0.00     0.163 C 
HETATM   10  O   UNK N   1      35.751  13.492  16.233  0.00  0.00    -0.648 OA
BRANCH   9  11
HETATM   11  O   UNK N   1      37.629  14.346  15.416  0.00  0.00    -0.775 OA
HETATM   12  H   UNK N   1      37.862  14.762  16.223  0.00  0.00     0.167 HD
ENDBRANCH   9  11
ENDBRANCH   5   9
ENDBRANCH   4   5
ENDBRANCH   3   4
ENDBRANCH   2   3
ENDBRANCH   1   2
BRANCH   1  13
HETATM   13  N   UNK N   1      34.606  17.201  10.197  0.00  0.00    -0.400 N 
HETATM   14  H   UNK N   1      34.190  17.948  10.753  0.00  0.00     0.154 HD
BRANCH  13  15
HETATM   15  C   UNK N   1      34.326  16.892   8.802  0.00  0.00     0.274 C 
BRANCH  15  16
HETATM   16  C   UNK N   1      34.605  18.108   7.947  0.00  0.00     0.174 C 
HETATM   17  O   UNK N   1      35.063  19.112   8.470  0.00  0.00    -0.648 OA
BRANCH  16  18
HETATM   18  O   UNK N   1      34.368  18.111   6.621  0.00  0.00    -0.774 OA
HETATM   19  H   UNK N   1      33.919  18.794   6.162  0.00  0.00     0.167 HD
ENDBRANCH  16  18
ENDBRANCH  15  16
BRANCH  15  20
HETATM   20  C   UNK N   1      32.946  16.278   8.678  0.00  0.00     0.174 C 
HETATM   21  O   UNK N   1      32.411  16.230   7.581  0.00  0.00    -0.648 OA
BRANCH  20  22
HETATM   22  O   UNK N   1      32.286  15.800   9.750  0.00  0.00    -0.774 OA
HETATM   23  H   UNK N   1      32.445  14.952  10.117  0.00  0.00     0.167 HD
ENDBRANCH  20  22
ENDBRANCH  15  20
ENDBRANCH  13  15
ENDBRANCH   1  13
TORSDOF 13
ENDMDL
MODEL 6
REMARK VINA RESULT:      -4.9      1.885      5.010
REMARK  13 active torsions:
REMARK  status: ('A' for Active; 'I' for Inactive)
REMARK    1  A    between atoms: C_2  and  N_1 
REMARK    2  A    between atoms: C_2  and  C_3 
REMARK    3  A    between atoms: C_2  and  C_15 
REMARK    4  A    between atoms: C_3  and  C_4 
REMARK    5  A    between atoms: C_4  and  C_5 
REMARK    6  A    between atoms: C_5  and  C_6 
REMARK    7  A    between atoms: C_6  and  N_7 
REMARK    8  A    between atoms: N_7  and  C_8 
REMARK    9  A    between atoms: C_8  and  C_9 
REMARK   10  A    between atoms: C_8  and  C_12 
REMARK   11  A    between atoms: C_9  and  O_10 
REMARK   12  A    between atoms: C_12  and  O_13 
REMARK   13  A    between atoms: C_15  and  O_16 
ROOT
HETATM    1  C   UNK N   1      34.744  14.364   8.109  0.00  0.00     0.115 C 
ENDROOT
BRANCH   1   2
HETATM    2  C   UNK N   1      35.713  13.271   7.688  0.00  0.00     0.019 C 
BRANCH   2   3
HETATM    3  C   UNK N   1      36.461  12.697   8.882  0.00  0.00     0.004 C 
BRANCH   3   4
HETATM    4  C   UNK N   1      35.746  13.028  10.184  0.00  0.00     0.035 C 
BRANCH   4   5
HETATM    5  C   UNK N   1      36.737  13.525  11.232  0.00  0.00     0.173 C 
BRANCH   5   6
HETATM    6  N   UNK N   1      37.494  14.637  10.683  0.00  0.00    -0.418 N 
HETATM    7  H   UNK N   1      37.239  15.624  10.668  0.00  0.00     0.150 HD
HETATM    8  H   UNK N   1      38.391  14.401  10.261  0.00  0.00     0.150 HD
ENDBRANCH   5   6
BRANCH   5   9
HETATM    9  C   UNK N   1      36.081  13.955  12.519  0.00  0.00     0.163 C 
HETATM   10  O   UNK N   1      34.873  13.865  12.672  0.00  0.00    -0.648 OA
BRANCH   9  11
HETATM   11  O   UNK N   1      36.839  14.448  13.517  0.00  0.00    -0.775 OA
HETATM   12  H   UNK N   1      36.672  15.289  13.895  0.00  0.00     0.167 HD
ENDBRANCH   9  11
ENDBRANCH   5   9
ENDBRANCH   4   5
ENDBRANCH   3   4
ENDBRANCH   2   3
ENDBRANCH   1   2
BRANCH   1  13
HETATM   13  N   UNK N   1      35.285  15.676   7.782  0.00  0.00    -0.400 N 
HETATM   14  H   UNK N   1      36.090  15.874   7.188  0.00  0.00     0.154 HD
BRANCH  13  15
HETATM   15  C   UNK N   1      34.449  16.648   8.471  0.00  0.00     0.274 C 
BRANCH  15  16
HETATM   16  C   UNK N   1      34.538  17.985   7.769  0.00  0.00     0.174 C 
HETATM   17  O   UNK N   1      34.189  18.068   6.601  0.00  0.00    -0.648 OA
BRANCH  16  18
HETATM   18  O   UNK N   1      34.986  19.088   8.398  0.00  0.00    -0.774 OA
HETATM   19  H   UNK N   1      35.705  19.613   8.105  0.00  0.00     0.167 HD
ENDBRANCH  16  18
ENDBRANCH  15  16
BRANCH  15  20
HETATM   20  C   UNK N   1      34.764  16.639   9.954  0.00  0.00     0.174 C 
HETATM   21  O   UNK N   1      35.740  17.251  10.359  0.00  0.00    -0.648 OA
BRANCH  20  22
HETATM   22  O   UNK N   1      34.005  15.959  10.834  0.00  0.00    -0.774 OA
HETATM   23  H   UNK N   1      33.893  16.220  11.727  0.00  0.00     0.167 HD
ENDBRANCH  20  22
ENDBRANCH  15  20
ENDBRANCH  13  15
ENDBRANCH   1  13
TORSDOF 13
ENDMDL
MODEL 7
REMARK VINA RESULT:      -4.9     11.396     13.879
REMARK  13 active torsions:
REMARK  status: ('A' for Active; 'I' for Inactive)
REMARK    1  A    between atoms: C_2  and  N_1 
REMARK    2  A    between atoms: C_2  and  C_3 
REMARK    3  A    between atoms: C_2  and  C_15 
REMARK    4  A    between atoms: C_3  and  C_4 
REMARK    5  A    between atoms: C_4  and  C_5 
REMARK    6  A    between atoms: C_5  and  C_6 
REMARK    7  A    between atoms: C_6  and  N_7 
REMARK    8  A    between atoms: N_7  and  C_8 
REMARK    9  A    between atoms: C_8  and  C_9 
REMARK   10  A    between atoms: C_8  and  C_12 
REMARK   11  A    between atoms: C_9  and  O_10 
REMARK   12  A    between atoms: C_12  and  O_13 
REMARK   13  A    between atoms: C_15  and  O_16 
ROOT
HETATM    1  C   UNK N   1      23.596  18.265   4.724  0.00  0.00     0.115 C 
ENDROOT
BRANCH   1   2
HETATM    2  C   UNK N   1      22.495  17.520   3.986  0.00  0.00     0.019 C 
BRANCH   2   3
HETATM    3  C   UNK N   1      21.122  18.092   4.307  0.00  0.00     0.004 C 
BRANCH   3   4
HETATM    4  C   UNK N   1      20.926  19.446   3.642  0.00  0.00     0.035 C 
BRANCH   4   5
HETATM    5  C   UNK N   1      20.449  19.277   2.203  0.00  0.00     0.173 C 
BRANCH   5   6
HETATM    6  N   UNK N   1      19.018  19.024   2.202  0.00  0.00    -0.418 N 
HETATM    7  H   UNK N   1      18.453  18.603   2.940  0.00  0.00     0.150 HD
HETATM    8  H   UNK N   1      18.517  19.302   1.359  0.00  0.00     0.150 HD
ENDBRANCH   5   6
BRANCH   5   9
HETATM    9  C   UNK N   1      20.744  20.470   1.330  0.00  0.00     0.163 C 
HETATM   10  O   UNK N   1      20.922  20.343   0.128  0.00  0.00    -0.648 OA
BRANCH   9  11
HETATM   11  O   UNK N   1      20.815  21.695   1.884  0.00  0.00    -0.775 OA
HETATM   12  H   UNK N   1      20.442  22.447   1.469  0.00  0.00     0.167 HD
ENDBRANCH   9  11
ENDBRANCH   5   9
ENDBRANCH   4   5
ENDBRANCH   3   4
ENDBRANCH   2   3
ENDBRANCH   1   2
BRANCH   1  13
HETATM   13  N   UNK N   1      24.717  18.528   3.834  0.00  0.00    -0.400 N 
HETATM   14  H   UNK N   1      25.155  17.867   3.192  0.00  0.00     0.154 HD
BRANCH  13  15
HETATM   15  C   UNK N   1      25.088  19.920   4.041  0.00  0.00     0.274 C 
BRANCH  15  16
HETATM   16  C   UNK N   1      24.612  20.753   2.871  0.00  0.00     0.174 C 
HETATM   17  O   UNK N   1      25.301  20.815   1.865  0.00  0.00    -0.648 OA
BRANCH  16  18
HETATM   18  O   UNK N   1      23.445  21.424   2.908  0.00  0.00    -0.774 OA
HETATM   19  H   UNK N   1      23.344  22.301   3.222  0.00  0.00     0.167 HD
ENDBRANCH  16  18
ENDBRANCH  15  16
BRANCH  15  20
HETATM   20  C   UNK N   1      26.561  20.014   4.385  0.00  0.00     0.174 C 
HETATM   21  O   UNK N   1      26.890  20.380   5.503  0.00  0.00    -0.648 OA
BRANCH  20  22
HETATM   22  O   UNK N   1      27.517  19.721   3.484  0.00  0.00    -0.774 OA
HETATM   23  H   UNK N   1      28.433  19.714   3.687  0.00  0.00     0.167 HD
ENDBRANCH  20  22
ENDBRANCH  15  20
ENDBRANCH  13  15
ENDBRANCH   1  13
TORSDOF 13
ENDMDL
MODEL 8
REMARK VINA RESULT:      -4.8      0.744      2.303
REMARK  13 active torsions:
REMARK  status: ('A' for Active; 'I' for Inactive)
REMARK    1  A    between atoms: C_2  and  N_1 
REMARK    2  A    between atoms: C_2  and  C_3 
REMARK    3  A    between atoms: C_2  and  C_15 
REMARK    4  A    between atoms: C_3  and  C_4 
REMARK    5  A    between atoms: C_4  and  C_5 
REMARK    6  A    between atoms: C_5  and  C_6 
REMARK    7  A    between atoms: C_6  and  N_7 
REMARK    8  A    between atoms: N_7  and  C_8 
REMARK    9  A    between atoms: C_8  and  C_9 
REMARK   10  A    between atoms: C_8  and  C_12 
REMARK   11  A    between atoms: C_9  and  O_10 
REMARK   12  A    between atoms: C_12  and  O_13 
REMARK   13  A    between atoms: C_15  and  O_16 
ROOT
HETATM    1  C   UNK N   1      34.127  14.267   9.205  0.00  0.00     0.115 C 
ENDROOT
BRANCH   1   2
HETATM    2  C   UNK N   1      32.803  13.963   8.525  0.00  0.00     0.019 C 
BRANCH   2   3
HETATM    3  C   UNK N   1      31.915  15.197   8.454  0.00  0.00     0.004 C 
BRANCH   3   4
HETATM    4  C   UNK N   1      32.249  16.040   7.233  0.00  0.00     0.035 C 
BRANCH   4   5
HETATM    5  C   UNK N   1      32.488  17.494   7.629  0.00  0.00     0.173 C 
BRANCH   5   6
HETATM    6  N   UNK N   1      32.029  17.698   8.992  0.00  0.00    -0.418 N 
HETATM    7  H   UNK N   1      31.856  18.581   9.472  0.00  0.00     0.150 HD
HETATM    8  H   UNK N   1      31.859  16.853   9.537  0.00  0.00     0.150 HD
ENDBRANCH   5   6
BRANCH   5   9
HETATM    9  C   UNK N   1      33.931  17.914   7.520  0.00  0.00     0.163 C 
HETATM   10  O   UNK N   1      34.539  17.813   6.467  0.00  0.00    -0.648 OA
BRANCH   9  11
HETATM   11  O   UNK N   1      34.561  18.407   8.603  0.00  0.00    -0.775 OA
HETATM   12  H   UNK N   1      35.478  18.277   8.744  0.00  0.00     0.167 HD
ENDBRANCH   9  11
ENDBRANCH   5   9
ENDBRANCH   4   5
ENDBRANCH   3   4
ENDBRANCH   2   3
ENDBRANCH   1   2
BRANCH   1  13
HETATM   13  N   UNK N   1      33.952  14.341  10.648  0.00  0.00    -0.400 N 
HETATM   14  H   UNK N   1      33.077  14.250  11.163  0.00  0.00     0.154 HD
BRANCH  13  15
HETATM   15  C   UNK N   1      35.276  14.570  11.211  0.00  0.00     0.274 C 
BRANCH  15  16
HETATM   16  C   UNK N   1      35.315  14.067  12.638  0.00  0.00     0.174 C 
HETATM   17  O   UNK N   1      36.129  14.543  13.414  0.00  0.00    -0.648 OA
BRANCH  16  18
HETATM   18  O   UNK N   1      34.472  13.113  13.077  0.00  0.00    -0.774 OA
HETATM   19  H   UNK N   1      33.537  13.181  13.062  0.00  0.00     0.167 HD
ENDBRANCH  16  18
ENDBRANCH  15  16
BRANCH  15  20
HETATM   20  C   UNK N   1      35.687  16.011  10.988  0.00  0.00     0.174 C 
HETATM   21  O   UNK N   1      36.834  16.258  10.648  0.00  0.00    -0.648 OA
BRANCH  20  22
HETATM   22  O   UNK N   1      34.824  17.028  11.172  0.00  0.00    -0.774 OA
HETATM   23  H   UNK N   1      33.893  16.921  11.168  0.00  0.00     0.167 HD
ENDBRANCH  20  22
ENDBRANCH  15  20
ENDBRANCH  13  15
ENDBRANCH   1  13
TORSDOF 13
ENDMDL
MODEL 9
REMARK VINA RESULT:      -4.7      3.792      5.250
REMARK  13 active torsions:
REMARK  status: ('A' for Active; 'I' for Inactive)
REMARK    1  A    between atoms: C_2  and  N_1 
REMARK    2  A    between atoms: C_2  and  C_3 
REMARK    3  A    between atoms: C_2  and  C_15 
REMARK    4  A    between atoms: C_3  and  C_4 
REMARK    5  A    between atoms: C_4  and  C_5 
REMARK    6  A    between atoms: C_5  and  C_6 
REMARK    7  A    between atoms: C_6  and  N_7 
REMARK    8  A    between atoms: N_7  and  C_8 
REMARK    9  A    between atoms: C_8  and  C_9 
REMARK   10  A    between atoms: C_8  and  C_12 
REMARK   11  A    between atoms: C_9  and  O_10 
REMARK   12  A    between atoms: C_12  and  O_13 
REMARK   13  A    between atoms: C_15  and  O_16 
ROOT
HETATM    1  C   UNK N   1      31.834  17.718   7.991  0.00  0.00     0.115 C 
ENDROOT
BRANCH   1   2
HETATM    2  C   UNK N   1      30.893  16.593   7.596  0.00  0.00     0.019 C 
BRANCH   2   3
HETATM    3  C   UNK N   1      29.456  17.080   7.480  0.00  0.00     0.004 C 
BRANCH   3   4
HETATM    4  C   UNK N   1      29.234  17.815   6.166  0.00  0.00     0.035 C 
BRANCH   4   5
HETATM    5  C   UNK N   1      27.813  18.364   6.089  0.00  0.00     0.173 C 
BRANCH   5   6
HETATM    6  N   UNK N   1      26.887  17.361   6.585  0.00  0.00    -0.418 N 
HETATM    7  H   UNK N   1      26.762  16.403   6.257  0.00  0.00     0.150 HD
HETATM    8  H   UNK N   1      26.287  17.650   7.357  0.00  0.00     0.150 HD
ENDBRANCH   5   6
BRANCH   5   9
HETATM    9  C   UNK N   1      27.623  19.644   6.863  0.00  0.00     0.163 C 
HETATM   10  O   UNK N   1      27.844  20.729   6.350  0.00  0.00    -0.648 OA
BRANCH   9  11
HETATM   11  O   UNK N   1      27.204  19.588   8.142  0.00  0.00    -0.775 OA
HETATM   12  H   UNK N   1      27.165  20.353   8.682  0.00  0.00     0.167 HD
ENDBRANCH   9  11
ENDBRANCH   5   9
ENDBRANCH   4   5
ENDBRANCH   3   4
ENDBRANCH   2   3
ENDBRANCH   1   2
BRANCH   1  13
HETATM   13  N   UNK N   1      32.603  17.347   9.171  0.00  0.00    -0.400 N 
HETATM   14  H   UNK N   1      32.275  17.340  10.136  0.00  0.00     0.154 HD
BRANCH  13  15
HETATM   15  C   UNK N   1      33.933  16.988   8.698  0.00  0.00     0.274 C 
BRANCH  15  16
HETATM   16  C   UNK N   1      34.779  16.526   9.863  0.00  0.00     0.174 C 
HETATM   17  O   UNK N   1      34.656  15.382  10.271  0.00  0.00    -0.648 OA
BRANCH  16  18
HETATM   18  O   UNK N   1      35.670  17.341  10.459  0.00  0.00    -0.774 OA
HETATM   19  H   UNK N   1      35.446  18.097  10.965  0.00  0.00     0.167 HD
ENDBRANCH  16  18
ENDBRANCH  15  16
BRANCH  15  20
HETATM   20  C   UNK N   1      34.498  18.112   7.852  0.00  0.00     0.174 C 
HETATM   21  O   UNK N   1      34.509  17.996   6.637  0.00  0.00    -0.648 OA
BRANCH  20  22
HETATM   22  O   UNK N   1      35.005  19.228   8.409  0.00  0.00    -0.774 OA
HETATM   23  H   UNK N   1      34.628  19.648   9.157  0.00  0.00     0.167 HD
ENDBRANCH  20  22
ENDBRANCH  15  20
ENDBRANCH  13  15
ENDBRANCH   1  13
TORSDOF 13
ENDMDL
