MODEL 1
REMARK VINA RESULT:      -5.4      0.000      0.000
REMARK  4 active torsions:
REMARK  status: ('A' for Active; 'I' for Inactive)
REMARK    1  A    between atoms: C_4  and  O_10 
REMARK    2  A    between atoms: C_5  and  O_11 
REMARK    3  A    between atoms: C_7  and  O_12 
REMARK    4  A    between atoms: C_8  and  O_13 
ROOT
HETATM    1  C   UNK N   1      21.282  16.299   3.210  0.00  0.00     0.064 C 
HETATM    2  C   UNK N   1      21.130  17.353   4.292  0.00  0.00     0.276 C 
HETATM    3  C   UNK N   1      21.395  19.589   3.683  0.00  0.00     0.307 C 
HETATM    4  C   UNK N   1      20.034  16.519   2.417  0.00  0.00     0.155 C 
HETATM    5  C   UNK N   1      20.973  20.731   2.763  0.00  0.00     0.177 C 
HETATM    6  C   UNK N   1      19.940  18.044   2.371  0.00  0.00     0.282 C 
HETATM    7  C   UNK N   1      20.631  20.229   1.336  0.00  0.00     0.179 C 
HETATM    8  C   UNK N   1      20.753  18.699   1.219  0.00  0.00     0.185 C 
HETATM    9  N   UNK N   1      20.412  18.493   3.710  0.00  0.00     0.101 N 
ENDROOT
BRANCH   4  10
HETATM   10  O   UNK N   1      20.087  15.908   1.162  0.00  0.00    -0.393 OA
HETATM   11  H   UNK N   1      19.784  14.996   1.035  0.00  0.00     0.210 HD
ENDBRANCH   4  10
BRANCH   8  12
HETATM   12  O   UNK N   1      20.267  18.294  -0.028  0.00  0.00    -0.391 OA
HETATM   13  H   UNK N   1      19.318  18.303  -0.231  0.00  0.00     0.210 HD
ENDBRANCH   8  12
BRANCH   7  14
HETATM   14  O   UNK N   1      21.440  20.836   0.371  0.00  0.00    -0.390 OA
HETATM   15  H   UNK N   1      22.383  21.059   0.411  0.00  0.00     0.210 HD
ENDBRANCH   7  14
BRANCH   5  16
HETATM   16  O   UNK N   1      21.993  21.685   2.733  0.00  0.00    -0.391 OA
HETATM   17  H   UNK N   1      22.830  21.743   3.220  0.00  0.00     0.210 HD
ENDBRANCH   5  16
TORSDOF 4
ENDMDL
MODEL 2
REMARK VINA RESULT:      -5.3     22.157     23.186
REMARK  4 active torsions:
REMARK  status: ('A' for Active; 'I' for Inactive)
REMARK    1  A    between atoms: C_4  and  O_10 
REMARK    2  A    between atoms: C_5  and  O_11 
REMARK    3  A    between atoms: C_7  and  O_12 
REMARK    4  A    between atoms: C_8  and  O_13 
ROOT
HETATM    1  C   UNK N   1      41.938  22.261   0.605  0.00  0.00     0.064 C 
HETATM    2  C   UNK N   1      42.271  20.792   0.800  0.00  0.00     0.276 C 
HETATM    3  C   UNK N   1      44.127  20.258   2.106  0.00  0.00     0.307 C 
HETATM    4  C   UNK N   1      41.433  22.624   1.964  0.00  0.00     0.155 C 
HETATM    5  C   UNK N   1      44.850  20.413   3.442  0.00  0.00     0.177 C 
HETATM    6  C   UNK N   1      42.416  21.898   2.883  0.00  0.00     0.282 C 
HETATM    7  C   UNK N   1      44.640  21.823   4.052  0.00  0.00     0.179 C 
HETATM    8  C   UNK N   1      43.716  22.696   3.184  0.00  0.00     0.185 C 
HETATM    9  N   UNK N   1      42.701  20.611   2.191  0.00  0.00     0.101 N 
ENDROOT
BRANCH   4  10
HETATM   10  O   UNK N   1      41.378  24.006   2.159  0.00  0.00    -0.393 OA
HETATM   11  H   UNK N   1      40.821  24.394   2.852  0.00  0.00     0.210 HD
ENDBRANCH   4  10
BRANCH   8  12
HETATM   12  O   UNK N   1      43.428  23.881   3.869  0.00  0.00    -0.391 OA
HETATM   13  H   UNK N   1      43.457  24.743   3.426  0.00  0.00     0.210 HD
ENDBRANCH   8  12
BRANCH   7  14
HETATM   14  O   UNK N   1      45.858  22.484   4.246  0.00  0.00    -0.390 OA
HETATM   15  H   UNK N   1      46.559  22.680   3.606  0.00  0.00     0.210 HD
ENDBRANCH   7  14
BRANCH   5  16
HETATM   16  O   UNK N   1      46.207  20.138   3.254  0.00  0.00    -0.391 OA
HETATM   17  H   UNK N   1      47.001  20.634   3.506  0.00  0.00     0.210 HD
ENDBRANCH   5  16
TORSDOF 4
ENDMDL
MODEL 3
REMARK VINA RESULT:      -5.0     13.761     14.721
REMARK  4 active torsions:
REMARK  status: ('A' for Active; 'I' for Inactive)
REMARK    1  A    between atoms: C_4  and  O_10 
REMARK    2  A    between atoms: C_5  and  O_11 
REMARK    3  A    between atoms: C_7  and  O_12 
REMARK    4  A    between atoms: C_8  and  O_13 
ROOT
HETATM    1  C   UNK N   1      32.082  16.526   6.346  0.00  0.00     0.064 C 
HETATM    2  C   UNK N   1      33.411  17.236   6.535  0.00  0.00     0.276 C 
HETATM    3  C   UNK N   1      34.406  17.148   8.642  0.00  0.00     0.307 C 
HETATM    4  C   UNK N   1      32.512  15.095   6.389  0.00  0.00     0.155 C 
HETATM    5  C   UNK N   1      34.912  16.280   9.792  0.00  0.00     0.177 C 
HETATM    6  C   UNK N   1      33.535  15.094   7.525  0.00  0.00     0.282 C 
HETATM    7  C   UNK N   1      34.040  15.012   9.986  0.00  0.00     0.179 C 
HETATM    8  C   UNK N   1      32.915  14.920   8.940  0.00  0.00     0.185 C 
HETATM    9  N   UNK N   1      34.253  16.391   7.388  0.00  0.00     0.101 N 
ENDROOT
BRANCH   4  10
HETATM   10  O   UNK N   1      31.438  14.223   6.580  0.00  0.00    -0.393 OA
HETATM   11  H   UNK N   1      31.193  13.572   5.904  0.00  0.00     0.210 HD
ENDBRANCH   4  10
BRANCH   8  12
HETATM   12  O   UNK N   1      32.280  13.679   9.058  0.00  0.00    -0.391 OA
HETATM   13  H   UNK N   1      31.858  13.250   8.297  0.00  0.00     0.210 HD
ENDBRANCH   8  12
BRANCH   7  14
HETATM   14  O   UNK N   1      33.488  14.961  11.271  0.00  0.00    -0.390 OA
HETATM   15  H   UNK N   1      33.047  14.225  11.721  0.00  0.00     0.210 HD
ENDBRANCH   7  14
BRANCH   5  16
HETATM   16  O   UNK N   1      34.950  17.053  10.956  0.00  0.00    -0.391 OA
HETATM   17  H   UNK N   1      34.390  17.784  11.257  0.00  0.00     0.210 HD
ENDBRANCH   5  16
TORSDOF 4
ENDMDL
MODEL 4
REMARK VINA RESULT:      -4.9     14.095     15.019
REMARK  4 active torsions:
REMARK  status: ('A' for Active; 'I' for Inactive)
REMARK    1  A    between atoms: C_4  and  O_10 
REMARK    2  A    between atoms: C_5  and  O_11 
REMARK    3  A    between atoms: C_7  and  O_12 
REMARK    4  A    between atoms: C_8  and  O_13 
ROOT
HETATM    1  C   UNK N   1      34.855  14.128   6.180  0.00  0.00     0.064 C 
HETATM    2  C   UNK N   1      34.676  13.813   7.655  0.00  0.00     0.276 C 
HETATM    3  C   UNK N   1      35.004  15.539   9.187  0.00  0.00     0.307 C 
HETATM    4  C   UNK N   1      33.646  14.965   5.916  0.00  0.00     0.155 C 
HETATM    5  C   UNK N   1      34.641  16.954   9.630  0.00  0.00     0.177 C 
HETATM    6  C   UNK N   1      33.579  15.848   7.162  0.00  0.00     0.282 C 
HETATM    7  C   UNK N   1      34.350  17.882   8.422  0.00  0.00     0.179 C 
HETATM    8  C   UNK N   1      34.451  17.132   7.082  0.00  0.00     0.185 C 
HETATM    9  N   UNK N   1      34.003  14.957   8.278  0.00  0.00     0.101 N 
ENDROOT
BRANCH   4  10
HETATM   10  O   UNK N   1      33.740  15.672   4.715  0.00  0.00    -0.393 OA
HETATM   11  H   UNK N   1      34.535  15.619   4.162  0.00  0.00     0.210 HD
ENDBRANCH   4  10
BRANCH   8  12
HETATM   12  O   UNK N   1      34.011  17.971   6.053  0.00  0.00    -0.391 OA
HETATM   13  H   UNK N   1      33.612  17.615   5.243  0.00  0.00     0.210 HD
ENDBRANCH   8  12
BRANCH   7  14
HETATM   14  O   UNK N   1      35.210  18.986   8.404  0.00  0.00    -0.390 OA
HETATM   15  H   UNK N   1      36.072  19.100   8.832  0.00  0.00     0.210 HD
ENDBRANCH   7  14
BRANCH   5  16
HETATM   16  O   UNK N   1      35.678  17.459  10.419  0.00  0.00    -0.391 OA
HETATM   17  H   UNK N   1      36.533  17.849  10.180  0.00  0.00     0.210 HD
ENDBRANCH   5  16
TORSDOF 4
ENDMDL
MODEL 5
REMARK VINA RESULT:      -4.8     10.445     11.613
REMARK  4 active torsions:
REMARK  status: ('A' for Active; 'I' for Inactive)
REMARK    1  A    between atoms: C_4  and  O_10 
REMARK    2  A    between atoms: C_5  and  O_11 
REMARK    3  A    between atoms: C_7  and  O_12 
REMARK    4  A    between atoms: C_8  and  O_13 
ROOT
HETATM    1  C   UNK N   1      31.609  15.183   7.657  0.00  0.00     0.064 C 
HETATM    2  C   UNK N   1      31.411  16.199   6.546  0.00  0.00     0.276 C 
HETATM    3  C   UNK N   1      29.523  17.564   6.639  0.00  0.00     0.307 C 
HETATM    4  C   UNK N   1      31.970  16.076   8.801  0.00  0.00     0.155 C 
HETATM    5  C   UNK N   1      28.689  18.555   7.447  0.00  0.00     0.177 C 
HETATM    6  C   UNK N   1      30.997  17.243   8.626  0.00  0.00     0.282 C 
HETATM    7  C   UNK N   1      28.709  18.227   8.962  0.00  0.00     0.179 C 
HETATM    8  C   UNK N   1      29.605  17.016   9.278  0.00  0.00     0.185 C 
HETATM    9  N   UNK N   1      30.897  17.432   7.152  0.00  0.00     0.101 N 
ENDROOT
BRANCH   4  10
HETATM   10  O   UNK N   1      31.872  15.426  10.034  0.00  0.00    -0.393 OA
HETATM   11  H   UNK N   1      32.555  15.534  10.714  0.00  0.00     0.210 HD
ENDBRANCH   4  10
BRANCH   8  12
HETATM   12  O   UNK N   1      29.720  16.880  10.666  0.00  0.00    -0.391 OA
HETATM   13  H   UNK N   1      28.942  16.746  11.228  0.00  0.00     0.210 HD
ENDBRANCH   8  12
BRANCH   7  14
HETATM   14  O   UNK N   1      27.420  17.994   9.454  0.00  0.00    -0.390 OA
HETATM   15  H   UNK N   1      26.808  18.607   9.889  0.00  0.00     0.210 HD
ENDBRANCH   7  14
BRANCH   5  16
HETATM   16  O   UNK N   1      27.384  18.558   6.946  0.00  0.00    -0.391 OA
HETATM   17  H   UNK N   1      26.552  18.237   7.325  0.00  0.00     0.210 HD
ENDBRANCH   5  16
TORSDOF 4
ENDMDL
MODEL 6
REMARK VINA RESULT:      -4.8     10.231     11.413
REMARK  4 active torsions:
REMARK  status: ('A' for Active; 'I' for Inactive)
REMARK    1  A    between atoms: C_4  and  O_10 
REMARK    2  A    between atoms: C_5  and  O_11 
REMARK    3  A    between atoms: C_7  and  O_12 
REMARK    4  A    between atoms: C_8  and  O_13 
ROOT
HETATM    1  C   UNK N   1      30.722  15.332   6.168  0.00  0.00     0.064 C 
HETATM    2  C   UNK N   1      29.436  16.034   5.769  0.00  0.00     0.276 C 
HETATM    3  C   UNK N   1      28.350  17.323   7.380  0.00  0.00     0.307 C 
HETATM    4  C   UNK N   1      31.660  16.491   6.274  0.00  0.00     0.155 C 
HETATM    5  C   UNK N   1      28.440  18.457   8.397  0.00  0.00     0.177 C 
HETATM    6  C   UNK N   1      30.799  17.548   6.965  0.00  0.00     0.282 C 
HETATM    7  C   UNK N   1      29.834  18.517   9.075  0.00  0.00     0.179 C 
HETATM    8  C   UNK N   1      30.792  17.450   8.516  0.00  0.00     0.185 C 
HETATM    9  N   UNK N   1      29.439  17.363   6.390  0.00  0.00     0.101 N 
ENDROOT
BRANCH   4  10
HETATM   10  O   UNK N   1      32.833  16.166   6.960  0.00  0.00    -0.393 OA
HETATM   11  H   UNK N   1      33.682  16.093   6.497  0.00  0.00     0.210 HD
ENDBRANCH   4  10
BRANCH   8  12
HETATM   12  O   UNK N   1      32.073  17.666   9.037  0.00  0.00    -0.391 OA
HETATM   13  H   UNK N   1      32.813  17.930   8.469  0.00  0.00     0.210 HD
ENDBRANCH   8  12
BRANCH   7  14
HETATM   14  O   UNK N   1      29.735  18.375  10.463  0.00  0.00    -0.390 OA
HETATM   15  H   UNK N   1      29.693  19.059  11.149  0.00  0.00     0.210 HD
ENDBRANCH   7  14
BRANCH   5  16
HETATM   16  O   UNK N   1      27.423  18.298   9.342  0.00  0.00    -0.391 OA
HETATM   17  H   UNK N   1      27.454  18.056  10.280  0.00  0.00     0.210 HD
ENDBRANCH   5  16
TORSDOF 4
ENDMDL
MODEL 7
REMARK VINA RESULT:      -4.8     19.039     20.029
REMARK  4 active torsions:
REMARK  status: ('A' for Active; 'I' for Inactive)
REMARK    1  A    between atoms: C_4  and  O_10 
REMARK    2  A    between atoms: C_5  and  O_11 
REMARK    3  A    between atoms: C_7  and  O_12 
REMARK    4  A    between atoms: C_8  and  O_13 
ROOT
HETATM    1  C   UNK N   1      34.886   9.687  14.494  0.00  0.00     0.064 C 
HETATM    2  C   UNK N   1      35.273  10.279  15.838  0.00  0.00     0.276 C 
HETATM    3  C   UNK N   1      36.389  12.326  15.849  0.00  0.00     0.307 C 
HETATM    4  C   UNK N   1      33.781  10.607  14.083  0.00  0.00     0.155 C 
HETATM    5  C   UNK N   1      36.406  13.786  15.405  0.00  0.00     0.177 C 
HETATM    6  C   UNK N   1      34.324  11.976  14.494  0.00  0.00     0.282 C 
HETATM    7  C   UNK N   1      35.771  13.971  14.001  0.00  0.00     0.179 C 
HETATM    8  C   UNK N   1      35.238  12.645  13.430  0.00  0.00     0.185 C 
HETATM    9  N   UNK N   1      35.047  11.727  15.772  0.00  0.00     0.101 N 
ENDROOT
BRANCH   4  10
HETATM   10  O   UNK N   1      33.474  10.495  12.725  0.00  0.00    -0.393 OA
HETATM   11  H   UNK N   1      33.711  11.194  12.096  0.00  0.00     0.210 HD
ENDBRANCH   4  10
BRANCH   8  12
HETATM   12  O   UNK N   1      34.529  12.905  12.253  0.00  0.00    -0.391 OA
HETATM   13  H   UNK N   1      34.552  13.777  11.829  0.00  0.00     0.210 HD
ENDBRANCH   8  12
BRANCH   7  14
HETATM   14  O   UNK N   1      36.678  14.537  13.099  0.00  0.00    -0.390 OA
HETATM   15  H   UNK N   1      36.542  14.802  12.177  0.00  0.00     0.210 HD
ENDBRANCH   7  14
BRANCH   5  16
HETATM   16  O   UNK N   1      37.724  14.250  15.430  0.00  0.00    -0.391 OA
HETATM   17  H   UNK N   1      38.451  14.077  16.048  0.00  0.00     0.210 HD
ENDBRANCH   5  16
TORSDOF 4
ENDMDL
MODEL 8
REMARK VINA RESULT:      -4.8     13.582     14.916
REMARK  4 active torsions:
REMARK  status: ('A' for Active; 'I' for Inactive)
REMARK    1  A    between atoms: C_4  and  O_10 
REMARK    2  A    between atoms: C_5  and  O_11 
REMARK    3  A    between atoms: C_7  and  O_12 
REMARK    4  A    between atoms: C_8  and  O_13 
ROOT
HETATM    1  C   UNK N   1      33.959  17.588   6.466  0.00  0.00     0.064 C 
HETATM    2  C   UNK N   1      32.695  16.771   6.264  0.00  0.00     0.276 C 
HETATM    3  C   UNK N   1      32.338  14.947   7.671  0.00  0.00     0.307 C 
HETATM    4  C   UNK N   1      33.646  18.287   7.751  0.00  0.00     0.155 C 
HETATM    5  C   UNK N   1      32.229  14.426   9.102  0.00  0.00     0.177 C 
HETATM    6  C   UNK N   1      32.986  17.181   8.573  0.00  0.00     0.282 C 
HETATM    7  C   UNK N   1      33.196  15.167  10.062  0.00  0.00     0.179 C 
HETATM    8  C   UNK N   1      33.986  16.275   9.343  0.00  0.00     0.185 C 
HETATM    9  N   UNK N   1      32.179  16.408   7.588  0.00  0.00     0.101 N 
ENDROOT
BRANCH   4  10
HETATM   10  O   UNK N   1      34.782  18.844   8.343  0.00  0.00    -0.393 OA
HETATM   11  H   UNK N   1      34.717  19.614   8.928  0.00  0.00     0.210 HD
ENDBRANCH   4  10
BRANCH   8  12
HETATM   12  O   UNK N   1      34.704  17.014  10.289  0.00  0.00    -0.391 OA
HETATM   13  H   UNK N   1      35.088  17.878  10.073  0.00  0.00     0.210 HD
ENDBRANCH   8  12
BRANCH   7  14
HETATM   14  O   UNK N   1      34.089  14.281  10.675  0.00  0.00    -0.390 OA
HETATM   15  H   UNK N   1      34.133  13.997  11.601  0.00  0.00     0.210 HD
ENDBRANCH   7  14
BRANCH   5  16
HETATM   16  O   UNK N   1      32.472  13.050   9.100  0.00  0.00    -0.391 OA
HETATM   17  H   UNK N   1      32.498  12.404   9.823  0.00  0.00     0.210 HD
ENDBRANCH   5  16
TORSDOF 4
ENDMDL
MODEL 9
REMARK VINA RESULT:      -4.8     16.824     18.002
REMARK  4 active torsions:
REMARK  status: ('A' for Active; 'I' for Inactive)
REMARK    1  A    between atoms: C_4  and  O_10 
REMARK    2  A    between atoms: C_5  and  O_11 
REMARK    3  A    between atoms: C_7  and  O_12 
REMARK    4  A    between atoms: C_8  and  O_13 
ROOT
HETATM    1  C   UNK N   1      34.195  15.670   9.079  0.00  0.00     0.064 C 
HETATM    2  C   UNK N   1      35.248  14.938   8.266  0.00  0.00     0.276 C 
HETATM    3  C   UNK N   1      37.049  13.994   9.408  0.00  0.00     0.307 C 
HETATM    4  C   UNK N   1      33.519  14.528   9.767  0.00  0.00     0.155 C 
HETATM    5  C   UNK N   1      37.522  13.065  10.523  0.00  0.00     0.177 C 
HETATM    6  C   UNK N   1      34.697  13.638  10.161  0.00  0.00     0.282 C 
HETATM    7  C   UNK N   1      36.571  13.098  11.747  0.00  0.00     0.179 C 
HETATM    8  C   UNK N   1      35.362  14.021  11.513  0.00  0.00     0.185 C 
HETATM    9  N   UNK N   1      35.650  13.746   9.022  0.00  0.00     0.101 N 
ENDROOT
BRANCH   4  10
HETATM   10  O   UNK N   1      32.730  14.947  10.841  0.00  0.00    -0.393 OA
HETATM   11  H   UNK N   1      31.763  14.882  10.810  0.00  0.00     0.210 HD
ENDBRANCH   4  10
BRANCH   8  12
HETATM   12  O   UNK N   1      34.460  13.873  12.572  0.00  0.00    -0.391 OA
HETATM   13  H   UNK N   1      33.972  14.630  12.932  0.00  0.00     0.210 HD
ENDBRANCH   8  12
BRANCH   7  14
HETATM   14  O   UNK N   1      37.243  13.496  12.908  0.00  0.00    -0.390 OA
HETATM   15  H   UNK N   1      36.880  13.778  13.762  0.00  0.00     0.210 HD
ENDBRANCH   7  14
BRANCH   5  16
HETATM   16  O   UNK N   1      38.825  13.420  10.883  0.00  0.00    -0.391 OA
HETATM   17  H   UNK N   1      39.606  13.621  10.344  0.00  0.00     0.210 HD
ENDBRANCH   5  16
TORSDOF 4
ENDMDL
