MODEL 1
REMARK VINA RESULT:      -6.3      0.000      0.000
REMARK  6 active torsions:
REMARK  status: ('A' for Active; 'I' for Inactive)
REMARK    1  A    between atoms: O_1  and  C_2 
REMARK    2  A    between atoms: C_2  and  C_4 
REMARK    3  A    between atoms: C_4  and  C_5 
REMARK    4  A    between atoms: C_9  and  O_10 
REMARK    5  A    between atoms: O_10  and  C_11 
REMARK    6  A    between atoms: C_15  and  O_16 
ROOT
HETATM    1  C   UNK N   1      32.726  17.286   6.944  0.00  0.00    -0.046 A 
HETATM    2  C   UNK N   1      31.894  17.570   8.028  0.00  0.00     0.028 A 
HETATM    3  C   UNK N   1      30.535  17.241   7.984  0.00  0.00     0.042 A 
HETATM    4  I   UNK N   1      29.337  17.668   9.672  0.00  0.00    -0.042 I 
HETATM    5  C   UNK N   1      29.984  16.633   6.839  0.00  0.00     0.109 A 
HETATM    6  C   UNK N   1      30.852  16.294   5.761  0.00  0.00     0.042 A 
HETATM    7  I   UNK N   1      30.295  15.186   4.032  0.00  0.00    -0.042 I 
HETATM    8  C   UNK N   1      32.201  16.623   5.834  0.00  0.00     0.028 A 
ENDROOT
BRANCH   5   9
HETATM    9  O   UNK N   1      28.651  16.364   6.819  0.00  0.00    -0.308 OA
BRANCH   9  10
HETATM   10  C   UNK N   1      27.706  17.118   6.195  0.00  0.00     0.078 A 
HETATM   11  C   UNK N   1      27.752  18.510   6.309  0.00  0.00     0.058 A 
HETATM   12  C   UNK N   1      26.762  19.302   5.716  0.00  0.00     0.043 A 
HETATM   13  I   UNK N   1      26.856  21.399   5.939  0.00  0.00    -0.042 I 
HETATM   14  C   UNK N   1      25.714  18.700   5.002  0.00  0.00     0.098 A 
HETATM   15  C   UNK N   1      25.680  17.307   4.859  0.00  0.00     0.043 A 
HETATM   16  I   UNK N   1      24.116  16.344   3.821  0.00  0.00    -0.042 I 
HETATM   17  C   UNK N   1      26.679  16.525   5.441  0.00  0.00     0.058 A 
BRANCH  14  18
HETATM   18  O   UNK N   1      24.744  19.455   4.459  0.00  0.00    -0.358 OA
HETATM   19  H   UNK N   1      24.665  20.359   4.692  0.00  0.00     0.217 HD
ENDBRANCH  14  18
ENDBRANCH   9  10
ENDBRANCH   5   9
BRANCH   1  20
HETATM   20  C   UNK N   1      34.183  17.645   7.007  0.00  0.00     0.148 C 
BRANCH  20  21
HETATM   21  C   UNK N   1      34.605  18.196   8.341  0.00  0.00     0.143 C 
HETATM   22  O   UNK N   1      35.013  19.344   8.431  0.00  0.00    -0.650 OA
BRANCH  21  23
HETATM   23  O   UNK N   1      34.562  17.416   9.436  0.00  0.00    -0.776 OA
HETATM   24  H   UNK N   1      34.994  17.194  10.238  0.00  0.00     0.167 HD
ENDBRANCH  21  23
ENDBRANCH  20  21
ENDBRANCH   1  20
TORSDOF 6
ENDMDL
MODEL 2
REMARK VINA RESULT:      -6.3      0.175      2.152
REMARK  6 active torsions:
REMARK  status: ('A' for Active; 'I' for Inactive)
REMARK    1  A    between atoms: O_1  and  C_2 
REMARK    2  A    between atoms: C_2  and  C_4 
REMARK    3  A    between atoms: C_4  and  C_5 
REMARK    4  A    between atoms: C_9  and  O_10 
REMARK    5  A    between atoms: O_10  and  C_11 
REMARK    6  A    between atoms: C_15  and  O_16 
ROOT
HETATM    1  C   UNK N   1      32.816  17.234   6.926  0.00  0.00    -0.046 A 
HETATM    2  C   UNK N   1      32.327  16.658   5.752  0.00  0.00     0.028 A 
HETATM    3  C   UNK N   1      30.971  16.337   5.632  0.00  0.00     0.042 A 
HETATM    4  I   UNK N   1      30.288  15.499   3.816  0.00  0.00    -0.042 I 
HETATM    5  C   UNK N   1      30.082  16.577   6.699  0.00  0.00     0.109 A 
HETATM    6  C   UNK N   1      30.579  17.217   7.871  0.00  0.00     0.042 A 
HETATM    7  I   UNK N   1      29.395  17.870   9.515  0.00  0.00    -0.042 I 
HETATM    8  C   UNK N   1      31.930  17.534   7.962  0.00  0.00     0.028 A 
ENDROOT
BRANCH   5   9
HETATM    9  O   UNK N   1      28.779  16.215   6.558  0.00  0.00    -0.308 OA
BRANCH   9  10
HETATM   10  C   UNK N   1      27.799  16.994   6.025  0.00  0.00     0.078 A 
HETATM   11  C   UNK N   1      27.864  18.381   6.182  0.00  0.00     0.058 A 
HETATM   12  C   UNK N   1      26.842  19.198   5.684  0.00  0.00     0.043 A 
HETATM   13  I   UNK N   1      26.966  21.286   5.970  0.00  0.00    -0.042 I 
HETATM   14  C   UNK N   1      25.743  18.625   5.025  0.00  0.00     0.098 A 
HETATM   15  C   UNK N   1      25.689  17.238   4.838  0.00  0.00     0.043 A 
HETATM   16  I   UNK N   1      24.050  16.319   3.878  0.00  0.00    -0.042 I 
HETATM   17  C   UNK N   1      26.719  16.432   5.324  0.00  0.00     0.058 A 
BRANCH  14  18
HETATM   18  O   UNK N   1      24.743  19.404   4.574  0.00  0.00    -0.358 OA
HETATM   19  H   UNK N   1      24.388  19.264   3.719  0.00  0.00     0.217 HD
ENDBRANCH  14  18
ENDBRANCH   9  10
ENDBRANCH   5   9
BRANCH   1  20
HETATM   20  C   UNK N   1      34.275  17.572   7.040  0.00  0.00     0.148 C 
BRANCH  20  21
HETATM   21  C   UNK N   1      34.647  18.172   8.368  0.00  0.00     0.143 C 
HETATM   22  O   UNK N   1      34.975  19.346   8.441  0.00  0.00    -0.650 OA
BRANCH  21  23
HETATM   23  O   UNK N   1      34.647  17.409   9.475  0.00  0.00    -0.776 OA
HETATM   24  H   UNK N   1      35.184  17.009  10.131  0.00  0.00     0.167 HD
ENDBRANCH  21  23
ENDBRANCH  20  21
ENDBRANCH   1  20
TORSDOF 6
ENDMDL
MODEL 3
REMARK VINA RESULT:      -6.3      5.022      9.169
REMARK  6 active torsions:
REMARK  status: ('A' for Active; 'I' for Inactive)
REMARK    1  A    between atoms: O_1  and  C_2 
REMARK    2  A    between atoms: C_2  and  C_4 
REMARK    3  A    between atoms: C_4  and  C_5 
REMARK    4  A    between atoms: C_9  and  O_10 
REMARK    5  A    between atoms: O_10  and  C_11 
REMARK    6  A    between atoms: C_15  and  O_16 
ROOT
HETATM    1  C   UNK N   1      21.915  19.939   3.084  0.00  0.00    -0.046 A 
HETATM    2  C   UNK N   1      21.485  18.948   3.968  0.00  0.00     0.028 A 
HETATM    3  C   UNK N   1      22.411  18.219   4.723  0.00  0.00     0.042 A 
HETATM    4  I   UNK N   1      21.691  16.756   6.067  0.00  0.00    -0.042 I 
HETATM    5  C   UNK N   1      23.792  18.465   4.589  0.00  0.00     0.109 A 
HETATM    6  C   UNK N   1      24.219  19.516   3.727  0.00  0.00     0.042 A 
HETATM    7  I   UNK N   1      26.221  20.210   3.527  0.00  0.00    -0.042 I 
HETATM    8  C   UNK N   1      23.277  20.232   2.996  0.00  0.00     0.028 A 
ENDROOT
BRANCH   5   9
HETATM    9  O   UNK N   1      24.663  17.709   5.310  0.00  0.00    -0.308 OA
BRANCH   9  10
HETATM   10  C   UNK N   1      25.435  16.706   4.809  0.00  0.00     0.078 A 
HETATM   11  C   UNK N   1      26.761  16.584   5.231  0.00  0.00     0.058 A 
HETATM   12  C   UNK N   1      27.587  15.591   4.693  0.00  0.00     0.043 A 
HETATM   13  I   UNK N   1      29.593  15.463   5.338  0.00  0.00    -0.042 I 
HETATM   14  C   UNK N   1      27.085  14.710   3.722  0.00  0.00     0.098 A 
HETATM   15  C   UNK N   1      25.747  14.808   3.319  0.00  0.00     0.043 A 
HETATM   16  I   UNK N   1      24.945  13.528   1.845  0.00  0.00    -0.042 I 
HETATM   17  C   UNK N   1      24.926  15.791   3.871  0.00  0.00     0.058 A 
BRANCH  14  18
HETATM   18  O   UNK N   1      27.885  13.775   3.179  0.00  0.00    -0.358 OA
HETATM   19  H   UNK N   1      27.718  12.866   3.334  0.00  0.00     0.217 HD
ENDBRANCH  14  18
ENDBRANCH   9  10
ENDBRANCH   5   9
BRANCH   1  20
HETATM   20  C   UNK N   1      20.909  20.711   2.282  0.00  0.00     0.148 C 
BRANCH  20  21
HETATM   21  C   UNK N   1      20.890  20.336   0.826  0.00  0.00     0.143 C 
HETATM   22  O   UNK N   1      21.264  21.134  -0.020  0.00  0.00    -0.650 OA
BRANCH  21  23
HETATM   23  O   UNK N   1      20.434  19.128   0.448  0.00  0.00    -0.776 OA
HETATM   24  H   UNK N   1      20.510  18.444  -0.189  0.00  0.00     0.167 HD
ENDBRANCH  21  23
ENDBRANCH  20  21
ENDBRANCH   1  20
TORSDOF 6
ENDMDL
MODEL 4
REMARK VINA RESULT:      -6.3      4.998      9.357
REMARK  6 active torsions:
REMARK  status: ('A' for Active; 'I' for Inactive)
REMARK    1  A    between atoms: O_1  and  C_2 
REMARK    2  A    between atoms: C_2  and  C_4 
REMARK    3  A    between atoms: C_4  and  C_5 
REMARK    4  A    between atoms: C_9  and  O_10 
REMARK    5  A    between atoms: O_10  and  C_11 
REMARK    6  A    between atoms: C_15  and  O_16 
ROOT
HETATM    1  C   UNK N   1      21.943  19.898   3.078  0.00  0.00    -0.046 A 
HETATM    2  C   UNK N   1      21.535  18.886   3.949  0.00  0.00     0.028 A 
HETATM    3  C   UNK N   1      22.479  18.164   4.688  0.00  0.00     0.042 A 
HETATM    4  I   UNK N   1      21.793  16.669   6.015  0.00  0.00    -0.042 I 
HETATM    5  C   UNK N   1      23.854  18.438   4.552  0.00  0.00     0.109 A 
HETATM    6  C   UNK N   1      24.258  19.510   3.704  0.00  0.00     0.042 A 
HETATM    7  I   UNK N   1      26.245  20.244   3.504  0.00  0.00    -0.042 I 
HETATM    8  C   UNK N   1      23.298  20.218   2.988  0.00  0.00     0.028 A 
ENDROOT
BRANCH   5   9
HETATM    9  O   UNK N   1      24.743  17.688   5.257  0.00  0.00    -0.308 OA
BRANCH   9  10
HETATM   10  C   UNK N   1      25.547  16.722   4.735  0.00  0.00     0.078 A 
HETATM   11  C   UNK N   1      25.026  15.830   3.794  0.00  0.00     0.058 A 
HETATM   12  C   UNK N   1      25.821  14.798   3.281  0.00  0.00     0.043 A 
HETATM   13  I   UNK N   1      24.984  13.455   1.884  0.00  0.00    -0.042 I 
HETATM   14  C   UNK N   1      27.149  14.654   3.712  0.00  0.00     0.098 A 
HETATM   15  C   UNK N   1      27.685  15.565   4.632  0.00  0.00     0.043 A 
HETATM   16  I   UNK N   1      29.666  15.383   5.335  0.00  0.00    -0.042 I 
HETATM   17  C   UNK N   1      26.891  16.599   5.127  0.00  0.00     0.058 A 
BRANCH  14  18
HETATM   18  O   UNK N   1      27.906  13.645   3.246  0.00  0.00    -0.358 OA
HETATM   19  H   UNK N   1      27.746  12.767   3.530  0.00  0.00     0.217 HD
ENDBRANCH  14  18
ENDBRANCH   9  10
ENDBRANCH   5   9
BRANCH   1  20
HETATM   20  C   UNK N   1      20.918  20.663   2.292  0.00  0.00     0.148 C 
BRANCH  20  21
HETATM   21  C   UNK N   1      20.879  20.288   0.836  0.00  0.00     0.143 C 
HETATM   22  O   UNK N   1      21.235  21.088  -0.015  0.00  0.00    -0.650 OA
BRANCH  21  23
HETATM   23  O   UNK N   1      20.425  19.077   0.465  0.00  0.00    -0.776 OA
HETATM   24  H   UNK N   1      19.780  18.621  -0.039  0.00  0.00     0.167 HD
ENDBRANCH  21  23
ENDBRANCH  20  21
ENDBRANCH   1  20
TORSDOF 6
ENDMDL
MODEL 5
REMARK VINA RESULT:      -6.3      6.211      8.848
REMARK  6 active torsions:
REMARK  status: ('A' for Active; 'I' for Inactive)
REMARK    1  A    between atoms: O_1  and  C_2 
REMARK    2  A    between atoms: C_2  and  C_4 
REMARK    3  A    between atoms: C_4  and  C_5 
REMARK    4  A    between atoms: C_9  and  O_10 
REMARK    5  A    between atoms: O_10  and  C_11 
REMARK    6  A    between atoms: C_15  and  O_16 
ROOT
HETATM    1  C   UNK N   1      22.295  12.255  10.377  0.00  0.00    -0.046 A 
HETATM    2  C   UNK N   1      21.534  13.411  10.191  0.00  0.00     0.028 A 
HETATM    3  C   UNK N   1      21.399  13.974   8.918  0.00  0.00     0.042 A 
HETATM    4  I   UNK N   1      20.206  15.705   8.700  0.00  0.00    -0.042 I 
HETATM    5  C   UNK N   1      22.041  13.391   7.807  0.00  0.00     0.109 A 
HETATM    6  C   UNK N   1      22.767  12.180   7.995  0.00  0.00     0.042 A 
HETATM    7  I   UNK N   1      23.634  11.008   6.445  0.00  0.00    -0.042 I 
HETATM    8  C   UNK N   1      22.878  11.636   9.270  0.00  0.00     0.028 A 
ENDROOT
BRANCH   5   9
HETATM    9  O   UNK N   1      21.917  13.990   6.592  0.00  0.00    -0.308 OA
BRANCH   9  10
HETATM   10  C   UNK N   1      22.698  15.006   6.133  0.00  0.00     0.078 A 
HETATM   11  C   UNK N   1      22.108  16.065   5.438  0.00  0.00     0.058 A 
HETATM   12  C   UNK N   1      22.898  17.095   4.914  0.00  0.00     0.043 A 
HETATM   13  I   UNK N   1      21.968  18.659   3.846  0.00  0.00    -0.042 I 
HETATM   14  C   UNK N   1      24.291  17.068   5.085  0.00  0.00     0.098 A 
HETATM   15  C   UNK N   1      24.884  16.024   5.808  0.00  0.00     0.043 A 
HETATM   16  I   UNK N   1      26.975  15.918   6.073  0.00  0.00    -0.042 I 
HETATM   17  C   UNK N   1      24.088  15.009   6.339  0.00  0.00     0.058 A 
BRANCH  14  18
HETATM   18  O   UNK N   1      25.057  18.039   4.555  0.00  0.00    -0.358 OA
HETATM   19  H   UNK N   1      25.166  18.097   3.627  0.00  0.00     0.217 HD
ENDBRANCH  14  18
ENDBRANCH   9  10
ENDBRANCH   5   9
BRANCH   1  20
HETATM   20  C   UNK N   1      22.431  11.664  11.750  0.00  0.00     0.148 C 
BRANCH  20  21
HETATM   21  C   UNK N   1      23.693  12.076  12.456  0.00  0.00     0.143 C 
HETATM   22  O   UNK N   1      23.695  12.241  13.666  0.00  0.00    -0.650 OA
BRANCH  21  23
HETATM   23  O   UNK N   1      24.818  12.294  11.751  0.00  0.00    -0.776 OA
HETATM   24  H   UNK N   1      25.569  11.891  11.362  0.00  0.00     0.167 HD
ENDBRANCH  21  23
ENDBRANCH  20  21
ENDBRANCH   1  20
TORSDOF 6
ENDMDL
MODEL 6
REMARK VINA RESULT:      -6.3      6.266      8.825
REMARK  6 active torsions:
REMARK  status: ('A' for Active; 'I' for Inactive)
REMARK    1  A    between atoms: O_1  and  C_2 
REMARK    2  A    between atoms: C_2  and  C_4 
REMARK    3  A    between atoms: C_4  and  C_5 
REMARK    4  A    between atoms: C_9  and  O_10 
REMARK    5  A    between atoms: O_10  and  C_11 
REMARK    6  A    between atoms: C_15  and  O_16 
ROOT
HETATM    1  C   UNK N   1      22.339  12.189  10.358  0.00  0.00    -0.046 A 
HETATM    2  C   UNK N   1      21.587  13.350  10.167  0.00  0.00     0.028 A 
HETATM    3  C   UNK N   1      21.422  13.886   8.886  0.00  0.00     0.042 A 
HETATM    4  I   UNK N   1      20.243  15.626   8.663  0.00  0.00    -0.042 I 
HETATM    5  C   UNK N   1      22.026  13.271   7.771  0.00  0.00     0.109 A 
HETATM    6  C   UNK N   1      22.744  12.056   7.966  0.00  0.00     0.042 A 
HETATM    7  I   UNK N   1      23.554  10.840   6.419  0.00  0.00    -0.042 I 
HETATM    8  C   UNK N   1      22.884  11.539   9.250  0.00  0.00     0.028 A 
ENDROOT
BRANCH   5   9
HETATM    9  O   UNK N   1      21.875  13.844   6.547  0.00  0.00    -0.308 OA
BRANCH   9  10
HETATM   10  C   UNK N   1      22.634  14.861   6.056  0.00  0.00     0.078 A 
HETATM   11  C   UNK N   1      24.012  14.864   6.290  0.00  0.00     0.058 A 
HETATM   12  C   UNK N   1      24.804  15.926   5.836  0.00  0.00     0.043 A 
HETATM   13  I   UNK N   1      26.876  15.904   6.238  0.00  0.00    -0.042 I 
HETATM   14  C   UNK N   1      24.216  16.995   5.143  0.00  0.00     0.098 A 
HETATM   15  C   UNK N   1      22.840  16.981   4.879  0.00  0.00     0.043 A 
HETATM   16  I   UNK N   1      21.898  18.574   3.865  0.00  0.00    -0.042 I 
HETATM   17  C   UNK N   1      22.060  15.913   5.322  0.00  0.00     0.058 A 
BRANCH  14  18
HETATM   18  O   UNK N   1      24.969  18.032   4.734  0.00  0.00    -0.358 OA
HETATM   19  H   UNK N   1      24.642  18.624   4.086  0.00  0.00     0.217 HD
ENDBRANCH  14  18
ENDBRANCH   9  10
ENDBRANCH   5   9
BRANCH   1  20
HETATM   20  C   UNK N   1      22.507  11.627  11.740  0.00  0.00     0.148 C 
BRANCH  20  21
HETATM   21  C   UNK N   1      23.773  12.074  12.417  0.00  0.00     0.143 C 
HETATM   22  O   UNK N   1      23.808  12.205  13.630  0.00  0.00    -0.650 OA
BRANCH  21  23
HETATM   23  O   UNK N   1      24.864  12.359  11.683  0.00  0.00    -0.776 OA
HETATM   24  H   UNK N   1      25.635  12.890  11.629  0.00  0.00     0.167 HD
ENDBRANCH  21  23
ENDBRANCH  20  21
ENDBRANCH   1  20
TORSDOF 6
ENDMDL
MODEL 7
REMARK VINA RESULT:      -6.2      7.701      9.090
REMARK  6 active torsions:
REMARK  status: ('A' for Active; 'I' for Inactive)
REMARK    1  A    between atoms: O_1  and  C_2 
REMARK    2  A    between atoms: C_2  and  C_4 
REMARK    3  A    between atoms: C_4  and  C_5 
REMARK    4  A    between atoms: C_9  and  O_10 
REMARK    5  A    between atoms: O_10  and  C_11 
REMARK    6  A    between atoms: C_15  and  O_16 
ROOT
HETATM    1  C   UNK N   1      22.905  12.641   9.293  0.00  0.00    -0.046 A 
HETATM    2  C   UNK N   1      23.931  12.793   8.359  0.00  0.00     0.028 A 
HETATM    3  C   UNK N   1      23.871  13.808   7.398  0.00  0.00     0.042 A 
HETATM    4  I   UNK N   1      25.474  14.006   6.035  0.00  0.00    -0.042 I 
HETATM    5  C   UNK N   1      22.765  14.681   7.350  0.00  0.00     0.109 A 
HETATM    6  C   UNK N   1      21.750  14.555   8.342  0.00  0.00     0.042 A 
HETATM    7  I   UNK N   1      20.108  15.882   8.601  0.00  0.00    -0.042 I 
HETATM    8  C   UNK N   1      21.840  13.543   9.292  0.00  0.00     0.028 A 
ENDROOT
BRANCH   5   9
HETATM    9  O   UNK N   1      22.724  15.630   6.376  0.00  0.00    -0.308 OA
BRANCH   9  10
HETATM   10  C   UNK N   1      21.927  15.593   5.274  0.00  0.00     0.078 A 
HETATM   11  C   UNK N   1      21.541  16.790   4.665  0.00  0.00     0.058 A 
HETATM   12  C   UNK N   1      20.680  16.776   3.561  0.00  0.00     0.043 A 
HETATM   13  I   UNK N   1      20.100  18.610   2.691  0.00  0.00    -0.042 I 
HETATM   14  C   UNK N   1      20.199  15.556   3.060  0.00  0.00     0.098 A 
HETATM   15  C   UNK N   1      20.608  14.353   3.648  0.00  0.00     0.043 A 
HETATM   16  I   UNK N   1      19.897  12.491   2.954  0.00  0.00    -0.042 I 
HETATM   17  C   UNK N   1      21.477  14.373   4.739  0.00  0.00     0.058 A 
BRANCH  14  18
HETATM   18  O   UNK N   1      19.347  15.541   2.020  0.00  0.00    -0.358 OA
HETATM   19  H   UNK N   1      19.551  16.016   1.238  0.00  0.00     0.217 HD
ENDBRANCH  14  18
ENDBRANCH   9  10
ENDBRANCH   5   9
BRANCH   1  20
HETATM   20  C   UNK N   1      22.984  11.546  10.317  0.00  0.00     0.148 C 
BRANCH  20  21
HETATM   21  C   UNK N   1      23.636  11.977  11.602  0.00  0.00     0.143 C 
HETATM   22  O   UNK N   1      22.989  12.017  12.637  0.00  0.00    -0.650 OA
BRANCH  21  23
HETATM   23  O   UNK N   1      24.929  12.348  11.610  0.00  0.00    -0.776 OA
HETATM   24  H   UNK N   1      25.711  12.395  12.124  0.00  0.00     0.167 HD
ENDBRANCH  21  23
ENDBRANCH  20  21
ENDBRANCH   1  20
TORSDOF 6
ENDMDL
MODEL 8
REMARK VINA RESULT:      -6.2      7.825      9.348
REMARK  6 active torsions:
REMARK  status: ('A' for Active; 'I' for Inactive)
REMARK    1  A    between atoms: O_1  and  C_2 
REMARK    2  A    between atoms: C_2  and  C_4 
REMARK    3  A    between atoms: C_4  and  C_5 
REMARK    4  A    between atoms: C_9  and  O_10 
REMARK    5  A    between atoms: O_10  and  C_11 
REMARK    6  A    between atoms: C_15  and  O_16 
ROOT
HETATM    1  C   UNK N   1      22.931  12.501   9.361  0.00  0.00    -0.046 A 
HETATM    2  C   UNK N   1      23.928  12.540   8.384  0.00  0.00     0.028 A 
HETATM    3  C   UNK N   1      23.885  13.499   7.366  0.00  0.00     0.042 A 
HETATM    4  I   UNK N   1      25.443  13.526   5.939  0.00  0.00    -0.042 I 
HETATM    5  C   UNK N   1      22.827  14.428   7.303  0.00  0.00     0.109 A 
HETATM    6  C   UNK N   1      21.845  14.417   8.336  0.00  0.00     0.042 A 
HETATM    7  I   UNK N   1      20.287  15.846   8.571  0.00  0.00    -0.042 I 
HETATM    8  C   UNK N   1      21.917  13.459   9.342  0.00  0.00     0.028 A 
ENDROOT
BRANCH   5   9
HETATM    9  O   UNK N   1      22.800  15.318   6.276  0.00  0.00    -0.308 OA
BRANCH   9  10
HETATM   10  C   UNK N   1      21.899  15.315   5.256  0.00  0.00     0.078 A 
HETATM   11  C   UNK N   1      21.424  14.097   4.763  0.00  0.00     0.058 A 
HETATM   12  C   UNK N   1      20.535  14.069   3.682  0.00  0.00     0.043 A 
HETATM   13  I   UNK N   1      19.865  12.205   2.952  0.00  0.00    -0.042 I 
HETATM   14  C   UNK N   1      20.118  15.269   3.084  0.00  0.00     0.098 A 
HETATM   15  C   UNK N   1      20.568  16.494   3.594  0.00  0.00     0.043 A 
HETATM   16  I   UNK N   1      19.995  18.327   2.720  0.00  0.00    -0.042 I 
HETATM   17  C   UNK N   1      21.442  16.514   4.682  0.00  0.00     0.058 A 
BRANCH  14  18
HETATM   18  O   UNK N   1      19.290  15.245   2.025  0.00  0.00    -0.358 OA
HETATM   19  H   UNK N   1      18.711  14.520   1.898  0.00  0.00     0.217 HD
ENDBRANCH  14  18
ENDBRANCH   9  10
ENDBRANCH   5   9
BRANCH   1  20
HETATM   20  C   UNK N   1      22.991  11.465  10.447  0.00  0.00     0.148 C 
BRANCH  20  21
HETATM   21  C   UNK N   1      23.709  11.936  11.681  0.00  0.00     0.143 C 
HETATM   22  O   UNK N   1      23.116  12.012  12.746  0.00  0.00    -0.650 OA
BRANCH  21  23
HETATM   23  O   UNK N   1      25.002  12.302  11.610  0.00  0.00    -0.776 OA
HETATM   24  H   UNK N   1      25.860  12.159  11.958  0.00  0.00     0.167 HD
ENDBRANCH  21  23
ENDBRANCH  20  21
ENDBRANCH   1  20
TORSDOF 6
ENDMDL
MODEL 9
REMARK VINA RESULT:      -6.2      8.090      9.135
REMARK  6 active torsions:
REMARK  status: ('A' for Active; 'I' for Inactive)
REMARK    1  A    between atoms: O_1  and  C_2 
REMARK    2  A    between atoms: C_2  and  C_4 
REMARK    3  A    between atoms: C_4  and  C_5 
REMARK    4  A    between atoms: C_9  and  O_10 
REMARK    5  A    between atoms: O_10  and  C_11 
REMARK    6  A    between atoms: C_15  and  O_16 
ROOT
HETATM    1  C   UNK N   1      22.716  12.555   9.763  0.00  0.00    -0.046 A 
HETATM    2  C   UNK N   1      21.751  13.562   9.714  0.00  0.00     0.028 A 
HETATM    3  C   UNK N   1      21.711  14.454   8.638  0.00  0.00     0.042 A 
HETATM    4  I   UNK N   1      20.202  15.934   8.608  0.00  0.00    -0.042 I 
HETATM    5  C   UNK N   1      22.654  14.359   7.595  0.00  0.00     0.109 A 
HETATM    6  C   UNK N   1      23.600  13.294   7.624  0.00  0.00     0.042 A 
HETATM    7  I   UNK N   1      24.973  12.821   6.069  0.00  0.00    -0.042 I 
HETATM    8  C   UNK N   1      23.612  12.414   8.702  0.00  0.00     0.028 A 
ENDROOT
BRANCH   5   9
HETATM    9  O   UNK N   1      22.607  15.270   6.586  0.00  0.00    -0.308 OA
BRANCH   9  10
HETATM   10  C   UNK N   1      21.795  15.195   5.497  0.00  0.00     0.078 A 
HETATM   11  C   UNK N   1      21.528  16.352   4.759  0.00  0.00     0.058 A 
HETATM   12  C   UNK N   1      20.656  16.307   3.665  0.00  0.00     0.043 A 
HETATM   13  I   UNK N   1      20.259  18.084   2.597  0.00  0.00    -0.042 I 
HETATM   14  C   UNK N   1      20.043  15.097   3.304  0.00  0.00     0.098 A 
HETATM   15  C   UNK N   1      20.331  13.930   4.021  0.00  0.00     0.043 A 
HETATM   16  I   UNK N   1      19.419  12.088   3.540  0.00  0.00    -0.042 I 
HETATM   17  C   UNK N   1      21.213  13.979   5.102  0.00  0.00     0.058 A 
BRANCH  14  18
HETATM   18  O   UNK N   1      19.180  15.057   2.273  0.00  0.00    -0.358 OA
HETATM   19  H   UNK N   1      19.235  14.369   1.640  0.00  0.00     0.217 HD
ENDBRANCH  14  18
ENDBRANCH   9  10
ENDBRANCH   5   9
BRANCH   1  20
HETATM   20  C   UNK N   1      22.746  11.605  10.925  0.00  0.00     0.148 C 
BRANCH  20  21
HETATM   21  C   UNK N   1      23.694  12.024  12.015  0.00  0.00     0.143 C 
HETATM   22  O   UNK N   1      23.323  12.048  13.178  0.00  0.00    -0.650 OA
BRANCH  21  23
HETATM   23  O   UNK N   1      24.949  12.402  11.707  0.00  0.00    -0.776 OA
HETATM   24  H   UNK N   1      25.854  12.316  11.936  0.00  0.00     0.167 HD
ENDBRANCH  21  23
ENDBRANCH  20  21
ENDBRANCH   1  20
TORSDOF 6
ENDMDL
