MODEL 1
REMARK VINA RESULT:      -7.4      0.000      0.000
REMARK  10 active torsions:
REMARK  status: ('A' for Active; 'I' for Inactive)
REMARK    1  A    between atoms: O_2  and  C_3 
REMARK    2  A    between atoms: C_3  and  C_5 
REMARK       I    between atoms: N_8  and  C_11 
REMARK    3  A    between atoms: C_11  and  C_13 
REMARK    4  A    between atoms: C_13  and  C_14 
REMARK    5  A    between atoms: C_13  and  N_25 
REMARK    6  A    between atoms: C_14  and  C_15 
REMARK    7  A    between atoms: C_19  and  C_21 
REMARK    8  A    between atoms: C_21  and  N_22 
REMARK    9  A    between atoms: N_25  and  S_26 
REMARK   10  A    between atoms: S_26  and  C_29 
ROOT
HETATM    1  C   UNK N   1      28.978  17.633   6.333  0.00  0.00     0.189 C 
ENDROOT
BRANCH   1   2
HETATM    2  C   UNK N   1      27.554  17.182   5.964  0.00  0.00     0.243 C 
HETATM    3  N   UNK N   1      26.732  17.819   5.059  0.00  0.00    -0.350 N 
HETATM    4  C   UNK N   1      25.461  17.189   4.715  0.00  0.00     0.127 C 
HETATM    5  C   UNK N   1      27.145  18.983   4.297  0.00  0.00     0.127 C 
HETATM    6  C   UNK N   1      24.347  18.220   4.556  0.00  0.00     0.034 C 
HETATM    7  C   UNK N   1      24.814  19.258   3.542  0.00  0.00     0.088 C 
HETATM    8  C   UNK N   1      26.007  19.987   4.144  0.00  0.00     0.034 C 
HETATM    9  O   UNK N   1      27.163  16.147   6.468  0.00  0.00    -0.271 OA
BRANCH   7  10
HETATM   10  C   UNK N   1      23.736  20.212   3.083  0.00  0.00     0.262 C 
HETATM   11  O   UNK N   1      24.019  21.138   2.339  0.00  0.00    -0.265 OA
BRANCH  10  12
HETATM   12  O   UNK N   1      22.456  20.087   3.518  0.00  0.00    -0.326 OA
HETATM   13  C   UNK N   1      21.362  20.335   2.720  0.00  0.00     0.213 C 
ENDBRANCH  10  12
ENDBRANCH   7  10
ENDBRANCH   1   2
BRANCH   1  14
HETATM   14  C   UNK N   1      29.836  18.200   5.211  0.00  0.00     0.074 C 
BRANCH  14  15
HETATM   15  C   UNK N   1      30.838  17.237   4.660  0.00  0.00    -0.055 A 
HETATM   16  C   UNK N   1      32.068  17.662   4.142  0.00  0.00     0.007 A 
HETATM   17  C   UNK N   1      32.988  16.734   3.655  0.00  0.00     0.002 A 
HETATM   18  C   UNK N   1      32.690  15.372   3.699  0.00  0.00     0.015 A 
HETATM   19  C   UNK N   1      31.466  14.932   4.228  0.00  0.00     0.007 A 
HETATM   20  C   UNK N   1      30.544  15.874   4.702  0.00  0.00     0.022 A 
BRANCH  19  21
HETATM   21  C   UNK N   1      31.153  13.492   4.300  0.00  0.00     0.102 C 
HETATM   22  N   UNK N   1      30.244  13.065   5.099  0.00  0.00    -0.385 N 
HETATM   23  H   UNK N   1      29.567  12.386   4.876  0.00  0.00     0.157 HD
ATOM     24  HN  UNK N   1      30.220  13.460   6.039  1.00  0.00     0.157 HD
BRANCH  21  25
HETATM   25  N   UNK N   1      31.833  12.573   3.468  0.00  0.00    -0.385 N 
HETATM   26  H   UNK N   1      31.601  11.664   3.166  0.00  0.00     0.157 HD
HETATM   27  H   UNK N   1      32.695  12.902   3.127  0.00  0.00     0.157 HD
ENDBRANCH  21  25
ENDBRANCH  19  21
ENDBRANCH  14  15
ENDBRANCH   1  14
BRANCH   1  28
HETATM   28  N   UNK N   1      28.977  18.589   7.435  0.00  0.00    -0.301 N 
HETATM   29  H   UNK N   1      28.479  19.479   7.427  0.00  0.00     0.173 HD
BRANCH  28  30
HETATM   30  S   UNK N   1      29.963  17.995   8.795  0.00  0.00     0.259 S 
HETATM   31  O   UNK N   1      29.072  16.889   9.380  0.00  0.00    -0.201 OA
HETATM   32  O   UNK N   1      29.948  19.030   9.930  0.00  0.00    -0.201 OA
BRANCH  30  33
HETATM   33  C   UNK N   1      31.535  17.271   8.375  0.00  0.00     0.080 A 
HETATM   34  C   UNK N   1      32.578  18.096   7.954  0.00  0.00     0.026 A 
HETATM   35  C   UNK N   1      33.732  17.556   7.395  0.00  0.00     0.014 A 
HETATM   36  C   UNK N   1      33.835  16.177   7.229  0.00  0.00    -0.026 A 
HETATM   37  C   UNK N   1      34.947  15.631   6.589  0.00  0.00     0.012 A 
HETATM   38  C   UNK N   1      32.795  15.332   7.682  0.00  0.00    -0.025 A 
HETATM   39  C   UNK N   1      35.030  14.250   6.395  0.00  0.00     0.001 A 
HETATM   40  C   UNK N   1      34.009  13.412   6.858  0.00  0.00     0.001 A 
HETATM   41  C   UNK N   1      32.892  13.953   7.502  0.00  0.00     0.012 A 
HETATM   42  C   UNK N   1      31.648  15.885   8.251  0.00  0.00     0.037 A 
ENDBRANCH  30  33
ENDBRANCH  28  30
ENDBRANCH   1  28
TORSDOF 10
ENDMDL
MODEL 2
REMARK VINA RESULT:      -7.4      3.212      8.433
REMARK  10 active torsions:
REMARK  status: ('A' for Active; 'I' for Inactive)
REMARK    1  A    between atoms: O_2  and  C_3 
REMARK    2  A    between atoms: C_3  and  C_5 
REMARK       I    between atoms: N_8  and  C_11 
REMARK    3  A    between atoms: C_11  and  C_13 
REMARK    4  A    between atoms: C_13  and  C_14 
REMARK    5  A    between atoms: C_13  and  N_25 
REMARK    6  A    between atoms: C_14  and  C_15 
REMARK    7  A    between atoms: C_19  and  C_21 
REMARK    8  A    between atoms: C_21  and  N_22 
REMARK    9  A    between atoms: N_25  and  S_26 
REMARK   10  A    between atoms: S_26  and  C_29 
ROOT
HETATM    1  C   UNK N   1      28.515  17.450   5.852  0.00  0.00     0.189 C 
ENDROOT
BRANCH   1   2
HETATM    2  C   UNK N   1      29.975  17.208   5.428  0.00  0.00     0.243 C 
HETATM    3  N   UNK N   1      31.053  17.184   6.287  0.00  0.00    -0.350 N 
HETATM    4  C   UNK N   1      32.357  16.803   5.750  0.00  0.00     0.127 C 
HETATM    5  C   UNK N   1      30.926  17.336   7.724  0.00  0.00     0.127 C 
HETATM    6  C   UNK N   1      33.481  17.636   6.360  0.00  0.00     0.034 C 
HETATM    7  C   UNK N   1      33.381  17.514   7.876  0.00  0.00     0.088 C 
HETATM    8  C   UNK N   1      32.070  18.160   8.306  0.00  0.00     0.034 C 
HETATM    9  O   UNK N   1      30.166  16.955   4.255  0.00  0.00    -0.271 OA
BRANCH   7  10
HETATM   10  C   UNK N   1      34.564  18.075   8.628  0.00  0.00     0.262 C 
HETATM   11  O   UNK N   1      35.045  19.148   8.295  0.00  0.00    -0.265 OA
BRANCH  10  12
HETATM   12  O   UNK N   1      35.137  17.388   9.649  0.00  0.00    -0.326 OA
HETATM   13  C   UNK N   1      34.791  16.096   9.975  0.00  0.00     0.213 C 
ENDBRANCH  10  12
ENDBRANCH   7  10
ENDBRANCH   1   2
BRANCH   1  14
HETATM   14  C   UNK N   1      27.955  16.554   6.947  0.00  0.00     0.074 C 
BRANCH  14  15
HETATM   15  C   UNK N   1      27.072  15.456   6.448  0.00  0.00    -0.055 A 
HETATM   16  C   UNK N   1      27.485  14.570   5.445  0.00  0.00     0.007 A 
HETATM   17  C   UNK N   1      26.643  13.543   5.019  0.00  0.00     0.002 A 
HETATM   18  C   UNK N   1      25.386  13.388   5.606  0.00  0.00     0.015 A 
HETATM   19  C   UNK N   1      24.966  14.262   6.621  0.00  0.00     0.007 A 
HETATM   20  C   UNK N   1      25.815  15.297   7.032  0.00  0.00     0.022 A 
BRANCH  19  21
HETATM   21  C   UNK N   1      23.648  14.088   7.263  0.00  0.00     0.102 C 
HETATM   22  N   UNK N   1      22.647  14.799   6.891  0.00  0.00    -0.385 N 
HETATM   23  H   UNK N   1      21.733  14.461   6.752  0.00  0.00     0.157 HD
ATOM     24  HN  UNK N   1      22.811  15.792   6.725  1.00  0.00     0.157 HD
BRANCH  21  25
HETATM   25  N   UNK N   1      23.472  13.117   8.275  0.00  0.00    -0.385 N 
HETATM   26  H   UNK N   1      23.992  12.315   8.513  0.00  0.00     0.157 HD
HETATM   27  H   UNK N   1      22.686  13.270   8.846  0.00  0.00     0.157 HD
ENDBRANCH  21  25
ENDBRANCH  19  21
ENDBRANCH  14  15
ENDBRANCH   1  14
BRANCH   1  28
HETATM   28  N   UNK N   1      28.284  18.839   6.234  0.00  0.00    -0.301 N 
HETATM   29  H   UNK N   1      28.792  19.327   6.972  0.00  0.00     0.173 HD
BRANCH  28  30
HETATM   30  S   UNK N   1      26.996  19.567   5.243  0.00  0.00     0.259 S 
HETATM   31  O   UNK N   1      27.799  20.285   4.148  0.00  0.00    -0.201 OA
HETATM   32  O   UNK N   1      26.377  20.755   5.996  0.00  0.00    -0.201 OA
BRANCH  30  33
HETATM   33  C   UNK N   1      25.873  18.434   4.449  0.00  0.00     0.080 A 
HETATM   34  C   UNK N   1      24.596  18.252   4.979  0.00  0.00     0.026 A 
HETATM   35  C   UNK N   1      23.782  17.213   4.537  0.00  0.00     0.014 A 
HETATM   36  C   UNK N   1      24.260  16.329   3.573  0.00  0.00    -0.026 A 
HETATM   37  C   UNK N   1      23.490  15.233   3.188  0.00  0.00     0.012 A 
HETATM   38  C   UNK N   1      25.543  16.526   3.009  0.00  0.00    -0.025 A 
HETATM   39  C   UNK N   1      23.989  14.330   2.245  0.00  0.00     0.001 A 
HETATM   40  C   UNK N   1      25.250  14.533   1.673  0.00  0.00     0.001 A 
HETATM   41  C   UNK N   1      26.027  15.631   2.055  0.00  0.00     0.012 A 
HETATM   42  C   UNK N   1      26.344  17.578   3.452  0.00  0.00     0.037 A 
ENDBRANCH  30  33
ENDBRANCH  28  30
ENDBRANCH   1  28
TORSDOF 10
ENDMDL
MODEL 3
REMARK VINA RESULT:      -7.2      5.567      8.963
REMARK  10 active torsions:
REMARK  status: ('A' for Active; 'I' for Inactive)
REMARK    1  A    between atoms: O_2  and  C_3 
REMARK    2  A    between atoms: C_3  and  C_5 
REMARK       I    between atoms: N_8  and  C_11 
REMARK    3  A    between atoms: C_11  and  C_13 
REMARK    4  A    between atoms: C_13  and  C_14 
REMARK    5  A    between atoms: C_13  and  N_25 
REMARK    6  A    between atoms: C_14  and  C_15 
REMARK    7  A    between atoms: C_19  and  C_21 
REMARK    8  A    between atoms: C_21  and  N_22 
REMARK    9  A    between atoms: N_25  and  S_26 
REMARK   10  A    between atoms: S_26  and  C_29 
ROOT
HETATM    1  C   UNK N   1      20.850  15.768   5.575  0.00  0.00     0.189 C 
ENDROOT
BRANCH   1   2
HETATM    2  C   UNK N   1      20.237  15.448   6.950  0.00  0.00     0.243 C 
HETATM    3  N   UNK N   1      20.905  14.836   7.989  0.00  0.00    -0.350 N 
HETATM    4  C   UNK N   1      20.228  14.727   9.278  0.00  0.00     0.127 C 
HETATM    5  C   UNK N   1      22.305  14.461   7.921  0.00  0.00     0.127 C 
HETATM    6  C   UNK N   1      20.518  13.390   9.955  0.00  0.00     0.034 C 
HETATM    7  C   UNK N   1      22.031  13.230  10.040  0.00  0.00     0.088 C 
HETATM    8  C   UNK N   1      22.565  13.130   8.617  0.00  0.00     0.034 C 
HETATM    9  O   UNK N   1      19.099  15.830   7.141  0.00  0.00    -0.271 OA
BRANCH   7  10
HETATM   10  C   UNK N   1      22.490  12.079  10.903  0.00  0.00     0.262 C 
HETATM   11  O   UNK N   1      23.022  11.107  10.389  0.00  0.00    -0.265 OA
BRANCH  10  12
HETATM   12  O   UNK N   1      22.286  12.082  12.245  0.00  0.00    -0.326 OA
HETATM   13  C   UNK N   1      23.298  11.910  13.161  0.00  0.00     0.213 C 
ENDBRANCH  10  12
ENDBRANCH   7  10
ENDBRANCH   1   2
BRANCH   1  14
HETATM   14  C   UNK N   1      20.738  14.694   4.502  0.00  0.00     0.074 C 
BRANCH  14  15
HETATM   15  C   UNK N   1      22.035  14.346   3.846  0.00  0.00    -0.055 A 
HETATM   16  C   UNK N   1      22.517  15.051   2.736  0.00  0.00     0.007 A 
HETATM   17  C   UNK N   1      23.742  14.713   2.162  0.00  0.00     0.002 A 
HETATM   18  C   UNK N   1      24.501  13.675   2.706  0.00  0.00     0.015 A 
HETATM   19  C   UNK N   1      24.035  12.970   3.826  0.00  0.00     0.007 A 
HETATM   20  C   UNK N   1      22.797  13.309   4.387  0.00  0.00     0.022 A 
BRANCH  19  21
HETATM   21  C   UNK N   1      24.842  11.888   4.422  0.00  0.00     0.102 C 
HETATM   22  N   UNK N   1      25.521  11.098   3.673  0.00  0.00    -0.385 N 
HETATM   23  H   UNK N   1      26.442  10.799   3.852  0.00  0.00     0.157 HD
ATOM     24  HN  UNK N   1      25.072  10.752   2.825  1.00  0.00     0.157 HD
BRANCH  21  25
HETATM   25  N   UNK N   1      24.898  11.732   5.826  0.00  0.00    -0.385 N 
HETATM   26  H   UNK N   1      24.303  11.268   6.459  0.00  0.00     0.157 HD
HETATM   27  H   UNK N   1      25.675  12.165   6.248  0.00  0.00     0.157 HD
ENDBRANCH  21  25
ENDBRANCH  19  21
ENDBRANCH  14  15
ENDBRANCH   1  14
BRANCH   1  28
HETATM   28  N   UNK N   1      20.333  17.017   5.027  0.00  0.00    -0.301 N 
HETATM   29  H   UNK N   1      19.427  17.115   4.567  0.00  0.00     0.173 HD
BRANCH  28  30
HETATM   30  S   UNK N   1      21.494  18.346   5.265  0.00  0.00     0.259 S 
HETATM   31  O   UNK N   1      21.322  18.660   6.759  0.00  0.00    -0.201 OA
HETATM   32  O   UNK N   1      20.946  19.628   4.619  0.00  0.00    -0.201 OA
BRANCH  30  33
HETATM   33  C   UNK N   1      23.209  17.960   4.978  0.00  0.00     0.080 A 
HETATM   34  C   UNK N   1      23.871  18.545   3.899  0.00  0.00     0.026 A 
HETATM   35  C   UNK N   1      25.126  18.092   3.502  0.00  0.00     0.014 A 
HETATM   36  C   UNK N   1      25.715  17.024   4.175  0.00  0.00    -0.026 A 
HETATM   37  C   UNK N   1      26.930  16.504   3.731  0.00  0.00     0.012 A 
HETATM   38  C   UNK N   1      25.063  16.446   5.289  0.00  0.00    -0.025 A 
HETATM   39  C   UNK N   1      27.500  15.411   4.388  0.00  0.00     0.001 A 
HETATM   40  C   UNK N   1      26.864  14.849   5.502  0.00  0.00     0.001 A 
HETATM   41  C   UNK N   1      25.646  15.367   5.952  0.00  0.00     0.012 A 
HETATM   42  C   UNK N   1      23.811  16.916   5.684  0.00  0.00     0.037 A 
ENDBRANCH  30  33
ENDBRANCH  28  30
ENDBRANCH   1  28
TORSDOF 10
ENDMDL
MODEL 4
REMARK VINA RESULT:      -7.1      3.823      8.884
REMARK  10 active torsions:
REMARK  status: ('A' for Active; 'I' for Inactive)
REMARK    1  A    between atoms: O_2  and  C_3 
REMARK    2  A    between atoms: C_3  and  C_5 
REMARK       I    between atoms: N_8  and  C_11 
REMARK    3  A    between atoms: C_11  and  C_13 
REMARK    4  A    between atoms: C_13  and  C_14 
REMARK    5  A    between atoms: C_13  and  N_25 
REMARK    6  A    between atoms: C_14  and  C_15 
REMARK    7  A    between atoms: C_19  and  C_21 
REMARK    8  A    between atoms: C_21  and  N_22 
REMARK    9  A    between atoms: N_25  and  S_26 
REMARK   10  A    between atoms: S_26  and  C_29 
ROOT
HETATM    1  C   UNK N   1      32.111  15.454   5.032  0.00  0.00     0.189 C 
ENDROOT
BRANCH   1   2
HETATM    2  C   UNK N   1      33.516  15.341   5.652  0.00  0.00     0.243 C 
HETATM    3  N   UNK N   1      33.775  15.026   6.969  0.00  0.00    -0.350 N 
HETATM    4  C   UNK N   1      35.164  14.821   7.371  0.00  0.00     0.127 C 
HETATM    5  C   UNK N   1      32.734  14.709   7.928  0.00  0.00     0.127 C 
HETATM    6  C   UNK N   1      35.439  15.398   8.757  0.00  0.00     0.034 C 
HETATM    7  C   UNK N   1      34.424  14.795   9.721  0.00  0.00     0.088 C 
HETATM    8  C   UNK N   1      33.044  15.286   9.305  0.00  0.00     0.034 C 
HETATM    9  O   UNK N   1      34.457  15.477   4.895  0.00  0.00    -0.271 OA
BRANCH   7  10
HETATM   10  C   UNK N   1      34.709  15.068  11.180  0.00  0.00     0.262 C 
HETATM   11  O   UNK N   1      35.139  16.159  11.523  0.00  0.00    -0.265 OA
BRANCH  10  12
HETATM   12  O   UNK N   1      34.536  14.105  12.121  0.00  0.00    -0.326 OA
HETATM   13  C   UNK N   1      35.037  12.829  11.993  0.00  0.00     0.213 C 
ENDBRANCH  10  12
ENDBRANCH   7  10
ENDBRANCH   1   2
BRANCH   1  14
HETATM   14  C   UNK N   1      31.588  16.856   4.757  0.00  0.00     0.074 C 
BRANCH  14  15
HETATM   15  C   UNK N   1      30.336  17.199   5.498  0.00  0.00    -0.055 A 
HETATM   16  C   UNK N   1      30.066  16.689   6.775  0.00  0.00     0.007 A 
HETATM   17  C   UNK N   1      28.898  17.047   7.446  0.00  0.00     0.002 A 
HETATM   18  C   UNK N   1      27.998  17.932   6.850  0.00  0.00     0.015 A 
HETATM   19  C   UNK N   1      28.263  18.460   5.577  0.00  0.00     0.007 A 
HETATM   20  C   UNK N   1      29.434  18.083   4.906  0.00  0.00     0.022 A 
BRANCH  19  21
HETATM   21  C   UNK N   1      27.329  19.415   4.950  0.00  0.00     0.102 C 
HETATM   22  N   UNK N   1      27.561  19.873   3.774  0.00  0.00    -0.385 N 
HETATM   23  H   UNK N   1      26.888  19.977   3.063  0.00  0.00     0.157 HD
ATOM     24  HN  UNK N   1      28.518  20.151   3.558  1.00  0.00     0.157 HD
BRANCH  21  25
HETATM   25  N   UNK N   1      26.154  19.811   5.629  0.00  0.00    -0.385 N 
HETATM   26  H   UNK N   1      25.247  20.021   5.306  0.00  0.00     0.157 HD
HETATM   27  H   UNK N   1      26.261  19.891   6.605  0.00  0.00     0.157 HD
ENDBRANCH  21  25
ENDBRANCH  19  21
ENDBRANCH  14  15
ENDBRANCH   1  14
BRANCH   1  28
HETATM   28  N   UNK N   1      31.995  14.673   3.805  0.00  0.00    -0.301 N 
HETATM   29  H   UNK N   1      32.602  14.780   2.993  0.00  0.00     0.173 HD
BRANCH  28  30
HETATM   30  S   UNK N   1      30.650  13.511   3.915  0.00  0.00     0.259 S 
HETATM   31  O   UNK N   1      30.851  12.917   5.317  0.00  0.00    -0.201 OA
HETATM   32  O   UNK N   1      30.948  12.295   3.024  0.00  0.00    -0.201 OA
BRANCH  30  33
HETATM   33  C   UNK N   1      29.006  14.193   3.836  0.00  0.00     0.080 A 
HETATM   34  C   UNK N   1      28.650  14.997   2.752  0.00  0.00     0.026 A 
HETATM   35  C   UNK N   1      27.471  15.735   2.771  0.00  0.00     0.014 A 
HETATM   36  C   UNK N   1      26.651  15.692   3.895  0.00  0.00    -0.026 A 
HETATM   37  C   UNK N   1      25.513  16.496   3.962  0.00  0.00     0.012 A 
HETATM   38  C   UNK N   1      26.990  14.856   4.984  0.00  0.00    -0.025 A 
HETATM   39  C   UNK N   1      24.712  16.474   5.106  0.00  0.00     0.001 A 
HETATM   40  C   UNK N   1      25.038  15.634   6.178  0.00  0.00     0.001 A 
HETATM   41  C   UNK N   1      26.175  14.824   6.116  0.00  0.00     0.012 A 
HETATM   42  C   UNK N   1      28.169  14.111   4.950  0.00  0.00     0.037 A 
ENDBRANCH  30  33
ENDBRANCH  28  30
ENDBRANCH   1  28
TORSDOF 10
ENDMDL
MODEL 5
REMARK VINA RESULT:      -7.1     11.673     15.764
REMARK  10 active torsions:
REMARK  status: ('A' for Active; 'I' for Inactive)
REMARK    1  A    between atoms: O_2  and  C_3 
REMARK    2  A    between atoms: C_3  and  C_5 
REMARK       I    between atoms: N_8  and  C_11 
REMARK    3  A    between atoms: C_11  and  C_13 
REMARK    4  A    between atoms: C_13  and  C_14 
REMARK    5  A    between atoms: C_13  and  N_25 
REMARK    6  A    between atoms: C_14  and  C_15 
REMARK    7  A    between atoms: C_19  and  C_21 
REMARK    8  A    between atoms: C_21  and  N_22 
REMARK    9  A    between atoms: N_25  and  S_26 
REMARK   10  A    between atoms: S_26  and  C_29 
ROOT
HETATM    1  C   UNK N   1      28.112  22.489  -8.030  0.00  0.00     0.189 C 
ENDROOT
BRANCH   1   2
HETATM    2  C   UNK N   1      29.115  21.354  -7.758  0.00  0.00     0.243 C 
HETATM    3  N   UNK N   1      29.770  21.148  -6.562  0.00  0.00    -0.350 N 
HETATM    4  C   UNK N   1      30.586  19.945  -6.418  0.00  0.00     0.127 C 
HETATM    5  C   UNK N   1      29.544  21.963  -5.384  0.00  0.00     0.127 C 
HETATM    6  C   UNK N   1      31.866  20.224  -5.637  0.00  0.00     0.034 C 
HETATM    7  C   UNK N   1      31.472  20.862  -4.310  0.00  0.00     0.088 C 
HETATM    8  C   UNK N   1      30.839  22.213  -4.617  0.00  0.00     0.034 C 
HETATM    9  O   UNK N   1      29.282  20.549  -8.653  0.00  0.00    -0.271 OA
BRANCH   7  10
HETATM   10  C   UNK N   1      32.600  20.976  -3.311  0.00  0.00     0.262 C 
HETATM   11  O   UNK N   1      32.452  21.644  -2.299  0.00  0.00    -0.265 OA
BRANCH  10  12
HETATM   12  O   UNK N   1      33.799  20.381  -3.536  0.00  0.00    -0.326 OA
HETATM   13  C   UNK N   1      34.920  21.073  -3.933  0.00  0.00     0.213 C 
ENDBRANCH  10  12
ENDBRANCH   7  10
ENDBRANCH   1   2
BRANCH   1  14
HETATM   14  C   UNK N   1      28.533  23.561  -9.024  0.00  0.00     0.074 C 
BRANCH  14  15
HETATM   15  C   UNK N   1      28.624  24.935  -8.443  0.00  0.00    -0.055 A 
HETATM   16  C   UNK N   1      28.057  26.048  -9.079  0.00  0.00     0.007 A 
HETATM   17  C   UNK N   1      28.142  27.312  -8.497  0.00  0.00     0.002 A 
HETATM   18  C   UNK N   1      28.781  27.469  -7.266  0.00  0.00     0.015 A 
HETATM   19  C   UNK N   1      29.342  26.360  -6.614  0.00  0.00     0.007 A 
HETATM   20  C   UNK N   1      29.262  25.096  -7.213  0.00  0.00     0.022 A 
BRANCH  19  21
HETATM   21  C   UNK N   1      29.997  26.513  -5.300  0.00  0.00     0.102 C 
HETATM   22  N   UNK N   1      30.991  25.767  -4.981  0.00  0.00    -0.385 N 
HETATM   23  H   UNK N   1      31.811  26.076  -4.533  0.00  0.00     0.157 HD
ATOM     24  HN  UNK N   1      30.927  24.775  -5.208  1.00  0.00     0.157 HD
BRANCH  21  25
HETATM   25  N   UNK N   1      29.554  27.505  -4.395  0.00  0.00    -0.385 N 
HETATM   26  H   UNK N   1      28.854  28.193  -4.467  0.00  0.00     0.157 HD
HETATM   27  H   UNK N   1      30.034  27.507  -3.535  0.00  0.00     0.157 HD
ENDBRANCH  21  25
ENDBRANCH  19  21
ENDBRANCH  14  15
ENDBRANCH   1  14
BRANCH   1  28
HETATM   28  N   UNK N   1      26.808  21.976  -8.435  0.00  0.00    -0.301 N 
HETATM   29  H   UNK N   1      26.668  21.218  -9.103  0.00  0.00     0.173 HD
BRANCH  28  30
HETATM   30  S   UNK N   1      25.494  22.852  -7.611  0.00  0.00     0.259 S 
HETATM   31  O   UNK N   1      24.728  21.711  -6.923  0.00  0.00    -0.201 OA
HETATM   32  O   UNK N   1      24.465  23.328  -8.648  0.00  0.00    -0.201 OA
BRANCH  30  33
HETATM   33  C   UNK N   1      25.985  24.019  -6.358  0.00  0.00     0.080 A 
HETATM   34  C   UNK N   1      26.478  23.549  -5.141  0.00  0.00     0.026 A 
HETATM   35  C   UNK N   1      26.646  24.410  -4.060  0.00  0.00     0.014 A 
HETATM   36  C   UNK N   1      26.292  25.751  -4.189  0.00  0.00    -0.026 A 
HETATM   37  C   UNK N   1      26.371  26.603  -3.089  0.00  0.00     0.012 A 
HETATM   38  C   UNK N   1      25.820  26.240  -5.429  0.00  0.00    -0.025 A 
HETATM   39  C   UNK N   1      25.982  27.939  -3.214  0.00  0.00     0.001 A 
HETATM   40  C   UNK N   1      25.532  28.429  -4.446  0.00  0.00     0.001 A 
HETATM   41  C   UNK N   1      25.452  27.580  -5.553  0.00  0.00     0.012 A 
HETATM   42  C   UNK N   1      25.667  25.370  -6.509  0.00  0.00     0.037 A 
ENDBRANCH  30  33
ENDBRANCH  28  30
ENDBRANCH   1  28
TORSDOF 10
ENDMDL
MODEL 6
REMARK VINA RESULT:      -7.1     12.081     15.891
REMARK  10 active torsions:
REMARK  status: ('A' for Active; 'I' for Inactive)
REMARK    1  A    between atoms: O_2  and  C_3 
REMARK    2  A    between atoms: C_3  and  C_5 
REMARK       I    between atoms: N_8  and  C_11 
REMARK    3  A    between atoms: C_11  and  C_13 
REMARK    4  A    between atoms: C_13  and  C_14 
REMARK    5  A    between atoms: C_13  and  N_25 
REMARK    6  A    between atoms: C_14  and  C_15 
REMARK    7  A    between atoms: C_19  and  C_21 
REMARK    8  A    between atoms: C_21  and  N_22 
REMARK    9  A    between atoms: N_25  and  S_26 
REMARK   10  A    between atoms: S_26  and  C_29 
ROOT
HETATM    1  C   UNK N   1      26.950  24.616  -5.235  0.00  0.00     0.189 C 
ENDROOT
BRANCH   1   2
HETATM    2  C   UNK N   1      27.507  24.124  -3.887  0.00  0.00     0.243 C 
HETATM    3  N   UNK N   1      28.814  23.750  -3.661  0.00  0.00    -0.350 N 
HETATM    4  C   UNK N   1      29.219  23.440  -2.293  0.00  0.00     0.127 C 
HETATM    5  C   UNK N   1      29.847  23.827  -4.677  0.00  0.00     0.127 C 
HETATM    6  C   UNK N   1      30.185  22.259  -2.246  0.00  0.00     0.034 C 
HETATM    7  C   UNK N   1      31.351  22.576  -3.176  0.00  0.00     0.088 C 
HETATM    8  C   UNK N   1      30.804  22.643  -4.596  0.00  0.00     0.034 C 
HETATM    9  O   UNK N   1      26.739  24.136  -2.945  0.00  0.00    -0.271 OA
BRANCH   7  10
HETATM   10  C   UNK N   1      32.518  21.624  -3.060  0.00  0.00     0.262 C 
HETATM   11  O   UNK N   1      32.906  21.267  -1.958  0.00  0.00    -0.265 OA
BRANCH  10  12
HETATM   12  O   UNK N   1      33.178  21.186  -4.162  0.00  0.00    -0.326 OA
HETATM   13  C   UNK N   1      34.521  20.881  -4.165  0.00  0.00     0.213 C 
ENDBRANCH  10  12
ENDBRANCH   7  10
ENDBRANCH   1   2
BRANCH   1  14
HETATM   14  C   UNK N   1      25.744  23.875  -5.796  0.00  0.00     0.074 C 
BRANCH  14  15
HETATM   15  C   UNK N   1      26.081  22.851  -6.831  0.00  0.00    -0.055 A 
HETATM   16  C   UNK N   1      25.132  22.389  -7.753  0.00  0.00     0.007 A 
HETATM   17  C   UNK N   1      25.486  21.448  -8.719  0.00  0.00     0.002 A 
HETATM   18  C   UNK N   1      26.798  20.975  -8.779  0.00  0.00     0.015 A 
HETATM   19  C   UNK N   1      27.760  21.440  -7.869  0.00  0.00     0.007 A 
HETATM   20  C   UNK N   1      27.390  22.376  -6.895  0.00  0.00     0.022 A 
BRANCH  19  21
HETATM   21  C   UNK N   1      29.155  20.963  -7.942  0.00  0.00     0.102 C 
HETATM   22  N   UNK N   1      29.416  19.709  -7.870  0.00  0.00    -0.385 N 
HETATM   23  H   UNK N   1      30.065  19.231  -8.436  0.00  0.00     0.157 HD
ATOM     24  HN  UNK N   1      28.912  19.163  -7.172  1.00  0.00     0.157 HD
BRANCH  21  25
HETATM   25  N   UNK N   1      30.214  21.883  -8.122  0.00  0.00    -0.385 N 
HETATM   26  H   UNK N   1      30.894  21.971  -8.829  0.00  0.00     0.157 HD
HETATM   27  H   UNK N   1      30.283  22.560  -7.411  0.00  0.00     0.157 HD
ENDBRANCH  21  25
ENDBRANCH  19  21
ENDBRANCH  14  15
ENDBRANCH   1  14
BRANCH   1  28
HETATM   28  N   UNK N   1      26.640  26.040  -5.208  0.00  0.00    -0.301 N 
HETATM   29  H   UNK N   1      26.084  26.497  -4.485  0.00  0.00     0.173 HD
BRANCH  28  30
HETATM   30  S   UNK N   1      27.358  26.876  -6.609  0.00  0.00     0.259 S 
HETATM   31  O   UNK N   1      28.861  26.754  -6.320  0.00  0.00    -0.201 OA
HETATM   32  O   UNK N   1      27.142  28.390  -6.468  0.00  0.00    -0.201 OA
BRANCH  30  33
HETATM   33  C   UNK N   1      27.043  26.154  -8.206  0.00  0.00     0.080 A 
HETATM   34  C   UNK N   1      25.746  26.163  -8.718  0.00  0.00     0.026 A 
HETATM   35  C   UNK N   1      25.417  25.408  -9.840  0.00  0.00     0.014 A 
HETATM   36  C   UNK N   1      26.389  24.613 -10.441  0.00  0.00    -0.026 A 
HETATM   37  C   UNK N   1      26.051  23.783 -11.510  0.00  0.00     0.012 A 
HETATM   38  C   UNK N   1      27.714  24.621  -9.946  0.00  0.00    -0.025 A 
HETATM   39  C   UNK N   1      27.021  22.962 -12.088  0.00  0.00     0.001 A 
HETATM   40  C   UNK N   1      28.337  22.983 -11.610  0.00  0.00     0.001 A 
HETATM   41  C   UNK N   1      28.683  23.813 -10.540  0.00  0.00     0.012 A 
HETATM   42  C   UNK N   1      28.034  25.392  -8.828  0.00  0.00     0.037 A 
ENDBRANCH  30  33
ENDBRANCH  28  30
ENDBRANCH   1  28
TORSDOF 10
ENDMDL
MODEL 7
REMARK VINA RESULT:      -7.0      7.786     11.259
REMARK  10 active torsions:
REMARK  status: ('A' for Active; 'I' for Inactive)
REMARK    1  A    between atoms: O_2  and  C_3 
REMARK    2  A    between atoms: C_3  and  C_5 
REMARK       I    between atoms: N_8  and  C_11 
REMARK    3  A    between atoms: C_11  and  C_13 
REMARK    4  A    between atoms: C_13  and  C_14 
REMARK    5  A    between atoms: C_13  and  N_25 
REMARK    6  A    between atoms: C_14  and  C_15 
REMARK    7  A    between atoms: C_19  and  C_21 
REMARK    8  A    between atoms: C_21  and  N_22 
REMARK    9  A    between atoms: N_25  and  S_26 
REMARK   10  A    between atoms: S_26  and  C_29 
ROOT
HETATM    1  C   UNK N   1      34.584  10.895  10.527  0.00  0.00     0.189 C 
ENDROOT
BRANCH   1   2
HETATM    2  C   UNK N   1      33.723  11.705   9.542  0.00  0.00     0.243 C 
HETATM    3  N   UNK N   1      34.073  12.925   9.005  0.00  0.00    -0.350 N 
HETATM    4  C   UNK N   1      33.211  13.502   7.977  0.00  0.00     0.127 C 
HETATM    5  C   UNK N   1      35.343  13.574   9.273  0.00  0.00     0.127 C 
HETATM    6  C   UNK N   1      33.082  15.015   8.135  0.00  0.00     0.034 C 
HETATM    7  C   UNK N   1      34.488  15.602   8.159  0.00  0.00     0.088 C 
HETATM    8  C   UNK N   1      35.184  15.084   9.412  0.00  0.00     0.034 C 
HETATM    9  O   UNK N   1      32.690  11.185   9.168  0.00  0.00    -0.271 OA
BRANCH   7  10
HETATM   10  C   UNK N   1      34.539  17.108   8.062  0.00  0.00     0.262 C 
HETATM   11  O   UNK N   1      34.519  17.785   9.078  0.00  0.00    -0.265 OA
BRANCH  10  12
HETATM   12  O   UNK N   1      34.563  17.733   6.857  0.00  0.00    -0.326 OA
HETATM   13  C   UNK N   1      33.616  17.524   5.880  0.00  0.00     0.213 C 
ENDBRANCH  10  12
ENDBRANCH   7  10
ENDBRANCH   1   2
BRANCH   1  14
HETATM   14  C   UNK N   1      33.883  10.328  11.754  0.00  0.00     0.074 C 
BRANCH  14  15
HETATM   15  C   UNK N   1      34.193  11.051  13.025  0.00  0.00    -0.055 A 
HETATM   16  C   UNK N   1      33.697  10.621  14.263  0.00  0.00     0.007 A 
HETATM   17  C   UNK N   1      34.024  11.307  15.432  0.00  0.00     0.002 A 
HETATM   18  C   UNK N   1      34.864  12.420  15.372  0.00  0.00     0.015 A 
HETATM   19  C   UNK N   1      35.378  12.853  14.139  0.00  0.00     0.007 A 
HETATM   20  C   UNK N   1      35.033  12.164  12.970  0.00  0.00     0.022 A 
BRANCH  19  21
HETATM   21  C   UNK N   1      36.287  14.014  14.071  0.00  0.00     0.102 C 
HETATM   22  N   UNK N   1      37.090  14.266  15.039  0.00  0.00    -0.385 N 
HETATM   23  H   UNK N   1      38.032  14.534  14.939  0.00  0.00     0.157 HD
ATOM     24  HN  UNK N   1      36.724  14.184  15.987  1.00  0.00     0.157 HD
BRANCH  21  25
HETATM   25  N   UNK N   1      36.301  14.840  12.924  0.00  0.00    -0.385 N 
HETATM   26  H   UNK N   1      35.818  14.783  12.067  0.00  0.00     0.157 HD
HETATM   27  H   UNK N   1      36.902  15.616  12.995  0.00  0.00     0.157 HD
ENDBRANCH  21  25
ENDBRANCH  19  21
ENDBRANCH  14  15
ENDBRANCH   1  14
BRANCH   1  28
HETATM   28  N   UNK N   1      35.292   9.807   9.863  0.00  0.00    -0.301 N 
HETATM   29  H   UNK N   1      34.942   9.302   9.048  0.00  0.00     0.173 HD
BRANCH  28  30
HETATM   30  S   UNK N   1      36.849   9.476  10.663  0.00  0.00     0.259 S 
HETATM   31  O   UNK N   1      37.442  10.886  10.808  0.00  0.00    -0.201 OA
HETATM   32  O   UNK N   1      37.819   8.840   9.656  0.00  0.00    -0.201 OA
BRANCH  30  33
HETATM   33  C   UNK N   1      36.765   8.745  12.285  0.00  0.00     0.080 A 
HETATM   34  C   UNK N   1      36.039   7.568  12.468  0.00  0.00     0.026 A 
HETATM   35  C   UNK N   1      35.752   7.100  13.747  0.00  0.00     0.014 A 
HETATM   36  C   UNK N   1      36.172   7.829  14.856  0.00  0.00    -0.026 A 
HETATM   37  C   UNK N   1      35.815   7.418  16.139  0.00  0.00     0.012 A 
HETATM   38  C   UNK N   1      36.935   9.007  14.678  0.00  0.00    -0.025 A 
HETATM   39  C   UNK N   1      36.210   8.173  17.247  0.00  0.00     0.001 A 
HETATM   40  C   UNK N   1      36.979   9.329  17.073  0.00  0.00     0.001 A 
HETATM   41  C   UNK N   1      37.343   9.746  15.789  0.00  0.00     0.012 A 
HETATM   42  C   UNK N   1      37.226   9.461  13.391  0.00  0.00     0.037 A 
ENDBRANCH  30  33
ENDBRANCH  28  30
ENDBRANCH   1  28
TORSDOF 10
ENDMDL
MODEL 8
REMARK VINA RESULT:      -7.0      6.568      9.669
REMARK  10 active torsions:
REMARK  status: ('A' for Active; 'I' for Inactive)
REMARK    1  A    between atoms: O_2  and  C_3 
REMARK    2  A    between atoms: C_3  and  C_5 
REMARK       I    between atoms: N_8  and  C_11 
REMARK    3  A    between atoms: C_11  and  C_13 
REMARK    4  A    between atoms: C_13  and  C_14 
REMARK    5  A    between atoms: C_13  and  N_25 
REMARK    6  A    between atoms: C_14  and  C_15 
REMARK    7  A    between atoms: C_19  and  C_21 
REMARK    8  A    between atoms: C_21  and  N_22 
REMARK    9  A    between atoms: N_25  and  S_26 
REMARK   10  A    between atoms: S_26  and  C_29 
ROOT
HETATM    1  C   UNK N   1      36.410  14.027  11.591  0.00  0.00     0.189 C 
ENDROOT
BRANCH   1   2
HETATM    2  C   UNK N   1      36.083  15.312  10.809  0.00  0.00     0.243 C 
HETATM    3  N   UNK N   1      34.860  15.604  10.244  0.00  0.00    -0.350 N 
HETATM    4  C   UNK N   1      34.667  16.925   9.654  0.00  0.00     0.127 C 
HETATM    5  C   UNK N   1      33.703  14.737  10.368  0.00  0.00     0.127 C 
HETATM    6  C   UNK N   1      33.839  16.855   8.374  0.00  0.00     0.034 C 
HETATM    7  C   UNK N   1      32.538  16.132   8.700  0.00  0.00     0.088 C 
HETATM    8  C   UNK N   1      32.888  14.699   9.079  0.00  0.00     0.034 C 
HETATM    9  O   UNK N   1      36.959  16.152  10.752  0.00  0.00    -0.271 OA
BRANCH   7  10
HETATM   10  C   UNK N   1      31.498  16.193   7.607  0.00  0.00     0.262 C 
HETATM   11  O   UNK N   1      31.365  15.253   6.839  0.00  0.00    -0.265 OA
BRANCH  10  12
HETATM   12  O   UNK N   1      30.728  17.298   7.431  0.00  0.00    -0.326 OA
HETATM   13  C   UNK N   1      29.733  17.669   8.307  0.00  0.00     0.213 C 
ENDBRANCH  10  12
ENDBRANCH   7  10
ENDBRANCH   1   2
BRANCH   1  14
HETATM   14  C   UNK N   1      37.432  13.084  10.973  0.00  0.00     0.074 C 
BRANCH  14  15
HETATM   15  C   UNK N   1      36.872  11.761  10.557  0.00  0.00    -0.055 A 
HETATM   16  C   UNK N   1      37.697  10.672  10.247  0.00  0.00     0.007 A 
HETATM   17  C   UNK N   1      37.140   9.446   9.883  0.00  0.00     0.002 A 
HETATM   18  C   UNK N   1      35.753   9.299   9.841  0.00  0.00     0.015 A 
HETATM   19  C   UNK N   1      34.917  10.379  10.161  0.00  0.00     0.007 A 
HETATM   20  C   UNK N   1      35.486  11.609  10.514  0.00  0.00     0.022 A 
BRANCH  19  21
HETATM   21  C   UNK N   1      33.449  10.224  10.144  0.00  0.00     0.102 C 
HETATM   22  N   UNK N   1      32.900   9.194  10.676  0.00  0.00    -0.385 N 
HETATM   23  H   UNK N   1      32.091   9.209  11.238  0.00  0.00     0.157 HD
ATOM     24  HN  UNK N   1      33.334   8.287  10.504  1.00  0.00     0.157 HD
BRANCH  21  25
HETATM   25  N   UNK N   1      32.634  11.224   9.566  0.00  0.00    -0.385 N 
HETATM   26  H   UNK N   1      32.140  11.979   9.962  0.00  0.00     0.157 HD
HETATM   27  H   UNK N   1      32.544  11.154   8.588  0.00  0.00     0.157 HD
ENDBRANCH  21  25
ENDBRANCH  19  21
ENDBRANCH  14  15
ENDBRANCH   1  14
BRANCH   1  28
HETATM   28  N   UNK N   1      36.821  14.314  12.960  0.00  0.00    -0.301 N 
HETATM   29  H   UNK N   1      37.481  15.045  13.224  0.00  0.00     0.173 HD
BRANCH  28  30
HETATM   30  S   UNK N   1      36.018  13.215  14.110  0.00  0.00     0.259 S 
HETATM   31  O   UNK N   1      34.564  13.239  13.616  0.00  0.00    -0.201 OA
HETATM   32  O   UNK N   1      35.887  13.908  15.475  0.00  0.00    -0.201 OA
BRANCH  30  33
HETATM   33  C   UNK N   1      36.574  11.523  14.107  0.00  0.00     0.080 A 
HETATM   34  C   UNK N   1      37.941  11.252  14.162  0.00  0.00     0.026 A 
HETATM   35  C   UNK N   1      38.423   9.968  13.923  0.00  0.00     0.014 A 
HETATM   36  C   UNK N   1      37.530   8.949  13.599  0.00  0.00    -0.026 A 
HETATM   37  C   UNK N   1      38.008   7.681  13.270  0.00  0.00     0.012 A 
HETATM   38  C   UNK N   1      36.141   9.210  13.571  0.00  0.00    -0.025 A 
HETATM   39  C   UNK N   1      37.111   6.671  12.912  0.00  0.00     0.001 A 
HETATM   40  C   UNK N   1      35.734   6.924  12.902  0.00  0.00     0.001 A 
HETATM   41  C   UNK N   1      35.249   8.192  13.232  0.00  0.00     0.012 A 
HETATM   42  C   UNK N   1      35.669  10.498  13.824  0.00  0.00     0.037 A 
ENDBRANCH  30  33
ENDBRANCH  28  30
ENDBRANCH   1  28
TORSDOF 10
ENDMDL
MODEL 9
REMARK VINA RESULT:      -6.9      7.642     10.458
REMARK  10 active torsions:
REMARK  status: ('A' for Active; 'I' for Inactive)
REMARK    1  A    between atoms: O_2  and  C_3 
REMARK    2  A    between atoms: C_3  and  C_5 
REMARK       I    between atoms: N_8  and  C_11 
REMARK    3  A    between atoms: C_11  and  C_13 
REMARK    4  A    between atoms: C_13  and  C_14 
REMARK    5  A    between atoms: C_13  and  N_25 
REMARK    6  A    between atoms: C_14  and  C_15 
REMARK    7  A    between atoms: C_19  and  C_21 
REMARK    8  A    between atoms: C_21  and  N_22 
REMARK    9  A    between atoms: N_25  and  S_26 
REMARK   10  A    between atoms: S_26  and  C_29 
ROOT
HETATM    1  C   UNK N   1      35.963  13.744  11.355  0.00  0.00     0.189 C 
ENDROOT
BRANCH   1   2
HETATM    2  C   UNK N   1      35.854  15.061  10.567  0.00  0.00     0.243 C 
HETATM    3  N   UNK N   1      34.683  15.586  10.063  0.00  0.00    -0.350 N 
HETATM    4  C   UNK N   1      34.724  16.914   9.458  0.00  0.00     0.127 C 
HETATM    5  C   UNK N   1      33.386  14.968  10.265  0.00  0.00     0.127 C 
HETATM    6  C   UNK N   1      33.828  16.999   8.225  0.00  0.00     0.034 C 
HETATM    7  C   UNK N   1      32.430  16.552   8.635  0.00  0.00     0.088 C 
HETATM    8  C   UNK N   1      32.510  15.081   9.022  0.00  0.00     0.034 C 
HETATM    9  O   UNK N   1      36.875  15.709  10.447  0.00  0.00    -0.271 OA
BRANCH   7  10
HETATM   10  C   UNK N   1      31.362  16.810   7.597  0.00  0.00     0.262 C 
HETATM   11  O   UNK N   1      31.482  16.348   6.473  0.00  0.00    -0.265 OA
BRANCH  10  12
HETATM   12  O   UNK N   1      30.284  17.585   7.878  0.00  0.00    -0.326 OA
HETATM   13  C   UNK N   1      30.222  18.423   8.968  0.00  0.00     0.213 C 
ENDBRANCH  10  12
ENDBRANCH   7  10
ENDBRANCH   1   2
BRANCH   1  14
HETATM   14  C   UNK N   1      36.015  12.456  10.545  0.00  0.00     0.074 C 
BRANCH  14  15
HETATM   15  C   UNK N   1      35.681  11.227  11.327  0.00  0.00    -0.055 A 
HETATM   16  C   UNK N   1      34.484  11.108  12.047  0.00  0.00     0.007 A 
HETATM   17  C   UNK N   1      34.195   9.938  12.748  0.00  0.00     0.002 A 
HETATM   18  C   UNK N   1      35.096   8.871  12.720  0.00  0.00     0.015 A 
HETATM   19  C   UNK N   1      36.291   8.973  11.992  0.00  0.00     0.007 A 
HETATM   20  C   UNK N   1      36.577  10.158  11.302  0.00  0.00     0.022 A 
BRANCH  19  21
HETATM   21  C   UNK N   1      37.237   7.841  11.937  0.00  0.00     0.102 C 
HETATM   22  N   UNK N   1      37.110   6.852  12.745  0.00  0.00    -0.385 N 
HETATM   23  H   UNK N   1      37.202   5.904  12.498  0.00  0.00     0.157 HD
ATOM     24  HN  UNK N   1      36.900   7.065  13.719  1.00  0.00     0.157 HD
BRANCH  21  25
HETATM   25  N   UNK N   1      38.271   7.823  10.974  0.00  0.00    -0.385 N 
HETATM   26  H   UNK N   1      38.510   7.168  10.278  0.00  0.00     0.157 HD
HETATM   27  H   UNK N   1      38.861   8.611  11.002  0.00  0.00     0.157 HD
ENDBRANCH  21  25
ENDBRANCH  19  21
ENDBRANCH  14  15
ENDBRANCH   1  14
BRANCH   1  28
HETATM   28  N   UNK N   1      37.096  13.752  12.273  0.00  0.00    -0.301 N 
HETATM   29  H   UNK N   1      38.073  13.815  11.985  0.00  0.00     0.173 HD
BRANCH  28  30
HETATM   30  S   UNK N   1      36.548  13.635  13.964  0.00  0.00     0.259 S 
HETATM   31  O   UNK N   1      35.025  13.780  13.820  0.00  0.00    -0.201 OA
HETATM   32  O   UNK N   1      36.908  14.928  14.711  0.00  0.00    -0.201 OA
BRANCH  30  33
HETATM   33  C   UNK N   1      36.877  12.095  14.798  0.00  0.00     0.080 A 
HETATM   34  C   UNK N   1      37.991  11.341  14.428  0.00  0.00     0.026 A 
HETATM   35  C   UNK N   1      38.150  10.035  14.881  0.00  0.00     0.014 A 
HETATM   36  C   UNK N   1      37.171   9.466  15.692  0.00  0.00    -0.026 A 
HETATM   37  C   UNK N   1      37.274   8.130  16.079  0.00  0.00     0.012 A 
HETATM   38  C   UNK N   1      36.055  10.234  16.096  0.00  0.00    -0.025 A 
HETATM   39  C   UNK N   1      36.273   7.554  16.864  0.00  0.00     0.001 A 
HETATM   40  C   UNK N   1      35.176   8.319  17.279  0.00  0.00     0.001 A 
HETATM   41  C   UNK N   1      35.068   9.659  16.896  0.00  0.00     0.012 A 
HETATM   42  C   UNK N   1      35.912  11.547  15.644  0.00  0.00     0.037 A 
ENDBRANCH  30  33
ENDBRANCH  28  30
ENDBRANCH   1  28
TORSDOF 10
ENDMDL
