MODEL 1
REMARK VINA RESULT:      -8.8      0.000      0.000
REMARK  18 active torsions:
REMARK  status: ('A' for Active; 'I' for Inactive)
REMARK    1  A    between atoms: C_20  and  C_13 
REMARK    2  A    between atoms: C_25  and  C_13 
REMARK    3  A    between atoms: C_19  and  C_17 
REMARK    4  A    between atoms: O_46  and  C_17 
REMARK    5  A    between atoms: O_37  and  C_18 
REMARK    6  A    between atoms: C_29  and  C_23 
REMARK    7  A    between atoms: C_24  and  N_35 
REMARK    8  A    between atoms: C_30  and  C_25 
REMARK    9  A    between atoms: C_25  and  N_33 
REMARK   10  A    between atoms: O_46  and  C_26 
REMARK   11  A    between atoms: P_47  and  C_27 
REMARK   12  A    between atoms: P_48  and  C_28 
REMARK   13  A    between atoms: O_38  and  C_29 
REMARK   14  A    between atoms: C_30  and  O_39 
REMARK   15  A    between atoms: P_47  and  O_40 
REMARK   16  A    between atoms: P_47  and  O_41 
REMARK   17  A    between atoms: P_48  and  O_43 
REMARK   18  A    between atoms: P_48  and  O_44 
ROOT
HETATM    1  C   UNK N   1      27.553  18.944   4.526  0.00  0.00     0.135 C 
HETATM    2  N   UNK N   1      28.029  17.798   4.855  0.00  0.00    -0.364 N 
ATOM      3  HN  UNK N   1      27.451  17.250   5.493  1.00  0.00     0.162 HD
ENDROOT
BRANCH   1   4
HETATM    4  C   UNK N   1      26.136  19.212   4.910  0.00  0.00     0.162 C 
BRANCH   4   5
HETATM    5  C   UNK N   1      25.476  17.829   4.717  0.00  0.00     0.072 C 
BRANCH   5   6
HETATM    6  C   UNK N   1      24.145  17.726   4.050  0.00  0.00    -0.055 A 
HETATM    7  C   UNK N   1      23.576  16.464   3.883  0.00  0.00     0.008 A 
HETATM    8  C   UNK N   1      22.300  16.335   3.337  0.00  0.00     0.021 A 
HETATM    9  C   UNK N   1      21.575  17.471   2.966  0.00  0.00     0.068 A 
HETATM   10  C   UNK N   1      22.148  18.750   3.147  0.00  0.00     0.068 A 
HETATM   11  C   UNK N   1      23.427  18.856   3.678  0.00  0.00     0.027 A 
BRANCH   9  12
HETATM   12  P   UNK N   1      19.917  17.229   2.218  0.00  0.00     0.272 P 
HETATM   13  O   UNK N   1      20.004  17.473   0.688  0.00  0.00    -0.650 OA
BRANCH  12  14
HETATM   14  O   UNK N   1      18.667  18.300   2.764  0.00  0.00    -0.326 OA
HETATM   15  H   UNK N   1      18.040  19.002   2.529  0.00  0.00     0.220 HD
ENDBRANCH  12  14
BRANCH  12  16
HETATM   16  O   UNK N   1      19.308  15.608   2.346  0.00  0.00    -0.326 OA
HETATM   17  H   UNK N   1      19.695  14.990   2.985  0.00  0.00     0.220 HD
ENDBRANCH  12  16
ENDBRANCH   9  12
BRANCH  10  18
HETATM   18  P   UNK N   1      21.275  20.319   2.771  0.00  0.00     0.272 P 
HETATM   19  O   UNK N   1      20.185  20.559   3.851  0.00  0.00    -0.650 OA
BRANCH  18  20
HETATM   20  O   UNK N   1      20.376  20.294   1.288  0.00  0.00    -0.326 OA
HETATM   21  H   UNK N   1      19.673  20.311   0.619  0.00  0.00     0.220 HD
ENDBRANCH  18  20
BRANCH  18  22
HETATM   22  O   UNK N   1      22.229  21.765   2.803  0.00  0.00    -0.326 OA
HETATM   23  H   UNK N   1      23.074  21.940   3.247  0.00  0.00     0.220 HD
ENDBRANCH  18  22
ENDBRANCH  10  18
ENDBRANCH   5   6
ENDBRANCH   4   5
BRANCH   4  24
HETATM   24  N   UNK N   1      26.089  19.625   6.307  0.00  0.00    -0.362 N 
HETATM   25  C   UNK N   1      26.341  20.814   6.741  0.00  0.00     0.107 C 
HETATM   26  C   UNK N   1      26.684  21.937   5.815  0.00  0.00     0.097 C 
ATOM     27  HN  UNK N   1      25.838  18.917   6.997  1.00  0.00     0.162 HD
BRANCH  25  28
HETATM   28  O   UNK N   1      26.281  21.055   8.064  0.00  0.00    -0.350 OA
HETATM   29  H   UNK N   1      26.789  21.045   8.851  0.00  0.00     0.219 HD
ENDBRANCH  25  28
ENDBRANCH   4  24
ENDBRANCH   1   4
BRANCH   1  30
HETATM   30  O   UNK N   1      28.259  19.827   3.791  0.00  0.00    -0.348 OA
HETATM   31  H   UNK N   1      28.124  20.681   3.431  0.00  0.00     0.219 HD
ENDBRANCH   1  30
BRANCH   2  32
HETATM   32  C   UNK N   1      29.260  17.178   4.450  0.00  0.00     0.117 C 
HETATM   33  C   UNK N   1      29.258  16.529   3.060  0.00  0.00     0.030 C 
HETATM   34  C   UNK N   1      28.797  15.077   3.030  0.00  0.00     0.003 C 
HETATM   35  C   UNK N   1      29.709  14.113   3.800  0.00  0.00     0.005 C 
HETATM   36  C   UNK N   1      31.049  14.730   4.213  0.00  0.00     0.039 C 
HETATM   37  C   UNK N   1      30.889  15.484   5.496  0.00  0.00    -0.047 C 
HETATM   38  C   UNK N   1      31.744  15.191   6.557  0.00  0.00     0.045 C 
HETATM   39  C   UNK N   1      29.966  16.542   5.629  0.00  0.00    -0.028 C 
HETATM   40  C   UNK N   1      31.652  15.886   7.783  0.00  0.00     0.083 C 
HETATM   41  C   UNK N   1      30.606  16.816   7.972  0.00  0.00     0.048 C 
HETATM   42  C   UNK N   1      29.814  17.154   6.888  0.00  0.00     0.028 C 
BRANCH  40  43
HETATM   43  O   UNK N   1      32.571  15.722   8.743  0.00  0.00    -0.350 OA
BRANCH  43  44
HETATM   44  C   UNK N   1      33.825  16.295   8.690  0.00  0.00     0.180 C 
BRANCH  44  45
HETATM   45  C   UNK N   1      34.787  15.499   9.535  0.00  0.00     0.010 C 
HETATM   46  C   UNK N   1      34.107  14.187   9.913  0.00  0.00     0.007 C 
HETATM   47  C   UNK N   1      34.966  13.404  10.890  0.00  0.00     0.000 C 
HETATM   48  C   UNK N   1      35.202  14.242  12.140  0.00  0.00     0.000 C 
HETATM   49  C   UNK N   1      35.962  15.509  11.769  0.00  0.00     0.000 C 
HETATM   50  C   UNK N   1      35.155  16.328  10.773  0.00  0.00     0.007 C 
ENDBRANCH  44  45
ENDBRANCH  43  44
ENDBRANCH  40  43
BRANCH  41  51
HETATM   51  C   UNK N   1      30.394  17.509   9.281  0.00  0.00     0.146 C 
HETATM   52  N   UNK N   1      30.577  18.758   9.419  0.00  0.00    -0.379 N 
HETATM   53  H   UNK N   1      30.345  19.199  10.268  0.00  0.00     0.158 HD
ATOM     54  HN  UNK N   1      30.964  19.304   8.650  1.00  0.00     0.158 HD
BRANCH  51  55
HETATM   55  O   UNK N   1      30.032  16.775  10.359  0.00  0.00    -0.346 OA
HETATM   56  H   UNK N   1      30.601  16.108  10.691  0.00  0.00     0.219 HD
ENDBRANCH  51  55
ENDBRANCH  41  51
ENDBRANCH   2  32
TORSDOF 18
ENDMDL
MODEL 2
REMARK VINA RESULT:      -8.5      5.802     12.870
REMARK  18 active torsions:
REMARK  status: ('A' for Active; 'I' for Inactive)
REMARK    1  A    between atoms: C_20  and  C_13 
REMARK    2  A    between atoms: C_25  and  C_13 
REMARK    3  A    between atoms: C_19  and  C_17 
REMARK    4  A    between atoms: O_46  and  C_17 
REMARK    5  A    between atoms: O_37  and  C_18 
REMARK    6  A    between atoms: C_29  and  C_23 
REMARK    7  A    between atoms: C_24  and  N_35 
REMARK    8  A    between atoms: C_30  and  C_25 
REMARK    9  A    between atoms: C_25  and  N_33 
REMARK   10  A    between atoms: O_46  and  C_26 
REMARK   11  A    between atoms: P_47  and  C_27 
REMARK   12  A    between atoms: P_48  and  C_28 
REMARK   13  A    between atoms: O_38  and  C_29 
REMARK   14  A    between atoms: C_30  and  O_39 
REMARK   15  A    between atoms: P_47  and  O_40 
REMARK   16  A    between atoms: P_47  and  O_41 
REMARK   17  A    between atoms: P_48  and  O_43 
REMARK   18  A    between atoms: P_48  and  O_44 
ROOT
HETATM    1  C   UNK N   1      32.967  14.465   8.406  0.00  0.00     0.135 C 
HETATM    2  N   UNK N   1      32.783  15.417   7.563  0.00  0.00    -0.364 N 
ATOM      3  HN  UNK N   1      33.281  16.284   7.765  1.00  0.00     0.162 HD
ENDROOT
BRANCH   1   4
HETATM    4  C   UNK N   1      34.057  14.663   9.406  0.00  0.00     0.162 C 
BRANCH   4   5
HETATM    5  C   UNK N   1      35.097  13.607   8.973  0.00  0.00     0.072 C 
BRANCH   5   6
HETATM    6  C   UNK N   1      35.547  12.565   9.942  0.00  0.00    -0.055 A 
HETATM    7  C   UNK N   1      36.147  11.407   9.449  0.00  0.00     0.008 A 
HETATM    8  C   UNK N   1      36.652  10.449  10.326  0.00  0.00     0.021 A 
HETATM    9  C   UNK N   1      36.574  10.648  11.708  0.00  0.00     0.068 A 
HETATM   10  C   UNK N   1      35.978  11.828  12.206  0.00  0.00     0.068 A 
HETATM   11  C   UNK N   1      35.467  12.763  11.315  0.00  0.00     0.027 A 
BRANCH   9  12
HETATM   12  P   UNK N   1      37.224   9.331  12.806  0.00  0.00     0.272 P 
HETATM   13  O   UNK N   1      37.898   8.230  11.945  0.00  0.00    -0.650 OA
BRANCH  12  14
HETATM   14  O   UNK N   1      36.050   8.483  13.762  0.00  0.00    -0.326 OA
HETATM   15  H   UNK N   1      35.890   7.811  14.443  0.00  0.00     0.220 HD
ENDBRANCH  12  14
BRANCH  12  16
HETATM   16  O   UNK N   1      38.487   9.854  13.876  0.00  0.00    -0.326 OA
HETATM   17  H   UNK N   1      38.374  10.656  14.410  0.00  0.00     0.220 HD
ENDBRANCH  12  16
ENDBRANCH   9  12
BRANCH  10  18
HETATM   18  P   UNK N   1      35.880  12.245  13.989  0.00  0.00     0.272 P 
HETATM   19  O   UNK N   1      35.047  13.545  14.158  0.00  0.00    -0.650 OA
BRANCH  18  20
HETATM   20  O   UNK N   1      37.407  12.649  14.708  0.00  0.00    -0.326 OA
HETATM   21  H   UNK N   1      38.191  12.690  15.278  0.00  0.00     0.220 HD
ENDBRANCH  18  20
BRANCH  18  22
HETATM   22  O   UNK N   1      35.085  11.096  15.014  0.00  0.00    -0.326 OA
HETATM   23  H   UNK N   1      34.794  10.191  14.819  0.00  0.00     0.220 HD
ENDBRANCH  18  22
ENDBRANCH  10  18
ENDBRANCH   5   6
ENDBRANCH   4   5
BRANCH   4  24
HETATM   24  N   UNK N   1      34.591  16.012   9.269  0.00  0.00    -0.362 N 
HETATM   25  C   UNK N   1      35.175  16.681  10.205  0.00  0.00     0.107 C 
HETATM   26  C   UNK N   1      35.402  16.103  11.565  0.00  0.00     0.097 C 
ATOM     27  HN  UNK N   1      34.495  16.465   8.359  1.00  0.00     0.162 HD
BRANCH  25  28
HETATM   28  O   UNK N   1      35.605  17.930   9.947  0.00  0.00    -0.350 OA
HETATM   29  H   UNK N   1      36.378  18.449   9.837  0.00  0.00     0.219 HD
ENDBRANCH  25  28
ENDBRANCH   4  24
ENDBRANCH   1   4
BRANCH   1  30
HETATM   30  O   UNK N   1      32.280  13.307   8.337  0.00  0.00    -0.348 OA
HETATM   31  H   UNK N   1      32.389  12.428   8.641  0.00  0.00     0.219 HD
ENDBRANCH   1  30
BRANCH   2  32
HETATM   32  C   UNK N   1      31.973  15.431   6.376  0.00  0.00     0.117 C 
HETATM   33  C   UNK N   1      32.676  15.006   5.081  0.00  0.00     0.030 C 
HETATM   34  C   UNK N   1      33.374  16.133   4.329  0.00  0.00     0.003 C 
HETATM   35  C   UNK N   1      32.425  17.218   3.803  0.00  0.00     0.005 C 
HETATM   36  C   UNK N   1      30.945  16.832   3.880  0.00  0.00     0.039 C 
HETATM   37  C   UNK N   1      30.410  17.132   5.245  0.00  0.00    -0.047 C 
HETATM   38  C   UNK N   1      29.264  17.918   5.359  0.00  0.00     0.045 C 
HETATM   39  C   UNK N   1      30.975  16.570   6.408  0.00  0.00    -0.028 C 
HETATM   40  C   UNK N   1      28.704  18.215   6.621  0.00  0.00     0.083 C 
HETATM   41  C   UNK N   1      29.379  17.802   7.790  0.00  0.00     0.048 C 
HETATM   42  C   UNK N   1      30.471  16.960   7.664  0.00  0.00     0.028 C 
BRANCH  40  43
HETATM   43  O   UNK N   1      27.519  18.829   6.725  0.00  0.00    -0.350 OA
BRANCH  43  44
HETATM   44  C   UNK N   1      27.349  20.181   6.512  0.00  0.00     0.180 C 
BRANCH  44  45
HETATM   45  C   UNK N   1      26.321  20.404   5.433  0.00  0.00     0.010 C 
HETATM   46  C   UNK N   1      25.426  19.170   5.374  0.00  0.00     0.007 C 
HETATM   47  C   UNK N   1      24.462  19.267   4.204  0.00  0.00     0.000 C 
HETATM   48  C   UNK N   1      25.251  19.396   2.908  0.00  0.00     0.000 C 
HETATM   49  C   UNK N   1      26.074  20.678   2.936  0.00  0.00     0.000 C 
HETATM   50  C   UNK N   1      27.048  20.645   4.103  0.00  0.00     0.007 C 
ENDBRANCH  44  45
ENDBRANCH  43  44
ENDBRANCH  40  43
BRANCH  41  51
HETATM   51  C   UNK N   1      28.893  18.173   9.155  0.00  0.00     0.146 C 
HETATM   52  N   UNK N   1      29.690  18.488  10.092  0.00  0.00    -0.379 N 
HETATM   53  H   UNK N   1      29.337  18.811  10.952  0.00  0.00     0.158 HD
ATOM     54  HN  UNK N   1      30.697  18.407   9.953  1.00  0.00     0.158 HD
BRANCH  51  55
HETATM   55  O   UNK N   1      27.564  18.133   9.409  0.00  0.00    -0.346 OA
HETATM   56  H   UNK N   1      27.012  17.524   8.958  0.00  0.00     0.219 HD
ENDBRANCH  51  55
ENDBRANCH  41  51
ENDBRANCH   2  32
TORSDOF 18
ENDMDL
MODEL 3
REMARK VINA RESULT:      -8.3      2.330      3.701
REMARK  18 active torsions:
REMARK  status: ('A' for Active; 'I' for Inactive)
REMARK    1  A    between atoms: C_20  and  C_13 
REMARK    2  A    between atoms: C_25  and  C_13 
REMARK    3  A    between atoms: C_19  and  C_17 
REMARK    4  A    between atoms: O_46  and  C_17 
REMARK    5  A    between atoms: O_37  and  C_18 
REMARK    6  A    between atoms: C_29  and  C_23 
REMARK    7  A    between atoms: C_24  and  N_35 
REMARK    8  A    between atoms: C_30  and  C_25 
REMARK    9  A    between atoms: C_25  and  N_33 
REMARK   10  A    between atoms: O_46  and  C_26 
REMARK   11  A    between atoms: P_47  and  C_27 
REMARK   12  A    between atoms: P_48  and  C_28 
REMARK   13  A    between atoms: O_38  and  C_29 
REMARK   14  A    between atoms: C_30  and  O_39 
REMARK   15  A    between atoms: P_47  and  O_40 
REMARK   16  A    between atoms: P_47  and  O_41 
REMARK   17  A    between atoms: P_48  and  O_43 
REMARK   18  A    between atoms: P_48  and  O_44 
ROOT
HETATM    1  C   UNK N   1      26.935  16.891   5.864  0.00  0.00     0.135 C 
HETATM    2  N   UNK N   1      27.982  17.491   6.305  0.00  0.00    -0.364 N 
ATOM      3  HN  UNK N   1      28.127  18.437   5.952  1.00  0.00     0.162 HD
ENDROOT
BRANCH   1   4
HETATM    4  C   UNK N   1      25.958  17.727   5.108  0.00  0.00     0.162 C 
BRANCH   4   5
HETATM    5  C   UNK N   1      24.623  17.001   5.382  0.00  0.00     0.072 C 
BRANCH   5   6
HETATM    6  C   UNK N   1      23.510  17.090   4.390  0.00  0.00    -0.055 A 
HETATM    7  C   UNK N   1      22.907  15.912   3.954  0.00  0.00     0.008 A 
HETATM    8  C   UNK N   1      21.812  15.960   3.091  0.00  0.00     0.021 A 
HETATM    9  C   UNK N   1      21.304  17.191   2.668  0.00  0.00     0.068 A 
HETATM   10  C   UNK N   1      21.909  18.385   3.121  0.00  0.00     0.068 A 
HETATM   11  C   UNK N   1      23.007  18.315   3.968  0.00  0.00     0.027 A 
BRANCH   9  12
HETATM   12  P   UNK N   1      19.887  17.183   1.502  0.00  0.00     0.272 P 
HETATM   13  O   UNK N   1      20.374  17.634   0.099  0.00  0.00    -0.650 OA
BRANCH  12  14
HETATM   14  O   UNK N   1      18.579  18.258   1.880  0.00  0.00    -0.326 OA
HETATM   15  H   UNK N   1      17.806  18.742   1.550  0.00  0.00     0.220 HD
ENDBRANCH  12  14
BRANCH  12  16
HETATM   16  O   UNK N   1      19.206  15.611   1.220  0.00  0.00    -0.326 OA
HETATM   17  H   UNK N   1      18.832  15.390   0.354  0.00  0.00     0.220 HD
ENDBRANCH  12  16
ENDBRANCH   9  12
BRANCH  10  18
HETATM   18  P   UNK N   1      21.294  20.061   2.701  0.00  0.00     0.272 P 
HETATM   19  O   UNK N   1      22.478  21.064   2.771  0.00  0.00    -0.650 OA
BRANCH  18  20
HETATM   20  O   UNK N   1      20.153  20.704   3.839  0.00  0.00    -0.326 OA
HETATM   21  H   UNK N   1      19.438  20.817   4.485  0.00  0.00     0.220 HD
ENDBRANCH  18  20
BRANCH  18  22
HETATM   22  O   UNK N   1      20.650  20.276   1.106  0.00  0.00    -0.326 OA
HETATM   23  H   UNK N   1      20.300  21.075   0.682  0.00  0.00     0.220 HD
ENDBRANCH  18  22
ENDBRANCH  10  18
ENDBRANCH   5   6
ENDBRANCH   4   5
BRANCH   4  24
HETATM   24  N   UNK N   1      25.947  19.073   5.669  0.00  0.00    -0.362 N 
HETATM   25  C   UNK N   1      26.236  20.152   5.023  0.00  0.00     0.107 C 
HETATM   26  C   UNK N   1      26.590  20.131   3.569  0.00  0.00     0.097 C 
ATOM     27  HN  UNK N   1      25.691  19.170   6.651  1.00  0.00     0.162 HD
BRANCH  25  28
HETATM   28  O   UNK N   1      26.205  21.331   5.670  0.00  0.00    -0.350 OA
HETATM   29  H   UNK N   1      25.632  21.935   6.102  0.00  0.00     0.219 HD
ENDBRANCH  25  28
ENDBRANCH   4  24
ENDBRANCH   1   4
BRANCH   1  30
HETATM   30  O   UNK N   1      26.682  15.597   6.146  0.00  0.00    -0.348 OA
HETATM   31  H   UNK N   1      26.061  15.117   6.657  0.00  0.00     0.219 HD
ENDBRANCH   1  30
BRANCH   2  32
HETATM   32  C   UNK N   1      28.977  17.017   7.227  0.00  0.00     0.117 C 
HETATM   33  C   UNK N   1      28.700  17.288   8.711  0.00  0.00     0.030 C 
HETATM   34  C   UNK N   1      29.209  18.629   9.224  0.00  0.00     0.003 C 
HETATM   35  C   UNK N   1      30.735  18.779   9.181  0.00  0.00     0.005 C 
HETATM   36  C   UNK N   1      31.475  17.468   8.902  0.00  0.00     0.039 C 
HETATM   37  C   UNK N   1      31.533  17.219   7.427  0.00  0.00    -0.047 C 
HETATM   38  C   UNK N   1      32.772  16.975   6.836  0.00  0.00     0.045 C 
HETATM   39  C   UNK N   1      30.368  17.134   6.639  0.00  0.00    -0.028 C 
HETATM   40  C   UNK N   1      32.883  16.714   5.453  0.00  0.00     0.083 C 
HETATM   41  C   UNK N   1      31.735  16.811   4.638  0.00  0.00     0.048 C 
HETATM   42  C   UNK N   1      30.502  16.978   5.245  0.00  0.00     0.028 C 
BRANCH  40  43
HETATM   43  O   UNK N   1      34.044  16.320   4.914  0.00  0.00    -0.350 OA
BRANCH  43  44
HETATM   44  C   UNK N   1      34.527  15.032   5.024  0.00  0.00     0.180 C 
BRANCH  44  45
HETATM   45  C   UNK N   1      35.648  14.991   6.031  0.00  0.00     0.010 C 
HETATM   46  C   UNK N   1      36.825  14.260   5.393  0.00  0.00     0.007 C 
HETATM   47  C   UNK N   1      37.935  14.050   6.409  0.00  0.00     0.000 C 
HETATM   48  C   UNK N   1      37.399  13.242   7.584  0.00  0.00     0.000 C 
HETATM   49  C   UNK N   1      36.283  14.019   8.272  0.00  0.00     0.000 C 
HETATM   50  C   UNK N   1      35.148  14.275   7.293  0.00  0.00     0.007 C 
ENDBRANCH  44  45
ENDBRANCH  43  44
ENDBRANCH  40  43
BRANCH  41  51
HETATM   51  C   UNK N   1      31.804  16.647   3.153  0.00  0.00     0.146 C 
HETATM   52  N   UNK N   1      30.812  16.893   2.400  0.00  0.00    -0.379 N 
HETATM   53  H   UNK N   1      30.915  16.859   1.422  0.00  0.00     0.158 HD
ATOM     54  HN  UNK N   1      29.907  17.126   2.810  1.00  0.00     0.158 HD
BRANCH  51  55
HETATM   55  O   UNK N   1      32.950  16.184   2.599  0.00  0.00    -0.346 OA
HETATM   56  H   UNK N   1      32.923  15.530   1.929  0.00  0.00     0.219 HD
ENDBRANCH  51  55
ENDBRANCH  41  51
ENDBRANCH   2  32
TORSDOF 18
ENDMDL
MODEL 4
REMARK VINA RESULT:      -8.3      5.432      9.259
REMARK  18 active torsions:
REMARK  status: ('A' for Active; 'I' for Inactive)
REMARK    1  A    between atoms: C_20  and  C_13 
REMARK    2  A    between atoms: C_25  and  C_13 
REMARK    3  A    between atoms: C_19  and  C_17 
REMARK    4  A    between atoms: O_46  and  C_17 
REMARK    5  A    between atoms: O_37  and  C_18 
REMARK    6  A    between atoms: C_29  and  C_23 
REMARK    7  A    between atoms: C_24  and  N_35 
REMARK    8  A    between atoms: C_30  and  C_25 
REMARK    9  A    between atoms: C_25  and  N_33 
REMARK   10  A    between atoms: O_46  and  C_26 
REMARK   11  A    between atoms: P_47  and  C_27 
REMARK   12  A    between atoms: P_48  and  C_28 
REMARK   13  A    between atoms: O_38  and  C_29 
REMARK   14  A    between atoms: C_30  and  O_39 
REMARK   15  A    between atoms: P_47  and  O_40 
REMARK   16  A    between atoms: P_47  and  O_41 
REMARK   17  A    between atoms: P_48  and  O_43 
REMARK   18  A    between atoms: P_48  and  O_44 
ROOT
HETATM    1  C   UNK N   1      34.885  13.566   8.360  0.00  0.00     0.135 C 
HETATM    2  N   UNK N   1      34.508  12.837   9.349  0.00  0.00    -0.364 N 
ATOM      3  HN  UNK N   1      33.963  13.318  10.065  1.00  0.00     0.162 HD
ENDROOT
BRANCH   1   4
HETATM    4  C   UNK N   1      34.277  14.926   8.266  0.00  0.00     0.162 C 
BRANCH   4   5
HETATM    5  C   UNK N   1      32.795  14.647   8.596  0.00  0.00     0.072 C 
BRANCH   5   6
HETATM    6  C   UNK N   1      31.720  15.402   7.887  0.00  0.00    -0.055 A 
HETATM    7  C   UNK N   1      31.410  15.051   6.574  0.00  0.00     0.008 A 
HETATM    8  C   UNK N   1      30.359  15.679   5.907  0.00  0.00     0.021 A 
HETATM    9  C   UNK N   1      29.598  16.656   6.556  0.00  0.00     0.068 A 
HETATM   10  C   UNK N   1      29.906  17.003   7.891  0.00  0.00     0.068 A 
HETATM   11  C   UNK N   1      30.967  16.376   8.532  0.00  0.00     0.027 A 
BRANCH   9  12
HETATM   12  P   UNK N   1      28.255  17.471   5.610  0.00  0.00     0.272 P 
HETATM   13  O   UNK N   1      27.968  16.657   4.320  0.00  0.00    -0.650 OA
BRANCH  12  14
HETATM   14  O   UNK N   1      28.579  19.081   5.051  0.00  0.00    -0.326 OA
HETATM   15  H   UNK N   1      28.358  19.779   4.414  0.00  0.00     0.220 HD
ENDBRANCH  12  14
BRANCH  12  16
HETATM   16  O   UNK N   1      26.725  17.502   6.429  0.00  0.00    -0.326 OA
HETATM   17  H   UNK N   1      26.010  18.073   6.108  0.00  0.00     0.220 HD
ENDBRANCH  12  16
ENDBRANCH   9  12
BRANCH  10  18
HETATM   18  P   UNK N   1      28.942  18.211   8.878  0.00  0.00     0.272 P 
HETATM   19  O   UNK N   1      28.646  19.457   7.998  0.00  0.00    -0.650 OA
BRANCH  18  20
HETATM   20  O   UNK N   1      29.803  18.870  10.232  0.00  0.00    -0.326 OA
HETATM   21  H   UNK N   1      30.348  18.990  11.026  0.00  0.00     0.220 HD
ENDBRANCH  18  20
BRANCH  18  22
HETATM   22  O   UNK N   1      27.380  17.698   9.424  0.00  0.00    -0.326 OA
HETATM   23  H   UNK N   1      27.134  17.213  10.228  0.00  0.00     0.220 HD
ENDBRANCH  18  22
ENDBRANCH  10  18
ENDBRANCH   5   6
ENDBRANCH   4   5
BRANCH   4  24
HETATM   24  N   UNK N   1      34.884  15.791   9.270  0.00  0.00    -0.362 N 
HETATM   25  C   UNK N   1      34.961  17.077   9.198  0.00  0.00     0.107 C 
HETATM   26  C   UNK N   1      34.380  17.839   8.050  0.00  0.00     0.097 C 
ATOM     27  HN  UNK N   1      35.282  15.343  10.096  1.00  0.00     0.162 HD
BRANCH  25  28
HETATM   28  O   UNK N   1      35.568  17.754  10.190  0.00  0.00    -0.350 OA
HETATM   29  H   UNK N   1      35.413  18.180  11.010  0.00  0.00     0.219 HD
ENDBRANCH  25  28
ENDBRANCH   4  24
ENDBRANCH   1   4
BRANCH   1  30
HETATM   30  O   UNK N   1      35.714  13.100   7.404  0.00  0.00    -0.348 OA
HETATM   31  H   UNK N   1      35.660  12.504   6.683  0.00  0.00     0.219 HD
ENDBRANCH   1  30
BRANCH   2  32
HETATM   32  C   UNK N   1      34.746  11.440   9.587  0.00  0.00     0.117 C 
HETATM   33  C   UNK N   1      34.085  10.471   8.599  0.00  0.00     0.030 C 
HETATM   34  C   UNK N   1      32.669  10.046   8.966  0.00  0.00     0.003 C 
HETATM   35  C   UNK N   1      32.573   9.244  10.271  0.00  0.00     0.005 C 
HETATM   36  C   UNK N   1      33.929   8.778  10.808  0.00  0.00     0.039 C 
HETATM   37  C   UNK N   1      34.560   9.870  11.615  0.00  0.00    -0.047 C 
HETATM   38  C   UNK N   1      34.982   9.587  12.913  0.00  0.00     0.045 C 
HETATM   39  C   UNK N   1      34.823  11.143  11.069  0.00  0.00    -0.028 C 
HETATM   40  C   UNK N   1      35.602  10.573  13.711  0.00  0.00     0.083 C 
HETATM   41  C   UNK N   1      35.696  11.895  13.225  0.00  0.00     0.048 C 
HETATM   42  C   UNK N   1      35.345  12.146  11.909  0.00  0.00     0.028 C 
BRANCH  40  43
HETATM   43  O   UNK N   1      36.153  10.263  14.892  0.00  0.00    -0.350 OA
BRANCH  43  44
HETATM   44  C   UNK N   1      35.409  10.003  16.024  0.00  0.00     0.180 C 
BRANCH  44  45
HETATM   45  C   UNK N   1      35.915  10.838  17.172  0.00  0.00     0.010 C 
HETATM   46  C   UNK N   1      35.857   9.985  18.436  0.00  0.00     0.007 C 
HETATM   47  C   UNK N   1      36.211  10.816  19.657  0.00  0.00     0.000 C 
HETATM   48  C   UNK N   1      35.238  11.982  19.774  0.00  0.00     0.000 C 
HETATM   49  C   UNK N   1      35.367  12.880  18.550  0.00  0.00     0.000 C 
HETATM   50  C   UNK N   1      35.040  12.093  17.291  0.00  0.00     0.007 C 
ENDBRANCH  44  45
ENDBRANCH  43  44
ENDBRANCH  40  43
BRANCH  41  51
HETATM   51  C   UNK N   1      36.249  13.006  14.061  0.00  0.00     0.146 C 
HETATM   52  N   UNK N   1      37.414  12.956  14.563  0.00  0.00    -0.379 N 
HETATM   53  H   UNK N   1      37.782  13.738  15.034  0.00  0.00     0.158 HD
ATOM     54  HN  UNK N   1      37.969  12.105  14.477  1.00  0.00     0.158 HD
BRANCH  51  55
HETATM   55  O   UNK N   1      35.467  14.080  14.321  0.00  0.00    -0.346 OA
HETATM   56  H   UNK N   1      34.586  13.965  14.619  0.00  0.00     0.219 HD
ENDBRANCH  51  55
ENDBRANCH  41  51
ENDBRANCH   2  32
TORSDOF 18
ENDMDL
MODEL 5
REMARK VINA RESULT:      -8.2      3.518      6.780
REMARK  18 active torsions:
REMARK  status: ('A' for Active; 'I' for Inactive)
REMARK    1  A    between atoms: C_20  and  C_13 
REMARK    2  A    between atoms: C_25  and  C_13 
REMARK    3  A    between atoms: C_19  and  C_17 
REMARK    4  A    between atoms: O_46  and  C_17 
REMARK    5  A    between atoms: O_37  and  C_18 
REMARK    6  A    between atoms: C_29  and  C_23 
REMARK    7  A    between atoms: C_24  and  N_35 
REMARK    8  A    between atoms: C_30  and  C_25 
REMARK    9  A    between atoms: C_25  and  N_33 
REMARK   10  A    between atoms: O_46  and  C_26 
REMARK   11  A    between atoms: P_47  and  C_27 
REMARK   12  A    between atoms: P_48  and  C_28 
REMARK   13  A    between atoms: O_38  and  C_29 
REMARK   14  A    between atoms: C_30  and  O_39 
REMARK   15  A    between atoms: P_47  and  O_40 
REMARK   16  A    between atoms: P_47  and  O_41 
REMARK   17  A    between atoms: P_48  and  O_43 
REMARK   18  A    between atoms: P_48  and  O_44 
ROOT
HETATM    1  C   UNK N   1      28.610  18.245   5.555  0.00  0.00     0.135 C 
HETATM    2  N   UNK N   1      29.408  17.818   4.643  0.00  0.00    -0.364 N 
ATOM      3  HN  UNK N   1      29.378  18.327   3.760  1.00  0.00     0.162 HD
ENDROOT
BRANCH   1   4
HETATM    4  C   UNK N   1      27.942  19.553   5.294  0.00  0.00     0.162 C 
BRANCH   4   5
HETATM    5  C   UNK N   1      27.302  19.325   3.907  0.00  0.00     0.072 C 
BRANCH   5   6
HETATM    6  C   UNK N   1      25.841  19.564   3.713  0.00  0.00    -0.055 A 
HETATM    7  C   UNK N   1      25.438  20.518   2.780  0.00  0.00     0.008 A 
HETATM    8  C   UNK N   1      24.083  20.712   2.513  0.00  0.00     0.021 A 
HETATM    9  C   UNK N   1      23.119  19.941   3.170  0.00  0.00     0.068 A 
HETATM   10  C   UNK N   1      23.530  18.966   4.107  0.00  0.00     0.068 A 
HETATM   11  C   UNK N   1      24.884  18.799   4.369  0.00  0.00     0.027 A 
BRANCH   9  12
HETATM   12  P   UNK N   1      21.353  20.273   2.802  0.00  0.00     0.272 P 
HETATM   13  O   UNK N   1      20.745  19.053   2.061  0.00  0.00    -0.650 OA
BRANCH  12  14
HETATM   14  O   UNK N   1      21.028  21.624   1.764  0.00  0.00    -0.326 OA
HETATM   15  H   UNK N   1      20.694  21.925   0.904  0.00  0.00     0.220 HD
ENDBRANCH  12  14
BRANCH  12  16
HETATM   16  O   UNK N   1      20.352  20.445   4.210  0.00  0.00    -0.326 OA
HETATM   17  H   UNK N   1      20.594  20.001   5.038  0.00  0.00     0.220 HD
ENDBRANCH  12  16
ENDBRANCH   9  12
BRANCH  10  18
HETATM   18  P   UNK N   1      22.374  17.840   4.979  0.00  0.00     0.272 P 
HETATM   19  O   UNK N   1      23.198  16.779   5.759  0.00  0.00    -0.650 OA
BRANCH  18  20
HETATM   20  O   UNK N   1      21.382  16.885   3.923  0.00  0.00    -0.326 OA
HETATM   21  H   UNK N   1      21.056  16.248   3.269  0.00  0.00     0.220 HD
ENDBRANCH  18  20
BRANCH  18  22
HETATM   22  O   UNK N   1      21.354  18.555   6.183  0.00  0.00    -0.326 OA
HETATM   23  H   UNK N   1      20.560  19.101   6.077  0.00  0.00     0.220 HD
ENDBRANCH  18  22
ENDBRANCH  10  18
ENDBRANCH   5   6
ENDBRANCH   4   5
BRANCH   4  24
HETATM   24  N   UNK N   1      26.922  19.780   6.311  0.00  0.00    -0.362 N 
HETATM   25  C   UNK N   1      26.656  20.917   6.859  0.00  0.00     0.107 C 
HETATM   26  C   UNK N   1      27.371  22.171   6.465  0.00  0.00     0.097 C 
ATOM     27  HN  UNK N   1      26.375  18.974   6.614  1.00  0.00     0.162 HD
BRANCH  25  28
HETATM   28  O   UNK N   1      25.700  20.982   7.804  0.00  0.00    -0.350 OA
HETATM   29  H   UNK N   1      25.507  20.753   8.692  0.00  0.00     0.219 HD
ENDBRANCH  25  28
ENDBRANCH   4  24
ENDBRANCH   1   4
BRANCH   1  30
HETATM   30  O   UNK N   1      28.452  17.597   6.726  0.00  0.00    -0.348 OA
HETATM   31  H   UNK N   1      27.742  17.233   7.216  0.00  0.00     0.219 HD
ENDBRANCH   1  30
BRANCH   2  32
HETATM   32  C   UNK N   1      30.339  16.724   4.695  0.00  0.00     0.117 C 
HETATM   33  C   UNK N   1      31.775  17.085   5.096  0.00  0.00     0.030 C 
HETATM   34  C   UNK N   1      32.682  17.488   3.940  0.00  0.00     0.003 C 
HETATM   35  C   UNK N   1      32.937  16.369   2.922  0.00  0.00     0.005 C 
HETATM   36  C   UNK N   1      32.471  14.989   3.395  0.00  0.00     0.039 C 
HETATM   37  C   UNK N   1      31.013  14.816   3.107  0.00  0.00    -0.047 C 
HETATM   38  C   UNK N   1      30.598  13.695   2.390  0.00  0.00     0.045 C 
HETATM   39  C   UNK N   1      30.042  15.702   3.617  0.00  0.00    -0.028 C 
HETATM   40  C   UNK N   1      29.232  13.471   2.108  0.00  0.00     0.083 C 
HETATM   41  C   UNK N   1      28.285  14.455   2.463  0.00  0.00     0.048 C 
HETATM   42  C   UNK N   1      28.696  15.524   3.240  0.00  0.00     0.028 C 
BRANCH  40  43
HETATM   43  O   UNK N   1      28.817  12.320   1.566  0.00  0.00    -0.350 OA
BRANCH  43  44
HETATM   44  C   UNK N   1      29.676  11.297   1.218  0.00  0.00     0.180 C 
BRANCH  44  45
HETATM   45  C   UNK N   1      29.373  10.827  -0.182  0.00  0.00     0.010 C 
HETATM   46  C   UNK N   1      29.626   9.324  -0.238  0.00  0.00     0.007 C 
HETATM   47  C   UNK N   1      29.485   8.813  -1.661  0.00  0.00     0.000 C 
HETATM   48  C   UNK N   1      30.477   9.539  -2.560  0.00  0.00     0.000 C 
HETATM   49  C   UNK N   1      30.162  11.030  -2.570  0.00  0.00     0.000 C 
HETATM   50  C   UNK N   1      30.270  11.594  -1.162  0.00  0.00     0.007 C 
ENDBRANCH  44  45
ENDBRANCH  43  44
ENDBRANCH  40  43
BRANCH  41  51
HETATM   51  C   UNK N   1      26.839  14.325   2.102  0.00  0.00     0.146 C 
HETATM   52  N   UNK N   1      26.174  15.294   1.623  0.00  0.00    -0.379 N 
HETATM   53  H   UNK N   1      25.250  15.154   1.315  0.00  0.00     0.158 HD
ATOM     54  HN  UNK N   1      26.598  16.220   1.557  1.00  0.00     0.158 HD
BRANCH  51  55
HETATM   55  O   UNK N   1      26.211  13.147   2.331  0.00  0.00    -0.346 OA
HETATM   56  H   UNK N   1      25.537  13.087   2.979  0.00  0.00     0.219 HD
ENDBRANCH  51  55
ENDBRANCH  41  51
ENDBRANCH   2  32
TORSDOF 18
ENDMDL
MODEL 6
REMARK VINA RESULT:      -8.1      9.008     13.638
REMARK  18 active torsions:
REMARK  status: ('A' for Active; 'I' for Inactive)
REMARK    1  A    between atoms: C_20  and  C_13 
REMARK    2  A    between atoms: C_25  and  C_13 
REMARK    3  A    between atoms: C_19  and  C_17 
REMARK    4  A    between atoms: O_46  and  C_17 
REMARK    5  A    between atoms: O_37  and  C_18 
REMARK    6  A    between atoms: C_29  and  C_23 
REMARK    7  A    between atoms: C_24  and  N_35 
REMARK    8  A    between atoms: C_30  and  C_25 
REMARK    9  A    between atoms: C_25  and  N_33 
REMARK   10  A    between atoms: O_46  and  C_26 
REMARK   11  A    between atoms: P_47  and  C_27 
REMARK   12  A    between atoms: P_48  and  C_28 
REMARK   13  A    between atoms: O_38  and  C_29 
REMARK   14  A    between atoms: C_30  and  O_39 
REMARK   15  A    between atoms: P_47  and  O_40 
REMARK   16  A    between atoms: P_47  and  O_41 
REMARK   17  A    between atoms: P_48  and  O_43 
REMARK   18  A    between atoms: P_48  and  O_44 
ROOT
HETATM    1  C   UNK N   1      36.849  11.635  12.466  0.00  0.00     0.135 C 
HETATM    2  N   UNK N   1      36.517  10.550  13.068  0.00  0.00    -0.364 N 
ATOM      3  HN  UNK N   1      35.620  10.152  12.791  1.00  0.00     0.162 HD
ENDROOT
BRANCH   1   4
HETATM    4  C   UNK N   1      36.018  12.024  11.289  0.00  0.00     0.162 C 
BRANCH   4   5
HETATM    5  C   UNK N   1      35.218  13.227  11.834  0.00  0.00     0.072 C 
BRANCH   5   6
HETATM    6  C   UNK N   1      34.918  14.387  10.943  0.00  0.00    -0.055 A 
HETATM    7  C   UNK N   1      35.605  15.583  11.148  0.00  0.00     0.008 A 
HETATM    8  C   UNK N   1      35.410  16.661  10.286  0.00  0.00     0.021 A 
HETATM    9  C   UNK N   1      34.535  16.547   9.202  0.00  0.00     0.068 A 
HETATM   10  C   UNK N   1      33.850  15.329   8.988  0.00  0.00     0.068 A 
HETATM   11  C   UNK N   1      34.047  14.272   9.867  0.00  0.00     0.027 A 
BRANCH   9  12
HETATM   12  P   UNK N   1      34.295  18.016   8.129  0.00  0.00     0.272 P 
HETATM   13  O   UNK N   1      32.853  18.558   8.316  0.00  0.00    -0.650 OA
BRANCH  12  14
HETATM   14  O   UNK N   1      34.447  17.750   6.422  0.00  0.00    -0.326 OA
HETATM   15  H   UNK N   1      34.778  17.171   5.717  0.00  0.00     0.220 HD
ENDBRANCH  12  14
BRANCH  12  16
HETATM   16  O   UNK N   1      35.304  19.368   8.538  0.00  0.00    -0.326 OA
HETATM   17  H   UNK N   1      35.903  19.318   9.299  0.00  0.00     0.220 HD
ENDBRANCH  12  16
ENDBRANCH   9  12
BRANCH  10  18
HETATM   18  P   UNK N   1      32.736  15.024   7.563  0.00  0.00     0.272 P 
HETATM   19  O   UNK N   1      32.171  13.581   7.666  0.00  0.00    -0.650 OA
BRANCH  18  20
HETATM   20  O   UNK N   1      33.533  15.037   6.023  0.00  0.00    -0.326 OA
HETATM   21  H   UNK N   1      34.134  15.213   5.282  0.00  0.00     0.220 HD
ENDBRANCH  18  20
BRANCH  18  22
HETATM   22  O   UNK N   1      31.325  16.025   7.453  0.00  0.00    -0.326 OA
HETATM   23  H   UNK N   1      31.255  16.987   7.348  0.00  0.00     0.220 HD
ENDBRANCH  18  22
ENDBRANCH  10  18
ENDBRANCH   5   6
ENDBRANCH   4   5
BRANCH   4  24
HETATM   24  N   UNK N   1      36.896  12.429  10.198  0.00  0.00    -0.362 N 
HETATM   25  C   UNK N   1      36.877  11.939   9.005  0.00  0.00     0.107 C 
HETATM   26  C   UNK N   1      35.890  10.890   8.598  0.00  0.00     0.097 C 
ATOM     27  HN  UNK N   1      37.581  13.159  10.394  1.00  0.00     0.162 HD
BRANCH  25  28
HETATM   28  O   UNK N   1      37.760  12.391   8.096  0.00  0.00    -0.350 OA
HETATM   29  H   UNK N   1      38.219  13.159   7.814  0.00  0.00     0.219 HD
ENDBRANCH  25  28
ENDBRANCH   4  24
ENDBRANCH   1   4
BRANCH   1  30
HETATM   30  O   UNK N   1      37.944  12.340  12.816  0.00  0.00    -0.348 OA
HETATM   31  H   UNK N   1      38.208  12.884  13.530  0.00  0.00     0.219 HD
ENDBRANCH   1  30
BRANCH   2  32
HETATM   32  C   UNK N   1      37.233   9.819  14.077  0.00  0.00     0.117 C 
HETATM   33  C   UNK N   1      37.827   8.476  13.635  0.00  0.00     0.030 C 
HETATM   34  C   UNK N   1      36.891   7.282  13.775  0.00  0.00     0.003 C 
HETATM   35  C   UNK N   1      36.493   6.962  15.222  0.00  0.00     0.005 C 
HETATM   36  C   UNK N   1      37.323   7.712  16.268  0.00  0.00     0.039 C 
HETATM   37  C   UNK N   1      36.749   9.077  16.492  0.00  0.00    -0.047 C 
HETATM   38  C   UNK N   1      36.441   9.471  17.793  0.00  0.00     0.045 C 
HETATM   39  C   UNK N   1      36.599  10.004  15.440  0.00  0.00    -0.028 C 
HETATM   40  C   UNK N   1      35.917  10.754  18.063  0.00  0.00     0.083 C 
HETATM   41  C   UNK N   1      35.598  11.609  16.987  0.00  0.00     0.048 C 
HETATM   42  C   UNK N   1      35.979  11.240  15.708  0.00  0.00     0.028 C 
BRANCH  40  43
HETATM   43  O   UNK N   1      35.774  11.193  19.320  0.00  0.00    -0.350 OA
BRANCH  43  44
HETATM   44  C   UNK N   1      35.521  10.354  20.386  0.00  0.00     0.180 C 
BRANCH  44  45
HETATM   45  C   UNK N   1      34.034  10.193  20.569  0.00  0.00     0.010 C 
HETATM   46  C   UNK N   1      33.740  10.196  22.066  0.00  0.00     0.007 C 
HETATM   47  C   UNK N   1      32.276   9.885  22.322  0.00  0.00     0.000 C 
HETATM   48  C   UNK N   1      31.937   8.523  21.732  0.00  0.00     0.000 C 
HETATM   49  C   UNK N   1      32.146   8.554  20.222  0.00  0.00     0.000 C 
HETATM   50  C   UNK N   1      33.597   8.880  19.905  0.00  0.00     0.007 C 
ENDBRANCH  44  45
ENDBRANCH  43  44
ENDBRANCH  40  43
BRANCH  41  51
HETATM   51  C   UNK N   1      34.947  12.939  17.202  0.00  0.00     0.146 C 
HETATM   52  N   UNK N   1      35.241  13.682  18.189  0.00  0.00    -0.379 N 
HETATM   53  H   UNK N   1      34.860  14.587  18.255  0.00  0.00     0.158 HD
ATOM     54  HN  UNK N   1      35.872  13.340  18.914  1.00  0.00     0.158 HD
BRANCH  51  55
HETATM   55  O   UNK N   1      33.988  13.345  16.337  0.00  0.00    -0.346 OA
HETATM   56  H   UNK N   1      34.204  13.550  15.449  0.00  0.00     0.219 HD
ENDBRANCH  51  55
ENDBRANCH  41  51
ENDBRANCH   2  32
TORSDOF 18
ENDMDL
MODEL 7
REMARK VINA RESULT:      -8.0      5.667     12.783
REMARK  18 active torsions:
REMARK  status: ('A' for Active; 'I' for Inactive)
REMARK    1  A    between atoms: C_20  and  C_13 
REMARK    2  A    between atoms: C_25  and  C_13 
REMARK    3  A    between atoms: C_19  and  C_17 
REMARK    4  A    between atoms: O_46  and  C_17 
REMARK    5  A    between atoms: O_37  and  C_18 
REMARK    6  A    between atoms: C_29  and  C_23 
REMARK    7  A    between atoms: C_24  and  N_35 
REMARK    8  A    between atoms: C_30  and  C_25 
REMARK    9  A    between atoms: C_25  and  N_33 
REMARK   10  A    between atoms: O_46  and  C_26 
REMARK   11  A    between atoms: P_47  and  C_27 
REMARK   12  A    between atoms: P_48  and  C_28 
REMARK   13  A    between atoms: O_38  and  C_29 
REMARK   14  A    between atoms: C_30  and  O_39 
REMARK   15  A    between atoms: P_47  and  O_40 
REMARK   16  A    between atoms: P_47  and  O_41 
REMARK   17  A    between atoms: P_48  and  O_43 
REMARK   18  A    between atoms: P_48  and  O_44 
ROOT
HETATM    1  C   UNK N   1      33.353  14.039   7.319  0.00  0.00     0.135 C 
HETATM    2  N   UNK N   1      33.050  15.065   6.608  0.00  0.00    -0.364 N 
ATOM      3  HN  UNK N   1      33.555  15.921   6.836  1.00  0.00     0.162 HD
ENDROOT
BRANCH   1   4
HETATM    4  C   UNK N   1      34.556  14.168   8.193  0.00  0.00     0.162 C 
BRANCH   4   5
HETATM    5  C   UNK N   1      33.936  14.570   9.549  0.00  0.00     0.072 C 
BRANCH   5   6
HETATM    6  C   UNK N   1      34.645  14.237  10.820  0.00  0.00    -0.055 A 
HETATM    7  C   UNK N   1      35.436  15.216  11.420  0.00  0.00     0.008 A 
HETATM    8  C   UNK N   1      36.049  14.969  12.648  0.00  0.00     0.021 A 
HETATM    9  C   UNK N   1      35.863  13.742  13.293  0.00  0.00     0.068 A 
HETATM   10  C   UNK N   1      35.051  12.756  12.689  0.00  0.00     0.068 A 
HETATM   11  C   UNK N   1      34.462  13.016  11.458  0.00  0.00     0.027 A 
BRANCH   9  12
HETATM   12  P   UNK N   1      36.728  13.467  14.887  0.00  0.00     0.272 P 
HETATM   13  O   UNK N   1      35.689  13.099  15.979  0.00  0.00    -0.650 OA
BRANCH  12  14
HETATM   14  O   UNK N   1      37.585  14.828  15.538  0.00  0.00    -0.326 OA
HETATM   15  H   UNK N   1      38.415  15.160  15.914  0.00  0.00     0.220 HD
ENDBRANCH  12  14
BRANCH  12  16
HETATM   16  O   UNK N   1      37.820  12.118  14.881  0.00  0.00    -0.326 OA
HETATM   17  H   UNK N   1      37.589  11.305  14.406  0.00  0.00     0.220 HD
ENDBRANCH  12  16
ENDBRANCH   9  12
BRANCH  10  18
HETATM   18  P   UNK N   1      34.667  11.138  13.464  0.00  0.00     0.272 P 
HETATM   19  O   UNK N   1      33.759  10.323  12.502  0.00  0.00    -0.650 OA
BRANCH  18  20
HETATM   20  O   UNK N   1      33.720  11.253  14.913  0.00  0.00    -0.326 OA
HETATM   21  H   UNK N   1      33.222  11.060  15.723  0.00  0.00     0.220 HD
ENDBRANCH  18  20
BRANCH  18  22
HETATM   22  O   UNK N   1      36.009  10.087  13.774  0.00  0.00    -0.326 OA
HETATM   23  H   UNK N   1      36.075   9.328  14.374  0.00  0.00     0.220 HD
ENDBRANCH  18  22
ENDBRANCH  10  18
ENDBRANCH   5   6
ENDBRANCH   4   5
BRANCH   4  24
HETATM   24  N   UNK N   1      35.221  12.874   8.284  0.00  0.00    -0.362 N 
HETATM   25  C   UNK N   1      36.498  12.689   8.270  0.00  0.00     0.107 C 
HETATM   26  C   UNK N   1      37.460  13.832   8.192  0.00  0.00     0.097 C 
ATOM     27  HN  UNK N   1      34.629  12.047   8.364  1.00  0.00     0.162 HD
BRANCH  25  28
HETATM   28  O   UNK N   1      36.980  11.435   8.341  0.00  0.00    -0.350 OA
HETATM   29  H   UNK N   1      37.172  10.675   7.826  0.00  0.00     0.219 HD
ENDBRANCH  25  28
ENDBRANCH   4  24
ENDBRANCH   1   4
BRANCH   1  30
HETATM   30  O   UNK N   1      32.682  12.874   7.216  0.00  0.00    -0.348 OA
HETATM   31  H   UNK N   1      32.771  12.073   6.738  0.00  0.00     0.219 HD
ENDBRANCH   1  30
BRANCH   2  32
HETATM   32  C   UNK N   1      32.098  15.175   5.537  0.00  0.00     0.117 C 
HETATM   33  C   UNK N   1      32.619  14.818   4.139  0.00  0.00     0.030 C 
HETATM   34  C   UNK N   1      33.251  15.974   3.375  0.00  0.00     0.003 C 
HETATM   35  C   UNK N   1      32.278  17.113   3.042  0.00  0.00     0.005 C 
HETATM   36  C   UNK N   1      30.808  16.757   3.283  0.00  0.00     0.039 C 
HETATM   37  C   UNK N   1      30.459  16.981   4.721  0.00  0.00    -0.047 C 
HETATM   38  C   UNK N   1      29.361  17.783   5.028  0.00  0.00     0.045 C 
HETATM   39  C   UNK N   1      31.148  16.332   5.766  0.00  0.00    -0.028 C 
HETATM   40  C   UNK N   1      28.974  18.012   6.367  0.00  0.00     0.083 C 
HETATM   41  C   UNK N   1      29.778  17.508   7.412  0.00  0.00     0.048 C 
HETATM   42  C   UNK N   1      30.818  16.651   7.097  0.00  0.00     0.028 C 
BRANCH  40  43
HETATM   43  O   UNK N   1      27.831  18.644   6.659  0.00  0.00    -0.350 OA
BRANCH  43  44
HETATM   44  C   UNK N   1      27.645  19.996   6.455  0.00  0.00     0.180 C 
BRANCH  44  45
HETATM   45  C   UNK N   1      26.520  20.216   5.476  0.00  0.00     0.010 C 
HETATM   46  C   UNK N   1      25.677  18.945   5.434  0.00  0.00     0.007 C 
HETATM   47  C   UNK N   1      24.614  19.046   4.354  0.00  0.00     0.000 C 
HETATM   48  C   UNK N   1      25.285  19.267   3.005  0.00  0.00     0.000 C 
HETATM   49  C   UNK N   1      26.051  20.584   3.023  0.00  0.00     0.000 C 
HETATM   50  C   UNK N   1      27.121  20.547   4.103  0.00  0.00     0.007 C 
ENDBRANCH  44  45
ENDBRANCH  43  44
ENDBRANCH  40  43
BRANCH  41  51
HETATM   51  C   UNK N   1      29.479  17.801   8.849  0.00  0.00     0.146 C 
HETATM   52  N   UNK N   1      28.337  17.581   9.358  0.00  0.00    -0.379 N 
HETATM   53  H   UNK N   1      28.196  17.701  10.325  0.00  0.00     0.158 HD
ATOM     54  HN  UNK N   1      27.564  17.277   8.765  1.00  0.00     0.158 HD
BRANCH  51  55
HETATM   55  O   UNK N   1      30.445  18.355   9.618  0.00  0.00    -0.346 OA
HETATM   56  H   UNK N   1      31.251  17.901   9.768  0.00  0.00     0.219 HD
ENDBRANCH  51  55
ENDBRANCH  41  51
ENDBRANCH   2  32
TORSDOF 18
ENDMDL
MODEL 8
REMARK VINA RESULT:      -7.9      5.527     12.198
REMARK  18 active torsions:
REMARK  status: ('A' for Active; 'I' for Inactive)
REMARK    1  A    between atoms: C_20  and  C_13 
REMARK    2  A    between atoms: C_25  and  C_13 
REMARK    3  A    between atoms: C_19  and  C_17 
REMARK    4  A    between atoms: O_46  and  C_17 
REMARK    5  A    between atoms: O_37  and  C_18 
REMARK    6  A    between atoms: C_29  and  C_23 
REMARK    7  A    between atoms: C_24  and  N_35 
REMARK    8  A    between atoms: C_30  and  C_25 
REMARK    9  A    between atoms: C_25  and  N_33 
REMARK   10  A    between atoms: O_46  and  C_26 
REMARK   11  A    between atoms: P_47  and  C_27 
REMARK   12  A    between atoms: P_48  and  C_28 
REMARK   13  A    between atoms: O_38  and  C_29 
REMARK   14  A    between atoms: C_30  and  O_39 
REMARK   15  A    between atoms: P_47  and  O_40 
REMARK   16  A    between atoms: P_47  and  O_41 
REMARK   17  A    between atoms: P_48  and  O_43 
REMARK   18  A    between atoms: P_48  and  O_44 
ROOT
HETATM    1  C   UNK N   1      33.898  15.685   6.903  0.00  0.00     0.135 C 
HETATM    2  N   UNK N   1      32.758  15.112   6.748  0.00  0.00    -0.364 N 
ATOM      3  HN  UNK N   1      32.399  14.622   7.567  1.00  0.00     0.162 HD
ENDROOT
BRANCH   1   4
HETATM    4  C   UNK N   1      34.416  15.769   8.300  0.00  0.00     0.162 C 
BRANCH   4   5
HETATM    5  C   UNK N   1      35.361  14.551   8.375  0.00  0.00     0.072 C 
BRANCH   5   6
HETATM    6  C   UNK N   1      35.199  13.549   9.469  0.00  0.00    -0.055 A 
HETATM    7  C   UNK N   1      34.828  12.247   9.135  0.00  0.00     0.008 A 
HETATM    8  C   UNK N   1      34.746  11.265  10.121  0.00  0.00     0.021 A 
HETATM    9  C   UNK N   1      35.048  11.574  11.450  0.00  0.00     0.068 A 
HETATM   10  C   UNK N   1      35.436  12.891  11.785  0.00  0.00     0.068 A 
HETATM   11  C   UNK N   1      35.498  13.859  10.791  0.00  0.00     0.027 A 
BRANCH   9  12
HETATM   12  P   UNK N   1      34.882  10.245  12.704  0.00  0.00     0.272 P 
HETATM   13  O   UNK N   1      33.704  10.582  13.657  0.00  0.00    -0.650 OA
BRANCH  12  14
HETATM   14  O   UNK N   1      36.242  10.009  13.753  0.00  0.00    -0.326 OA
HETATM   15  H   UNK N   1      37.189   9.808  13.822  0.00  0.00     0.220 HD
ENDBRANCH  12  14
BRANCH  12  16
HETATM   16  O   UNK N   1      34.455   8.696  12.047  0.00  0.00    -0.326 OA
HETATM   17  H   UNK N   1      34.916   8.353  11.266  0.00  0.00     0.220 HD
ENDBRANCH  12  16
ENDBRANCH   9  12
BRANCH  10  18
HETATM   18  P   UNK N   1      35.930  13.409  13.474  0.00  0.00     0.272 P 
HETATM   19  O   UNK N   1      36.258  14.927  13.459  0.00  0.00    -0.650 OA
BRANCH  18  20
HETATM   20  O   UNK N   1      37.403  12.684  14.036  0.00  0.00    -0.326 OA
HETATM   21  H   UNK N   1      38.277  12.267  14.097  0.00  0.00     0.220 HD
ENDBRANCH  18  20
BRANCH  18  22
HETATM   22  O   UNK N   1      34.735  13.245  14.718  0.00  0.00    -0.326 OA
HETATM   23  H   UNK N   1      34.111  12.521  14.885  0.00  0.00     0.220 HD
ENDBRANCH  18  22
ENDBRANCH  10  18
ENDBRANCH   5   6
ENDBRANCH   4   5
BRANCH   4  24
HETATM   24  N   UNK N   1      35.153  17.016   8.461  0.00  0.00    -0.362 N 
HETATM   25  C   UNK N   1      34.634  18.197   8.441  0.00  0.00     0.107 C 
HETATM   26  C   UNK N   1      33.162  18.410   8.279  0.00  0.00     0.097 C 
ATOM     27  HN  UNK N   1      36.162  16.950   8.601  1.00  0.00     0.162 HD
BRANCH  25  28
HETATM   28  O   UNK N   1      35.436  19.268   8.583  0.00  0.00    -0.350 OA
HETATM   29  H   UNK N   1      36.315  19.568   8.457  0.00  0.00     0.219 HD
ENDBRANCH  25  28
ENDBRANCH   4  24
ENDBRANCH   1   4
BRANCH   1  30
HETATM   30  O   UNK N   1      34.552  16.263   5.876  0.00  0.00    -0.348 OA
HETATM   31  H   UNK N   1      34.917  15.992   5.057  0.00  0.00     0.219 HD
ENDBRANCH   1  30
BRANCH   2  32
HETATM   32  C   UNK N   1      31.919  15.067   5.582  0.00  0.00     0.117 C 
HETATM   33  C   UNK N   1      32.602  14.628   4.281  0.00  0.00     0.030 C 
HETATM   34  C   UNK N   1      33.242  15.755   3.481  0.00  0.00     0.003 C 
HETATM   35  C   UNK N   1      32.245  16.794   2.950  0.00  0.00     0.005 C 
HETATM   36  C   UNK N   1      30.781  16.362   3.077  0.00  0.00     0.039 C 
HETATM   37  C   UNK N   1      30.271  16.683   4.447  0.00  0.00    -0.047 C 
HETATM   38  C   UNK N   1      29.103  17.434   4.570  0.00  0.00     0.045 C 
HETATM   39  C   UNK N   1      30.885  16.173   5.610  0.00  0.00    -0.028 C 
HETATM   40  C   UNK N   1      28.566  17.748   5.838  0.00  0.00     0.083 C 
HETATM   41  C   UNK N   1      29.284  17.390   6.999  0.00  0.00     0.048 C 
HETATM   42  C   UNK N   1      30.400  16.581   6.868  0.00  0.00     0.028 C 
BRANCH  40  43
HETATM   43  O   UNK N   1      27.364  18.325   5.957  0.00  0.00    -0.350 OA
BRANCH  43  44
HETATM   44  C   UNK N   1      27.061  19.555   5.409  0.00  0.00     0.180 C 
BRANCH  44  45
HETATM   45  C   UNK N   1      26.100  19.382   4.261  0.00  0.00     0.010 C 
HETATM   46  C   UNK N   1      26.172  20.636   3.395  0.00  0.00     0.007 C 
HETATM   47  C   UNK N   1      25.117  20.590   2.304  0.00  0.00     0.000 C 
HETATM   48  C   UNK N   1      23.737  20.478   2.939  0.00  0.00     0.000 C 
HETATM   49  C   UNK N   1      23.642  19.179   3.729  0.00  0.00     0.000 C 
HETATM   50  C   UNK N   1      24.692  19.161   4.828  0.00  0.00     0.007 C 
ENDBRANCH  44  45
ENDBRANCH  43  44
ENDBRANCH  40  43
BRANCH  41  51
HETATM   51  C   UNK N   1      28.821  17.784   8.366  0.00  0.00     0.146 C 
HETATM   52  N   UNK N   1      29.603  18.309   9.217  0.00  0.00    -0.379 N 
HETATM   53  H   UNK N   1      29.249  18.637  10.076  0.00  0.00     0.158 HD
ATOM     54  HN  UNK N   1      30.598  18.393   9.012  1.00  0.00     0.158 HD
BRANCH  51  55
HETATM   55  O   UNK N   1      27.538  17.535   8.718  0.00  0.00    -0.346 OA
HETATM   56  H   UNK N   1      26.831  17.825   8.175  0.00  0.00     0.219 HD
ENDBRANCH  51  55
ENDBRANCH  41  51
ENDBRANCH   2  32
TORSDOF 18
ENDMDL
MODEL 9
REMARK VINA RESULT:      -7.8      3.472      6.640
REMARK  18 active torsions:
REMARK  status: ('A' for Active; 'I' for Inactive)
REMARK    1  A    between atoms: C_20  and  C_13 
REMARK    2  A    between atoms: C_25  and  C_13 
REMARK    3  A    between atoms: C_19  and  C_17 
REMARK    4  A    between atoms: O_46  and  C_17 
REMARK    5  A    between atoms: O_37  and  C_18 
REMARK    6  A    between atoms: C_29  and  C_23 
REMARK    7  A    between atoms: C_24  and  N_35 
REMARK    8  A    between atoms: C_30  and  C_25 
REMARK    9  A    between atoms: C_25  and  N_33 
REMARK   10  A    between atoms: O_46  and  C_26 
REMARK   11  A    between atoms: P_47  and  C_27 
REMARK   12  A    between atoms: P_48  and  C_28 
REMARK   13  A    between atoms: O_38  and  C_29 
REMARK   14  A    between atoms: C_30  and  O_39 
REMARK   15  A    between atoms: P_47  and  O_40 
REMARK   16  A    between atoms: P_47  and  O_41 
REMARK   17  A    between atoms: P_48  and  O_43 
REMARK   18  A    between atoms: P_48  and  O_44 
ROOT
HETATM    1  C   UNK N   1      22.343  13.373   1.691  0.00  0.00     0.135 C 
HETATM    2  N   UNK N   1      23.521  13.365   2.203  0.00  0.00    -0.364 N 
ATOM      3  HN  UNK N   1      23.560  13.492   3.214  1.00  0.00     0.162 HD
ENDROOT
BRANCH   1   4
HETATM    4  C   UNK N   1      21.200  13.316   2.649  0.00  0.00     0.162 C 
BRANCH   4   5
HETATM    5  C   UNK N   1      20.181  14.280   2.004  0.00  0.00     0.072 C 
BRANCH   5   6
HETATM    6  C   UNK N   1      20.441  15.751   2.010  0.00  0.00    -0.055 A 
HETATM    7  C   UNK N   1      19.926  16.525   0.971  0.00  0.00     0.008 A 
HETATM    8  C   UNK N   1      20.079  17.910   0.984  0.00  0.00     0.021 A 
HETATM    9  C   UNK N   1      20.737  18.535   2.047  0.00  0.00     0.068 A 
HETATM   10  C   UNK N   1      21.247  17.750   3.106  0.00  0.00     0.068 A 
HETATM   11  C   UNK N   1      21.098  16.370   3.066  0.00  0.00     0.027 A 
BRANCH   9  12
HETATM   12  P   UNK N   1      20.938  20.358   1.984  0.00  0.00     0.272 P 
HETATM   13  O   UNK N   1      22.446  20.704   1.863  0.00  0.00    -0.650 OA
BRANCH  12  14
HETATM   14  O   UNK N   1      20.396  21.236   3.378  0.00  0.00    -0.326 OA
HETATM   15  H   UNK N   1      20.080  22.083   3.732  0.00  0.00     0.220 HD
ENDBRANCH  12  14
BRANCH  12  16
HETATM   16  O   UNK N   1      20.226  21.105   0.588  0.00  0.00    -0.326 OA
HETATM   17  H   UNK N   1      19.563  21.804   0.693  0.00  0.00     0.220 HD
ENDBRANCH  12  16
ENDBRANCH   9  12
BRANCH  10  18
HETATM   18  P   UNK N   1      22.063  18.451   4.592  0.00  0.00     0.272 P 
HETATM   19  O   UNK N   1      21.056  19.377   5.329  0.00  0.00    -0.650 OA
BRANCH  18  20
HETATM   20  O   UNK N   1      23.396  19.504   4.240  0.00  0.00    -0.326 OA
HETATM   21  H   UNK N   1      23.952  20.250   3.964  0.00  0.00     0.220 HD
ENDBRANCH  18  20
BRANCH  18  22
HETATM   22  O   UNK N   1      22.568  17.323   5.806  0.00  0.00    -0.326 OA
HETATM   23  H   UNK N   1      22.247  17.205   6.713  0.00  0.00     0.220 HD
ENDBRANCH  18  22
ENDBRANCH  10  18
ENDBRANCH   5   6
ENDBRANCH   4   5
BRANCH   4  24
HETATM   24  N   UNK N   1      20.680  11.955   2.692  0.00  0.00    -0.362 N 
HETATM   25  C   UNK N   1      20.175  11.383   3.732  0.00  0.00     0.107 C 
HETATM   26  C   UNK N   1      20.036  12.098   5.038  0.00  0.00     0.097 C 
ATOM     27  HN  UNK N   1      20.719  11.411   1.830  1.00  0.00     0.162 HD
BRANCH  25  28
HETATM   28  O   UNK N   1      19.749  10.109   3.637  0.00  0.00    -0.350 OA
HETATM   29  H   UNK N   1      19.909   9.296   3.199  0.00  0.00     0.219 HD
ENDBRANCH  25  28
ENDBRANCH   4  24
ENDBRANCH   1   4
BRANCH   1  30
HETATM   30  O   UNK N   1      22.143  13.341   0.358  0.00  0.00    -0.348 OA
HETATM   31  H   UNK N   1      22.503  13.759  -0.398  0.00  0.00     0.219 HD
ENDBRANCH   1  30
BRANCH   2  32
HETATM   32  C   UNK N   1      24.791  13.200   1.551  0.00  0.00     0.117 C 
HETATM   33  C   UNK N   1      25.041  11.830   0.909  0.00  0.00     0.030 C 
HETATM   34  C   UNK N   1      25.654  10.788   1.837  0.00  0.00     0.003 C 
HETATM   35  C   UNK N   1      27.063  11.141   2.332  0.00  0.00     0.005 C 
HETATM   36  C   UNK N   1      27.700  12.318   1.588  0.00  0.00     0.039 C 
HETATM   37  C   UNK N   1      27.247  13.610   2.194  0.00  0.00    -0.047 C 
HETATM   38  C   UNK N   1      28.207  14.535   2.598  0.00  0.00     0.045 C 
HETATM   39  C   UNK N   1      25.882  13.953   2.281  0.00  0.00    -0.028 C 
HETATM   40  C   UNK N   1      27.836  15.778   3.156  0.00  0.00     0.083 C 
HETATM   41  C   UNK N   1      26.472  16.039   3.410  0.00  0.00     0.048 C 
HETATM   42  C   UNK N   1      25.525  15.149   2.935  0.00  0.00     0.028 C 
BRANCH  40  43
HETATM   43  O   UNK N   1      28.746  16.731   3.393  0.00  0.00    -0.350 OA
BRANCH  43  44
HETATM   44  C   UNK N   1      30.096  16.555   3.169  0.00  0.00     0.180 C 
BRANCH  44  45
HETATM   45  C   UNK N   1      30.888  17.235   4.257  0.00  0.00     0.010 C 
HETATM   46  C   UNK N   1      32.370  17.041   3.950  0.00  0.00     0.007 C 
HETATM   47  C   UNK N   1      33.223  17.573   5.088  0.00  0.00     0.000 C 
HETATM   48  C   UNK N   1      32.862  16.842   6.375  0.00  0.00     0.000 C 
HETATM   49  C   UNK N   1      31.403  17.114   6.724  0.00  0.00     0.000 C 
HETATM   50  C   UNK N   1      30.500  16.618   5.607  0.00  0.00     0.007 C 
ENDBRANCH  44  45
ENDBRANCH  43  44
ENDBRANCH  40  43
BRANCH  41  51
HETATM   51  C   UNK N   1      26.022  17.293   4.092  0.00  0.00     0.146 C 
HETATM   52  N   UNK N   1      25.542  17.286   5.267  0.00  0.00    -0.379 N 
HETATM   53  H   UNK N   1      25.337  18.135   5.721  0.00  0.00     0.158 HD
ATOM     54  HN  UNK N   1      25.369  16.400   5.741  1.00  0.00     0.158 HD
BRANCH  51  55
HETATM   55  O   UNK N   1      26.095  18.466   3.419  0.00  0.00    -0.346 OA
HETATM   56  H   UNK N   1      25.323  18.977   3.271  0.00  0.00     0.219 HD
ENDBRANCH  51  55
ENDBRANCH  41  51
ENDBRANCH   2  32
TORSDOF 18
ENDMDL
