MODEL 1
REMARK VINA RESULT:      -5.9      0.000      0.000
REMARK  11 active torsions:
REMARK  status: ('A' for Active; 'I' for Inactive)
REMARK    1  A    between atoms: C_14  and  C_10 
REMARK    2  A    between atoms: C_18  and  C_11 
REMARK    3  A    between atoms: C_15  and  C_12 
REMARK    4  A    between atoms: C_17  and  C_13 
REMARK    5  A    between atoms: C_19  and  C_13 
REMARK    6  A    between atoms: C_19  and  C_15 
REMARK    7  A    between atoms: C_18  and  C_16 
REMARK    8  A    between atoms: C_20  and  C_16 
REMARK    9  A    between atoms: C_18  and  N_21 
REMARK   10  A    between atoms: C_19  and  O_24 
REMARK   11  A    between atoms: O_23  and  C_20 
ROOT
HETATM    1  C   UNK N   1      28.629  26.821  -6.832  0.00  0.00     0.048 C 
HETATM    2  C   UNK N   1      29.009  28.148  -4.769  0.00  0.00    -0.013 C 
HETATM    3  C   UNK N   1      29.349  27.090  -5.546  0.00  0.00    -0.066 C 
ENDROOT
BRANCH   3   4
HETATM    4  C   UNK N   1      30.316  26.071  -5.051  0.00  0.00     0.004 C 
HETATM    5  C   UNK N   1      30.101  25.356  -3.925  0.00  0.00    -0.001 C 
BRANCH   5   6
HETATM    6  C   UNK N   1      30.923  24.168  -3.492  0.00  0.00     0.111 C 
BRANCH   6   7
HETATM    7  C   UNK N   1      30.151  22.850  -3.232  0.00  0.00     0.105 C 
HETATM    8  C   UNK N   1      29.243  22.975  -2.012  0.00  0.00     0.023 C 
BRANCH   7   9
HETATM    9  C   UNK N   1      31.119  21.728  -2.966  0.00  0.00     0.145 C 
HETATM   10  O   UNK N   1      32.053  21.891  -2.190  0.00  0.00    -0.650 OA
BRANCH   9  11
HETATM   11  O   UNK N   1      30.960  20.537  -3.569  0.00  0.00    -0.776 OA
HETATM   12  H   UNK N   1      31.340  19.706  -3.362  0.00  0.00     0.167 HD
ENDBRANCH   9  11
ENDBRANCH   7   9
ENDBRANCH   6   7
BRANCH   6  13
HETATM   13  N   UNK N   1      32.024  23.964  -4.421  0.00  0.00    -0.422 N 
HETATM   14  H   UNK N   1      32.558  23.095  -4.402  0.00  0.00     0.150 HD
HETATM   15  H   UNK N   1      32.262  24.692  -5.093  0.00  0.00     0.150 HD
ENDBRANCH   6  13
ENDBRANCH   5   6
ENDBRANCH   3   4
BRANCH   2  16
HETATM   16  C   UNK N   1      27.901  29.113  -5.103  0.00  0.00     0.034 C 
HETATM   17  C   UNK N   1      28.491  30.433  -5.586  0.00  0.00     0.017 C 
BRANCH  16  18
HETATM   18  C   UNK N   1      26.982  29.333  -3.853  0.00  0.00     0.132 C 
BRANCH  18  19
HETATM   19  C   UNK N   1      25.702  28.476  -3.902  0.00  0.00     0.071 C 
BRANCH  19  20
HETATM   20  C   UNK N   1      25.804  27.025  -4.300  0.00  0.00    -0.056 A 
HETATM   21  C   UNK N   1      25.268  26.641  -5.533  0.00  0.00     0.007 A 
HETATM   22  C   UNK N   1      25.351  25.310  -5.958  0.00  0.00     0.001 A 
HETATM   23  C   UNK N   1      25.970  24.354  -5.148  0.00  0.00     0.000 A 
HETATM   24  C   UNK N   1      26.503  24.728  -3.913  0.00  0.00     0.001 A 
HETATM   25  C   UNK N   1      26.422  26.056  -3.495  0.00  0.00     0.007 A 
ENDBRANCH  19  20
ENDBRANCH  18  19
BRANCH  18  26
HETATM   26  O   UNK N   1      27.587  29.255  -2.561  0.00  0.00    -0.390 OA
HETATM   27  C   UNK N   1      27.916  30.509  -2.018  0.00  0.00     0.202 C 
ENDBRANCH  18  26
ENDBRANCH  16  18
ENDBRANCH   2  16
TORSDOF 11
ENDMDL
MODEL 2
REMARK VINA RESULT:      -5.9     19.079     23.460
REMARK  11 active torsions:
REMARK  status: ('A' for Active; 'I' for Inactive)
REMARK    1  A    between atoms: C_14  and  C_10 
REMARK    2  A    between atoms: C_18  and  C_11 
REMARK    3  A    between atoms: C_15  and  C_12 
REMARK    4  A    between atoms: C_17  and  C_13 
REMARK    5  A    between atoms: C_19  and  C_13 
REMARK    6  A    between atoms: C_19  and  C_15 
REMARK    7  A    between atoms: C_18  and  C_16 
REMARK    8  A    between atoms: C_20  and  C_16 
REMARK    9  A    between atoms: C_18  and  N_21 
REMARK   10  A    between atoms: C_19  and  O_24 
REMARK   11  A    between atoms: O_23  and  C_20 
ROOT
HETATM    1  C   UNK N   1      35.031  12.029  10.685  0.00  0.00     0.048 C 
HETATM    2  C   UNK N   1      35.066  12.576  13.106  0.00  0.00    -0.013 C 
HETATM    3  C   UNK N   1      35.031  13.006  11.821  0.00  0.00    -0.066 C 
ENDROOT
BRANCH   3   4
HETATM    4  C   UNK N   1      35.179  14.455  11.508  0.00  0.00     0.004 C 
HETATM    5  C   UNK N   1      35.275  14.916  10.242  0.00  0.00    -0.001 C 
BRANCH   5   6
HETATM    6  C   UNK N   1      35.205  16.371   9.848  0.00  0.00     0.111 C 
BRANCH   6   7
HETATM    7  C   UNK N   1      34.113  16.757   8.820  0.00  0.00     0.105 C 
HETATM    8  C   UNK N   1      33.817  15.600   7.870  0.00  0.00     0.023 C 
BRANCH   7   9
HETATM    9  C   UNK N   1      34.578  17.923   7.987  0.00  0.00     0.145 C 
HETATM   10  O   UNK N   1      34.423  17.911   6.772  0.00  0.00    -0.650 OA
BRANCH   9  11
HETATM   11  O   UNK N   1      35.154  18.988   8.571  0.00  0.00    -0.776 OA
HETATM   12  H   UNK N   1      34.898  19.889   8.557  0.00  0.00     0.167 HD
ENDBRANCH   9  11
ENDBRANCH   7   9
ENDBRANCH   6   7
BRANCH   6  13
HETATM   13  N   UNK N   1      35.130  17.201  11.040  0.00  0.00    -0.422 N 
HETATM   14  H   UNK N   1      34.280  17.216  11.604  0.00  0.00     0.150 HD
HETATM   15  H   UNK N   1      35.930  17.771  11.312  0.00  0.00     0.150 HD
ENDBRANCH   6  13
ENDBRANCH   5   6
ENDBRANCH   3   4
BRANCH   2  16
HETATM   16  C   UNK N   1      35.123  11.123  13.504  0.00  0.00     0.034 C 
HETATM   17  C   UNK N   1      33.718  10.612  13.803  0.00  0.00     0.017 C 
BRANCH  16  18
HETATM   18  C   UNK N   1      36.064  10.939  14.743  0.00  0.00     0.132 C 
BRANCH  18  19
HETATM   19  C   UNK N   1      35.298  10.508  16.009  0.00  0.00     0.071 C 
BRANCH  19  20
HETATM   20  C   UNK N   1      35.281  11.424  17.206  0.00  0.00    -0.056 A 
HETATM   21  C   UNK N   1      35.175  12.800  16.981  0.00  0.00     0.007 A 
HETATM   22  C   UNK N   1      35.137  13.693  18.058  0.00  0.00     0.001 A 
HETATM   23  C   UNK N   1      35.209  13.213  19.368  0.00  0.00     0.000 A 
HETATM   24  C   UNK N   1      35.320  11.842  19.602  0.00  0.00     0.001 A 
HETATM   25  C   UNK N   1      35.353  10.954  18.526  0.00  0.00     0.007 A 
ENDBRANCH  19  20
ENDBRANCH  18  19
BRANCH  18  26
HETATM   26  O   UNK N   1      37.238  10.143  14.573  0.00  0.00    -0.390 OA
HETATM   27  C   UNK N   1      38.365  10.882  14.170  0.00  0.00     0.202 C 
ENDBRANCH  18  26
ENDBRANCH  16  18
ENDBRANCH   2  16
TORSDOF 11
ENDMDL
MODEL 3
REMARK VINA RESULT:      -5.7     20.076     24.441
REMARK  11 active torsions:
REMARK  status: ('A' for Active; 'I' for Inactive)
REMARK    1  A    between atoms: C_14  and  C_10 
REMARK    2  A    between atoms: C_18  and  C_11 
REMARK    3  A    between atoms: C_15  and  C_12 
REMARK    4  A    between atoms: C_17  and  C_13 
REMARK    5  A    between atoms: C_19  and  C_13 
REMARK    6  A    between atoms: C_19  and  C_15 
REMARK    7  A    between atoms: C_18  and  C_16 
REMARK    8  A    between atoms: C_20  and  C_16 
REMARK    9  A    between atoms: C_18  and  N_21 
REMARK   10  A    between atoms: C_19  and  O_24 
REMARK   11  A    between atoms: O_23  and  C_20 
ROOT
HETATM    1  C   UNK N   1      36.764  14.031  14.679  0.00  0.00     0.048 C 
HETATM    2  C   UNK N   1      36.796  11.828  13.536  0.00  0.00    -0.013 C 
HETATM    3  C   UNK N   1      36.565  13.162  13.475  0.00  0.00    -0.066 C 
ENDROOT
BRANCH   3   4
HETATM    4  C   UNK N   1      35.935  13.763  12.266  0.00  0.00     0.004 C 
HETATM    5  C   UNK N   1      36.076  15.069  11.949  0.00  0.00    -0.001 C 
BRANCH   5   6
HETATM    6  C   UNK N   1      35.654  15.687  10.640  0.00  0.00     0.111 C 
BRANCH   6   7
HETATM    7  C   UNK N   1      34.762  14.816   9.720  0.00  0.00     0.105 C 
HETATM    8  C   UNK N   1      35.242  14.873   8.272  0.00  0.00     0.023 C 
BRANCH   7   9
HETATM    9  C   UNK N   1      33.343  15.321   9.748  0.00  0.00     0.145 C 
HETATM   10  O   UNK N   1      32.905  15.980   8.813  0.00  0.00    -0.650 OA
BRANCH   9  11
HETATM   11  O   UNK N   1      32.545  15.042  10.793  0.00  0.00    -0.776 OA
HETATM   12  H   UNK N   1      32.518  14.282  11.340  0.00  0.00     0.167 HD
ENDBRANCH   9  11
ENDBRANCH   7   9
ENDBRANCH   6   7
BRANCH   6  13
HETATM   13  N   UNK N   1      35.056  16.991  10.879  0.00  0.00    -0.422 N 
HETATM   14  H   UNK N   1      34.142  17.218  10.486  0.00  0.00     0.150 HD
HETATM   15  H   UNK N   1      35.552  17.681  11.441  0.00  0.00     0.150 HD
ENDBRANCH   6  13
ENDBRANCH   5   6
ENDBRANCH   3   4
BRANCH   2  16
HETATM   16  C   UNK N   1      37.242  11.109  14.783  0.00  0.00     0.034 C 
HETATM   17  C   UNK N   1      38.592  10.443  14.542  0.00  0.00     0.017 C 
BRANCH  16  18
HETATM   18  C   UNK N   1      36.165  10.056  15.215  0.00  0.00     0.132 C 
BRANCH  18  19
HETATM   19  C   UNK N   1      34.944  10.705  15.897  0.00  0.00     0.071 C 
BRANCH  19  20
HETATM   20  C   UNK N   1      35.115  11.352  17.248  0.00  0.00    -0.056 A 
HETATM   21  C   UNK N   1      35.000  12.743  17.332  0.00  0.00     0.007 A 
HETATM   22  C   UNK N   1      35.132  13.391  18.565  0.00  0.00     0.001 A 
HETATM   23  C   UNK N   1      35.385  12.650  19.722  0.00  0.00     0.000 A 
HETATM   24  C   UNK N   1      35.506  11.262  19.647  0.00  0.00     0.001 A 
HETATM   25  C   UNK N   1      35.369  10.618  18.416  0.00  0.00     0.007 A 
ENDBRANCH  19  20
ENDBRANCH  18  19
BRANCH  18  26
HETATM   26  O   UNK N   1      35.745   9.099  14.242  0.00  0.00    -0.390 OA
HETATM   27  C   UNK N   1      35.941   7.766  14.645  0.00  0.00     0.202 C 
ENDBRANCH  18  26
ENDBRANCH  16  18
ENDBRANCH   2  16
TORSDOF 11
ENDMDL
MODEL 4
REMARK VINA RESULT:      -5.6      2.336      4.571
REMARK  11 active torsions:
REMARK  status: ('A' for Active; 'I' for Inactive)
REMARK    1  A    between atoms: C_14  and  C_10 
REMARK    2  A    between atoms: C_18  and  C_11 
REMARK    3  A    between atoms: C_15  and  C_12 
REMARK    4  A    between atoms: C_17  and  C_13 
REMARK    5  A    between atoms: C_19  and  C_13 
REMARK    6  A    between atoms: C_19  and  C_15 
REMARK    7  A    between atoms: C_18  and  C_16 
REMARK    8  A    between atoms: C_20  and  C_16 
REMARK    9  A    between atoms: C_18  and  N_21 
REMARK   10  A    between atoms: C_19  and  O_24 
REMARK   11  A    between atoms: O_23  and  C_20 
ROOT
HETATM    1  C   UNK N   1      26.861  24.549  -3.757  0.00  0.00     0.048 C 
HETATM    2  C   UNK N   1      27.587  23.676  -5.964  0.00  0.00    -0.013 C 
HETATM    3  C   UNK N   1      27.903  24.011  -4.689  0.00  0.00    -0.066 C 
ENDROOT
BRANCH   3   4
HETATM    4  C   UNK N   1      29.324  24.023  -4.244  0.00  0.00     0.004 C 
HETATM    5  C   UNK N   1      30.043  22.891  -4.084  0.00  0.00    -0.001 C 
BRANCH   5   6
HETATM    6  C   UNK N   1      31.533  22.843  -3.851  0.00  0.00     0.111 C 
BRANCH   6   7
HETATM    7  C   UNK N   1      32.257  21.541  -4.273  0.00  0.00     0.105 C 
HETATM    8  C   UNK N   1      31.263  20.404  -4.494  0.00  0.00     0.023 C 
BRANCH   7   9
HETATM    9  C   UNK N   1      33.212  21.107  -3.191  0.00  0.00     0.145 C 
HETATM   10  O   UNK N   1      34.346  20.746  -3.480  0.00  0.00    -0.650 OA
BRANCH   9  11
HETATM   11  O   UNK N   1      32.830  21.124  -1.903  0.00  0.00    -0.776 OA
HETATM   12  H   UNK N   1      32.138  20.656  -1.477  0.00  0.00     0.167 HD
ENDBRANCH   9  11
ENDBRANCH   7   9
ENDBRANCH   6   7
BRANCH   6  13
HETATM   13  N   UNK N   1      32.162  24.015  -4.440  0.00  0.00    -0.422 N 
HETATM   14  H   UNK N   1      33.166  24.162  -4.345  0.00  0.00     0.150 HD
HETATM   15  H   UNK N   1      31.596  24.692  -4.950  0.00  0.00     0.150 HD
ENDBRANCH   6  13
ENDBRANCH   5   6
ENDBRANCH   3   4
BRANCH   2  16
HETATM   16  C   UNK N   1      26.208  23.825  -6.554  0.00  0.00     0.034 C 
HETATM   17  C   UNK N   1      25.574  22.452  -6.743  0.00  0.00     0.017 C 
BRANCH  16  18
HETATM   18  C   UNK N   1      26.283  24.602  -7.914  0.00  0.00     0.132 C 
BRANCH  18  19
HETATM   19  C   UNK N   1      25.617  25.990  -7.839  0.00  0.00     0.071 C 
BRANCH  19  20
HETATM   20  C   UNK N   1      25.890  26.873  -6.648  0.00  0.00    -0.056 A 
HETATM   21  C   UNK N   1      27.108  27.559  -6.601  0.00  0.00     0.007 A 
HETATM   22  C   UNK N   1      27.403  28.405  -5.527  0.00  0.00     0.001 A 
HETATM   23  C   UNK N   1      26.481  28.567  -4.490  0.00  0.00     0.000 A 
HETATM   24  C   UNK N   1      25.265  27.883  -4.525  0.00  0.00     0.001 A 
HETATM   25  C   UNK N   1      24.972  27.043  -5.601  0.00  0.00     0.007 A 
ENDBRANCH  19  20
ENDBRANCH  18  19
BRANCH  18  26
HETATM   26  O   UNK N   1      27.555  24.691  -8.558  0.00  0.00    -0.390 OA
HETATM   27  C   UNK N   1      27.629  23.960  -9.757  0.00  0.00     0.202 C 
ENDBRANCH  18  26
ENDBRANCH  16  18
ENDBRANCH   2  16
TORSDOF 11
ENDMDL
MODEL 5
REMARK VINA RESULT:      -5.6      1.187      1.790
REMARK  11 active torsions:
REMARK  status: ('A' for Active; 'I' for Inactive)
REMARK    1  A    between atoms: C_14  and  C_10 
REMARK    2  A    between atoms: C_18  and  C_11 
REMARK    3  A    between atoms: C_15  and  C_12 
REMARK    4  A    between atoms: C_17  and  C_13 
REMARK    5  A    between atoms: C_19  and  C_13 
REMARK    6  A    between atoms: C_19  and  C_15 
REMARK    7  A    between atoms: C_18  and  C_16 
REMARK    8  A    between atoms: C_20  and  C_16 
REMARK    9  A    between atoms: C_18  and  N_21 
REMARK   10  A    between atoms: C_19  and  O_24 
REMARK   11  A    between atoms: O_23  and  C_20 
ROOT
HETATM    1  C   UNK N   1      28.776  26.501  -6.691  0.00  0.00     0.048 C 
HETATM    2  C   UNK N   1      29.271  27.652  -4.549  0.00  0.00    -0.013 C 
HETATM    3  C   UNK N   1      29.453  26.579  -5.357  0.00  0.00    -0.066 C 
ENDROOT
BRANCH   3   4
HETATM    4  C   UNK N   1      30.179  25.376  -4.861  0.00  0.00     0.004 C 
HETATM    5  C   UNK N   1      29.894  24.129  -5.295  0.00  0.00    -0.001 C 
BRANCH   5   6
HETATM    6  C   UNK N   1      30.728  22.906  -5.003  0.00  0.00     0.111 C 
BRANCH   6   7
HETATM    7  C   UNK N   1      31.905  23.092  -4.013  0.00  0.00     0.105 C 
HETATM    8  C   UNK N   1      33.164  22.391  -4.516  0.00  0.00     0.023 C 
BRANCH   7   9
HETATM    9  C   UNK N   1      31.555  22.492  -2.676  0.00  0.00     0.145 C 
HETATM   10  O   UNK N   1      30.777  23.069  -1.927  0.00  0.00    -0.650 OA
BRANCH   9  11
HETATM   11  O   UNK N   1      32.085  21.315  -2.301  0.00  0.00    -0.776 OA
HETATM   12  H   UNK N   1      31.858  20.758  -1.583  0.00  0.00     0.167 HD
ENDBRANCH   9  11
ENDBRANCH   7   9
ENDBRANCH   6   7
BRANCH   6  13
HETATM   13  N   UNK N   1      29.866  21.805  -4.602  0.00  0.00    -0.422 N 
HETATM   14  H   UNK N   1      29.432  21.801  -3.679  0.00  0.00     0.150 HD
HETATM   15  H   UNK N   1      29.696  21.035  -5.246  0.00  0.00     0.150 HD
ENDBRANCH   6  13
ENDBRANCH   5   6
ENDBRANCH   3   4
BRANCH   2  16
HETATM   16  C   UNK N   1      28.387  28.823  -4.893  0.00  0.00     0.034 C 
HETATM   17  C   UNK N   1      29.242  30.007  -5.331  0.00  0.00     0.017 C 
BRANCH  16  18
HETATM   18  C   UNK N   1      27.489  29.201  -3.666  0.00  0.00     0.132 C 
BRANCH  18  19
HETATM   19  C   UNK N   1      26.094  28.550  -3.731  0.00  0.00     0.071 C 
BRANCH  19  20
HETATM   20  C   UNK N   1      25.961  27.148  -4.271  0.00  0.00    -0.056 A 
HETATM   21  C   UNK N   1      26.419  26.091  -3.479  0.00  0.00     0.007 A 
HETATM   22  C   UNK N   1      26.304  24.770  -3.926  0.00  0.00     0.001 A 
HETATM   23  C   UNK N   1      25.731  24.500  -5.172  0.00  0.00     0.000 A 
HETATM   24  C   UNK N   1      25.276  25.549  -5.971  0.00  0.00     0.001 A 
HETATM   25  C   UNK N   1      25.389  26.865  -5.520  0.00  0.00     0.007 A 
ENDBRANCH  19  20
ENDBRANCH  18  19
BRANCH  18  26
HETATM   26  O   UNK N   1      28.050  29.052  -2.361  0.00  0.00    -0.390 OA
HETATM   27  C   UNK N   1      28.081  30.248  -1.623  0.00  0.00     0.202 C 
ENDBRANCH  18  26
ENDBRANCH  16  18
ENDBRANCH   2  16
TORSDOF 11
ENDMDL
MODEL 6
REMARK VINA RESULT:      -5.6     12.183     15.098
REMARK  11 active torsions:
REMARK  status: ('A' for Active; 'I' for Inactive)
REMARK    1  A    between atoms: C_14  and  C_10 
REMARK    2  A    between atoms: C_18  and  C_11 
REMARK    3  A    between atoms: C_15  and  C_12 
REMARK    4  A    between atoms: C_17  and  C_13 
REMARK    5  A    between atoms: C_19  and  C_13 
REMARK    6  A    between atoms: C_19  and  C_15 
REMARK    7  A    between atoms: C_18  and  C_16 
REMARK    8  A    between atoms: C_20  and  C_16 
REMARK    9  A    between atoms: C_18  and  N_21 
REMARK   10  A    between atoms: C_19  and  O_24 
REMARK   11  A    between atoms: O_23  and  C_20 
ROOT
HETATM    1  C   UNK N   1      31.444  15.864   9.259  0.00  0.00     0.048 C 
HETATM    2  C   UNK N   1      32.316  17.913   8.163  0.00  0.00    -0.013 C 
HETATM    3  C   UNK N   1      31.262  17.231   8.674  0.00  0.00    -0.066 C 
ENDROOT
BRANCH   3   4
HETATM    4  C   UNK N   1      29.875  17.747   8.498  0.00  0.00     0.004 C 
HETATM    5  C   UNK N   1      29.356  18.029   7.284  0.00  0.00    -0.001 C 
BRANCH   5   6
HETATM    6  C   UNK N   1      27.903  18.340   7.021  0.00  0.00     0.111 C 
BRANCH   6   7
HETATM    7  C   UNK N   1      27.602  19.269   5.818  0.00  0.00     0.105 C 
HETATM    8  C   UNK N   1      27.312  20.694   6.282  0.00  0.00     0.023 C 
BRANCH   7   9
HETATM    9  C   UNK N   1      26.387  18.776   5.077  0.00  0.00     0.145 C 
HETATM   10  O   UNK N   1      26.516  18.106   4.060  0.00  0.00    -0.650 OA
BRANCH   9  11
HETATM   11  O   UNK N   1      25.154  19.058   5.532  0.00  0.00    -0.776 OA
HETATM   12  H   UNK N   1      24.325  18.709   5.269  0.00  0.00     0.167 HD
ENDBRANCH   9  11
ENDBRANCH   7   9
ENDBRANCH   6   7
BRANCH   6  13
HETATM   13  N   UNK N   1      27.140  17.105   6.942  0.00  0.00    -0.422 N 
HETATM   14  H   UNK N   1      27.612  16.221   6.750  0.00  0.00     0.150 HD
HETATM   15  H   UNK N   1      26.131  17.123   7.078  0.00  0.00     0.150 HD
ENDBRANCH   6  13
ENDBRANCH   5   6
ENDBRANCH   3   4
BRANCH   2  16
HETATM   16  C   UNK N   1      33.723  17.374   8.119  0.00  0.00     0.034 C 
HETATM   17  C   UNK N   1      34.721  18.523   8.200  0.00  0.00     0.017 C 
BRANCH  16  18
HETATM   18  C   UNK N   1      33.939  16.532   6.815  0.00  0.00     0.132 C 
BRANCH  18  19
HETATM   19  C   UNK N   1      33.280  17.176   5.579  0.00  0.00     0.071 C 
BRANCH  19  20
HETATM   20  C   UNK N   1      31.944  16.660   5.106  0.00  0.00    -0.056 A 
HETATM   21  C   UNK N   1      31.518  15.412   5.569  0.00  0.00     0.007 A 
HETATM   22  C   UNK N   1      30.279  14.895   5.173  0.00  0.00     0.001 A 
HETATM   23  C   UNK N   1      29.460  15.626   4.308  0.00  0.00     0.000 A 
HETATM   24  C   UNK N   1      29.879  16.870   3.837  0.00  0.00     0.001 A 
HETATM   25  C   UNK N   1      31.114  17.384   4.237  0.00  0.00     0.007 A 
ENDBRANCH  19  20
ENDBRANCH  18  19
BRANCH  18  26
HETATM   26  O   UNK N   1      35.269  16.110   6.510  0.00  0.00    -0.390 OA
HETATM   27  C   UNK N   1      35.321  14.988   5.663  0.00  0.00     0.202 C 
ENDBRANCH  18  26
ENDBRANCH  16  18
ENDBRANCH   2  16
TORSDOF 11
ENDMDL
MODEL 7
REMARK VINA RESULT:      -5.5      2.516      4.554
REMARK  11 active torsions:
REMARK  status: ('A' for Active; 'I' for Inactive)
REMARK    1  A    between atoms: C_14  and  C_10 
REMARK    2  A    between atoms: C_18  and  C_11 
REMARK    3  A    between atoms: C_15  and  C_12 
REMARK    4  A    between atoms: C_17  and  C_13 
REMARK    5  A    between atoms: C_19  and  C_13 
REMARK    6  A    between atoms: C_19  and  C_15 
REMARK    7  A    between atoms: C_18  and  C_16 
REMARK    8  A    between atoms: C_20  and  C_16 
REMARK    9  A    between atoms: C_18  and  N_21 
REMARK   10  A    between atoms: C_19  and  O_24 
REMARK   11  A    between atoms: O_23  and  C_20 
ROOT
HETATM    1  C   UNK N   1      26.243  23.994  -4.770  0.00  0.00     0.048 C 
HETATM    2  C   UNK N   1      27.153  24.274  -7.062  0.00  0.00    -0.013 C 
HETATM    3  C   UNK N   1      27.356  23.917  -5.771  0.00  0.00    -0.066 C 
ENDROOT
BRANCH   3   4
HETATM    4  C   UNK N   1      28.730  23.619  -5.279  0.00  0.00     0.004 C 
HETATM    5  C   UNK N   1      29.255  22.374  -5.308  0.00  0.00    -0.001 C 
BRANCH   5   6
HETATM    6  C   UNK N   1      30.701  22.044  -5.034  0.00  0.00     0.111 C 
BRANCH   6   7
HETATM    7  C   UNK N   1      31.469  23.019  -4.107  0.00  0.00     0.105 C 
HETATM    8  C   UNK N   1      32.924  23.166  -4.546  0.00  0.00     0.023 C 
BRANCH   7   9
HETATM    9  C   UNK N   1      31.472  22.496  -2.695  0.00  0.00     0.145 C 
HETATM   10  O   UNK N   1      32.270  21.628  -2.361  0.00  0.00    -0.650 OA
BRANCH   9  11
HETATM   11  O   UNK N   1      30.608  22.984  -1.789  0.00  0.00    -0.776 OA
HETATM   12  H   UNK N   1      30.476  22.739  -0.894  0.00  0.00     0.167 HD
ENDBRANCH   9  11
ENDBRANCH   7   9
ENDBRANCH   6   7
BRANCH   6  13
HETATM   13  N   UNK N   1      30.815  20.671  -4.570  0.00  0.00    -0.422 N 
HETATM   14  H   UNK N   1      31.607  20.386  -3.994  0.00  0.00     0.150 HD
HETATM   15  H   UNK N   1      30.099  19.990  -4.821  0.00  0.00     0.150 HD
ENDBRANCH   6  13
ENDBRANCH   5   6
ENDBRANCH   3   4
BRANCH   2  16
HETATM   16  C   UNK N   1      25.839  24.782  -7.596  0.00  0.00     0.034 C 
HETATM   17  C   UNK N   1      25.276  23.795  -8.613  0.00  0.00     0.017 C 
BRANCH  16  18
HETATM   18  C   UNK N   1      26.026  26.201  -8.235  0.00  0.00     0.132 C 
BRANCH  18  19
HETATM   19  C   UNK N   1      27.152  27.009  -7.561  0.00  0.00     0.071 C 
BRANCH  19  20
HETATM   20  C   UNK N   1      26.843  27.805  -6.318  0.00  0.00    -0.056 A 
HETATM   21  C   UNK N   1      27.616  28.938  -6.051  0.00  0.00     0.007 A 
HETATM   22  C   UNK N   1      27.359  29.721  -4.921  0.00  0.00     0.001 A 
HETATM   23  C   UNK N   1      26.326  29.371  -4.047  0.00  0.00     0.000 A 
HETATM   24  C   UNK N   1      25.553  28.238  -4.302  0.00  0.00     0.001 A 
HETATM   25  C   UNK N   1      25.809  27.462  -5.433  0.00  0.00     0.007 A 
ENDBRANCH  19  20
ENDBRANCH  18  19
BRANCH  18  26
HETATM   26  O   UNK N   1      26.136  26.280  -9.657  0.00  0.00    -0.390 OA
HETATM   27  C   UNK N   1      27.431  26.603 -10.103  0.00  0.00     0.202 C 
ENDBRANCH  18  26
ENDBRANCH  16  18
ENDBRANCH   2  16
TORSDOF 11
ENDMDL
MODEL 8
REMARK VINA RESULT:      -5.4     11.278     15.167
REMARK  11 active torsions:
REMARK  status: ('A' for Active; 'I' for Inactive)
REMARK    1  A    between atoms: C_14  and  C_10 
REMARK    2  A    between atoms: C_18  and  C_11 
REMARK    3  A    between atoms: C_15  and  C_12 
REMARK    4  A    between atoms: C_17  and  C_13 
REMARK    5  A    between atoms: C_19  and  C_13 
REMARK    6  A    between atoms: C_19  and  C_15 
REMARK    7  A    between atoms: C_18  and  C_16 
REMARK    8  A    between atoms: C_20  and  C_16 
REMARK    9  A    between atoms: C_18  and  N_21 
REMARK   10  A    between atoms: C_19  and  O_24 
REMARK   11  A    between atoms: O_23  and  C_20 
ROOT
HETATM    1  C   UNK N   1      30.624  14.563   5.587  0.00  0.00     0.048 C 
HETATM    2  C   UNK N   1      31.288  15.920   7.556  0.00  0.00    -0.013 C 
HETATM    3  C   UNK N   1      30.386  15.662   6.577  0.00  0.00    -0.066 C 
ENDROOT
BRANCH   3   4
HETATM    4  C   UNK N   1      29.234  16.579   6.353  0.00  0.00     0.004 C 
HETATM    5  C   UNK N   1      29.277  17.889   6.679  0.00  0.00    -0.001 C 
BRANCH   5   6
HETATM    6  C   UNK N   1      28.239  18.909   6.282  0.00  0.00     0.111 C 
BRANCH   6   7
HETATM    7  C   UNK N   1      27.508  18.664   4.939  0.00  0.00     0.105 C 
HETATM    8  C   UNK N   1      27.444  19.940   4.104  0.00  0.00     0.023 C 
BRANCH   7   9
HETATM    9  C   UNK N   1      26.092  18.218   5.196  0.00  0.00     0.145 C 
HETATM   10  O   UNK N   1      25.833  17.027   5.313  0.00  0.00    -0.650 OA
BRANCH   9  11
HETATM   11  O   UNK N   1      25.105  19.124   5.309  0.00  0.00    -0.776 OA
HETATM   12  H   UNK N   1      24.600  19.545   4.642  0.00  0.00     0.167 HD
ENDBRANCH   9  11
ENDBRANCH   7   9
ENDBRANCH   6   7
BRANCH   6  13
HETATM   13  N   UNK N   1      27.296  19.104   7.372  0.00  0.00    -0.422 N 
HETATM   14  H   UNK N   1      26.349  18.733   7.305  0.00  0.00     0.150 HD
HETATM   15  H   UNK N   1      27.584  19.614   8.206  0.00  0.00     0.150 HD
ENDBRANCH   6  13
ENDBRANCH   5   6
ENDBRANCH   3   4
BRANCH   2  16
HETATM   16  C   UNK N   1      32.581  15.166   7.727  0.00  0.00     0.034 C 
HETATM   17  C   UNK N   1      32.499  14.269   8.957  0.00  0.00     0.017 C 
BRANCH  16  18
HETATM   18  C   UNK N   1      33.781  16.168   7.840  0.00  0.00     0.132 C 
BRANCH  18  19
HETATM   19  C   UNK N   1      34.567  16.301   6.521  0.00  0.00     0.071 C 
BRANCH  19  20
HETATM   20  C   UNK N   1      33.809  16.435   5.225  0.00  0.00    -0.056 A 
HETATM   21  C   UNK N   1      33.051  17.592   5.020  0.00  0.00     0.007 A 
HETATM   22  C   UNK N   1      32.343  17.773   3.827  0.00  0.00     0.001 A 
HETATM   23  C   UNK N   1      32.387  16.793   2.831  0.00  0.00     0.000 A 
HETATM   24  C   UNK N   1      33.137  15.633   3.029  0.00  0.00     0.001 A 
HETATM   25  C   UNK N   1      33.845  15.458   4.218  0.00  0.00     0.007 A 
ENDBRANCH  19  20
ENDBRANCH  18  19
BRANCH  18  26
HETATM   26  O   UNK N   1      33.520  17.456   8.400  0.00  0.00    -0.390 OA
HETATM   27  C   UNK N   1      34.614  18.335   8.319  0.00  0.00     0.202 C 
ENDBRANCH  18  26
ENDBRANCH  16  18
ENDBRANCH   2  16
TORSDOF 11
ENDMDL
MODEL 9
REMARK VINA RESULT:      -5.3      3.279      5.480
REMARK  11 active torsions:
REMARK  status: ('A' for Active; 'I' for Inactive)
REMARK    1  A    between atoms: C_14  and  C_10 
REMARK    2  A    between atoms: C_18  and  C_11 
REMARK    3  A    between atoms: C_15  and  C_12 
REMARK    4  A    between atoms: C_17  and  C_13 
REMARK    5  A    between atoms: C_19  and  C_13 
REMARK    6  A    between atoms: C_19  and  C_15 
REMARK    7  A    between atoms: C_18  and  C_16 
REMARK    8  A    between atoms: C_20  and  C_16 
REMARK    9  A    between atoms: C_18  and  N_21 
REMARK   10  A    between atoms: C_19  and  O_24 
REMARK   11  A    between atoms: O_23  and  C_20 
ROOT
HETATM    1  C   UNK N   1      28.734  20.041  -7.785  0.00  0.00     0.048 C 
HETATM    2  C   UNK N   1      28.358  22.466  -7.414  0.00  0.00    -0.013 C 
HETATM    3  C   UNK N   1      29.172  21.388  -7.299  0.00  0.00    -0.066 C 
ENDROOT
BRANCH   3   4
HETATM    4  C   UNK N   1      30.440  21.481  -6.523  0.00  0.00     0.004 C 
HETATM    5  C   UNK N   1      30.828  20.525  -5.651  0.00  0.00    -0.001 C 
BRANCH   5   6
HETATM    6  C   UNK N   1      32.189  20.450  -5.005  0.00  0.00     0.111 C 
BRANCH   6   7
HETATM    7  C   UNK N   1      32.686  21.730  -4.289  0.00  0.00     0.105 C 
HETATM    8  C   UNK N   1      34.198  21.888  -4.428  0.00  0.00     0.023 C 
BRANCH   7   9
HETATM    9  C   UNK N   1      32.370  21.655  -2.818  0.00  0.00     0.145 C 
HETATM   10  O   UNK N   1      31.326  22.129  -2.388  0.00  0.00    -0.650 OA
BRANCH   9  11
HETATM   11  O   UNK N   1      33.226  21.058  -1.970  0.00  0.00    -0.776 OA
HETATM   12  H   UNK N   1      33.979  21.407  -1.536  0.00  0.00     0.167 HD
ENDBRANCH   9  11
ENDBRANCH   7   9
ENDBRANCH   6   7
BRANCH   6  13
HETATM   13  N   UNK N   1      32.256  19.291  -4.128  0.00  0.00    -0.422 N 
HETATM   14  H   UNK N   1      33.037  18.638  -4.199  0.00  0.00     0.150 HD
HETATM   15  H   UNK N   1      31.521  19.132  -3.441  0.00  0.00     0.150 HD
ENDBRANCH   6  13
ENDBRANCH   5   6
ENDBRANCH   3   4
BRANCH   2  16
HETATM   16  C   UNK N   1      26.974  22.413  -8.006  0.00  0.00     0.034 C 
HETATM   17  C   UNK N   1      27.011  22.887  -9.455  0.00  0.00     0.017 C 
BRANCH  16  18
HETATM   18  C   UNK N   1      25.988  23.285  -7.155  0.00  0.00     0.132 C 
BRANCH  18  19
HETATM   19  C   UNK N   1      25.714  24.661  -7.793  0.00  0.00     0.071 C 
BRANCH  19  20
HETATM   20  C   UNK N   1      25.990  25.910  -6.993  0.00  0.00    -0.056 A 
HETATM   21  C   UNK N   1      25.245  26.126  -5.830  0.00  0.00     0.007 A 
HETATM   22  C   UNK N   1      25.473  27.261  -5.044  0.00  0.00     0.001 A 
HETATM   23  C   UNK N   1      26.449  28.188  -5.420  0.00  0.00     0.000 A 
HETATM   24  C   UNK N   1      27.193  27.983  -6.582  0.00  0.00     0.001 A 
HETATM   25  C   UNK N   1      26.966  26.848  -7.362  0.00  0.00     0.007 A 
ENDBRANCH  19  20
ENDBRANCH  18  19
BRANCH  18  26
HETATM   26  O   UNK N   1      24.767  22.680  -6.726  0.00  0.00    -0.390 OA
HETATM   27  C   UNK N   1      24.663  21.321  -7.070  0.00  0.00     0.202 C 
ENDBRANCH  18  26
ENDBRANCH  16  18
ENDBRANCH   2  16
TORSDOF 11
ENDMDL
