REMARK  10 active torsions:
REMARK  status: ('A' for Active; 'I' for Inactive)
REMARK    1  A    between atoms: C_7  and  C_8 
REMARK    2  A    between atoms: C_8  and  C_9 
REMARK    3  A    between atoms: C_9  and  C_10 
REMARK    4  A    between atoms: C_10  and  C_11 
REMARK    5  A    between atoms: C_11  and  C_12 
REMARK    6  A    between atoms: C_12  and  C_13 
REMARK    7  A    between atoms: C_13  and  C_14 
REMARK    8  A    between atoms: C_14  and  C_15 
REMARK    9  A    between atoms: C_15  and  C_16 
REMARK       I    between atoms: C_16  and  N_18 
REMARK   10  A    between atoms: C_19  and  N_18 
ROOT
HETATM    1  C   UNK N   1       1.251  -4.938  -1.573  0.00  0.00     0.048 C 
HETATM    2  C   UNK N   1       1.190  -3.452  -1.495  0.00  0.00    -0.058 A 
HETATM    3  C   UNK N   1       0.487  -2.848  -0.464  0.00  0.00     0.040 A 
HETATM    4  C   UNK N   1       0.554  -1.451  -0.292  0.00  0.00     0.085 A 
HETATM    5  C   UNK N   1       0.008  -0.863   0.796  0.00  0.00     0.085 A 
HETATM    6  C   UNK N   1      -0.893  -1.599   1.568  0.00  0.00     0.041 C 
HETATM    7  C   UNK N   1      -1.696  -0.968   2.489  0.00  0.00    -0.054 C 
HETATM    8  C   UNK N   1      -1.526   0.414   2.698  0.00  0.00     0.026 C 
HETATM    9  C   UNK N   1      -0.546   1.131   1.959  0.00  0.00     0.118 C 
HETATM   10  N   UNK N   1       0.240   0.480   1.046  0.00  0.00    -0.259 N 
HETATM   11 Ru   UNK N   1       1.375   1.388  -0.545  0.00  0.00     0.000 Ru
HETATM   12  N   UNK N   1       2.805   2.755   0.566  0.00  0.00    -0.259 N 
HETATM   13  C   UNK N   1       2.497   3.877   1.300  0.00  0.00     0.117 C 
HETATM   14  C   UNK N   1       3.454   4.742   1.828  0.00  0.00     0.019 C 
HETATM   15  C   UNK N   1       4.790   4.457   1.644  0.00  0.00     0.004 C 
HETATM   16  C   UNK N   1       5.126   3.259   1.045  0.00  0.00     0.034 C 
HETATM   17  C   UNK N   1       4.120   2.400   0.546  0.00  0.00     0.085 C 
HETATM   18  C   UNK N   1       4.422   1.212   0.104  0.00  0.00     0.085 C 
HETATM   19  C   UNK N   1       5.764   0.763   0.146  0.00  0.00     0.034 C 
HETATM   20  C   UNK N   1       6.064  -0.554  -0.129  0.00  0.00     0.004 C 
HETATM   21  C   UNK N   1       5.023  -1.427  -0.367  0.00  0.00     0.019 C 
HETATM   22  C   UNK N   1       3.717  -0.935  -0.427  0.00  0.00     0.117 C 
HETATM   23  N   UNK N   1       3.401   0.394  -0.271  0.00  0.00    -0.259 N 
HETATM   24  N   UNK N   1      -0.746   1.255  -1.229  0.00  0.00    -0.259 N 
HETATM   25  C   UNK N   1      -1.328   0.113  -1.709  0.00  0.00     0.117 A 
HETATM   26  C   UNK N   1      -2.686   0.067  -2.040  0.00  0.00     0.019 A 
HETATM   27  C   UNK N   1      -3.477   1.193  -1.872  0.00  0.00     0.004 A 
HETATM   28  C   UNK N   1      -2.896   2.354  -1.411  0.00  0.00     0.034 A 
HETATM   29  C   UNK N   1      -1.525   2.370  -1.102  0.00  0.00     0.085 A 
HETATM   30  C   UNK N   1      -0.941   3.480  -0.767  0.00  0.00     0.085 C 
HETATM   31  C   UNK N   1      -1.641   4.711  -0.741  0.00  0.00     0.034 C 
HETATM   32  C   UNK N   1      -0.950   5.904  -0.589  0.00  0.00     0.004 C 
HETATM   33  C   UNK N   1       0.425   5.861  -0.546  0.00  0.00     0.019 C 
HETATM   34  C   UNK N   1       1.054   4.622  -0.543  0.00  0.00     0.117 C 
HETATM   35  N   UNK N   1       0.388   3.419  -0.540  0.00  0.00    -0.259 N 
HETATM   36  N   UNK N   1       1.213  -0.671  -1.207  0.00  0.00    -0.259 N 
HETATM   37  C   UNK N   1       1.906  -1.263  -2.238  0.00  0.00     0.118 A 
HETATM   38  C   UNK N   1       1.909  -2.660  -2.390  0.00  0.00     0.026 A 
ENDROOT
BRANCH   7  39
HETATM   39  C   UNK N   1      -2.744  -1.784   3.204  0.00  0.00     0.038 C 
BRANCH  39  40
HETATM   40  C   UNK N   1      -3.902  -2.328   2.334  0.00  0.00     0.005 C 
BRANCH  40  41
HETATM   41  C   UNK N   1      -3.531  -3.117   1.071  0.00  0.00     0.000 C 
BRANCH  41  42
HETATM   42  C   UNK N   1      -3.632  -2.260  -0.191  0.00  0.00     0.000 C 
BRANCH  42  43
HETATM   43  C   UNK N   1      -4.955  -1.509  -0.279  0.00  0.00     0.000 C 
BRANCH  43  44
HETATM   44  C   UNK N   1      -4.856  -0.164   0.439  0.00  0.00     0.000 C 
BRANCH  44  45
HETATM   45  C   UNK N   1      -6.202   0.502   0.725  0.00  0.00     0.009 C 
BRANCH  45  46
HETATM   46  C   UNK N   1      -7.075   0.698  -0.514  0.00  0.00     0.103 C 
BRANCH  46  47
HETATM   47  C   UNK N   1      -8.057  -0.424  -0.573  0.00  0.00     0.217 C 
HETATM   48  O   UNK N   1      -7.645  -1.572  -0.666  0.00  0.00    -0.274 OA
HETATM   49  N   UNK N   1      -9.386  -0.198  -0.441  0.00  0.00    -0.356 N 
HETATM   50  H   UNK N   1      -9.757   0.714  -0.455  0.00  0.00     0.162 HD
BRANCH  49  51
HETATM   51  C   UNK N   1     -10.229  -1.352  -0.279  0.00  0.00     0.092 C 
HETATM   52  C   UNK N   1     -10.857  -1.466   1.108  0.00  0.00     0.009 C 
HETATM   53  C   UNK N   1     -11.212  -2.946   1.287  0.00  0.00     0.011 C 
HETATM   54  C   UNK N   1     -12.138  -0.616   1.190  0.00  0.00     0.011 C 
HETATM   55  C   UNK N   1     -12.187  -3.392   0.179  0.00  0.00    -0.013 C 
HETATM   56  C   UNK N   1     -13.465  -2.554   0.293  0.00  0.00     0.009 C 
HETATM   57  C   UNK N   1     -11.571  -3.160  -1.219  0.00  0.00     0.011 C 
HETATM   58  C   UNK N   1     -13.135  -1.061   0.108  0.00  0.00    -0.013 C 
HETATM   59  C   UNK N   1     -12.494  -0.835  -1.273  0.00  0.00     0.011 C 
HETATM   60  C   UNK N   1     -11.211  -1.676  -1.407  0.00  0.00     0.009 C 
ENDBRANCH  49  51
ENDBRANCH  46  47
ENDBRANCH  45  46
ENDBRANCH  44  45
ENDBRANCH  43  44
ENDBRANCH  42  43
ENDBRANCH  41  42
ENDBRANCH  40  41
ENDBRANCH  39  40
ENDBRANCH   7  39
TORSDOF 10
