MODEL 1
REMARK VINA RESULT:      -4.0      0.000      0.000
REMARK  3 active torsions:
REMARK  status: ('A' for Active; 'I' for Inactive)
REMARK    1  A    between atoms: C_2  and  N_1 
REMARK    2  A    between atoms: C_2  and  C_3 
REMARK    3  A    between atoms: C_2  and  C_5 
ROOT
HETATM    1  C   UNK N   1      34.240  17.164   9.094  0.00  0.00     0.297 C 
ENDROOT
BRANCH   1   2
HETATM    2  N   UNK N   1      34.897  17.167  10.388  0.00  0.00    -0.064 N 
HETATM    3  H   UNK N   1      34.345  17.079  11.240  0.00  0.00     0.275 HD
HETATM    4  H   UNK N   1      35.912  17.256  10.444  0.00  0.00     0.275 HD
HETATM    5  H   UNK N   1      35.359  17.168  11.297  0.00  0.00     0.275 HD
ENDBRANCH   1   2
BRANCH   1   6
HETATM    6  C   UNK N   1      33.203  16.054   8.888  0.00  0.00     0.158 C 
HETATM    7 Cl   UNK N   1      31.550  16.593   8.494  0.00  0.00    -0.128 Cl
ENDBRANCH   1   6
BRANCH   1   8
HETATM    8  C   UNK N   1      34.662  18.246   8.133  0.00  0.00     0.205 C 
HETATM    9  O   UNK N   1      35.349  19.311   8.590  0.00  0.00    -0.646 OA
HETATM   10  O   UNK N   1      34.393  18.173   6.946  0.00  0.00    -0.646 OA
ENDBRANCH   1   8
TORSDOF 3
ENDMDL
MODEL 2
REMARK VINA RESULT:      -3.8      2.123      2.458
REMARK  3 active torsions:
REMARK  status: ('A' for Active; 'I' for Inactive)
REMARK    1  A    between atoms: C_2  and  N_1 
REMARK    2  A    between atoms: C_2  and  C_3 
REMARK    3  A    between atoms: C_2  and  C_5 
ROOT
HETATM    1  C   UNK N   1      33.975  17.168   8.917  0.00  0.00     0.297 C 
ENDROOT
BRANCH   1   2
HETATM    2  N   UNK N   1      32.537  17.230   9.106  0.00  0.00    -0.064 N 
HETATM    3  H   UNK N   1      32.152  17.638   9.957  0.00  0.00     0.275 HD
HETATM    4  H   UNK N   1      31.912  16.866   8.386  0.00  0.00     0.275 HD
HETATM    5  H   UNK N   1      31.527  17.274   9.238  0.00  0.00     0.275 HD
ENDBRANCH   1   2
BRANCH   1   6
HETATM    6  C   UNK N   1      34.684  16.030   9.660  0.00  0.00     0.158 C 
HETATM    7 Cl   UNK N   1      35.376  16.446  11.250  0.00  0.00    -0.128 Cl
ENDBRANCH   1   6
BRANCH   1   8
HETATM    8  C   UNK N   1      34.573  18.223   8.022  0.00  0.00     0.205 C 
HETATM    9  O   UNK N   1      34.400  18.141   6.689  0.00  0.00    -0.646 OA
HETATM   10  O   UNK N   1      35.213  19.151   8.486  0.00  0.00    -0.646 OA
ENDBRANCH   1   8
TORSDOF 3
ENDMDL
MODEL 3
REMARK VINA RESULT:      -3.7      1.580      1.580
REMARK  3 active torsions:
REMARK  status: ('A' for Active; 'I' for Inactive)
REMARK    1  A    between atoms: C_2  and  N_1 
REMARK    2  A    between atoms: C_2  and  C_3 
REMARK    3  A    between atoms: C_2  and  C_5 
ROOT
HETATM    1  C   UNK N   1      34.584  17.014   9.086  0.00  0.00     0.297 C 
ENDROOT
BRANCH   1   2
HETATM    2  N   UNK N   1      34.967  17.217  10.472  0.00  0.00    -0.064 N 
HETATM    3  H   UNK N   1      35.389  18.099  10.760  0.00  0.00     0.275 HD
HETATM    4  H   UNK N   1      34.813  16.476  11.157  0.00  0.00     0.275 HD
HETATM    5  H   UNK N   1      35.236  17.359  11.445  0.00  0.00     0.275 HD
ENDBRANCH   1   2
BRANCH   1   6
HETATM    6  C   UNK N   1      34.157  15.586   8.727  0.00  0.00     0.158 C 
HETATM    7 Cl   UNK N   1      34.963  14.864   7.310  0.00  0.00    -0.128 Cl
ENDBRANCH   1   6
BRANCH   1   8
HETATM    8  C   UNK N   1      34.656  18.227   8.194  0.00  0.00     0.205 C 
HETATM    9  O   UNK N   1      35.351  19.309   8.596  0.00  0.00    -0.646 OA
HETATM   10  O   UNK N   1      34.095  18.245   7.111  0.00  0.00    -0.646 OA
ENDBRANCH   1   8
TORSDOF 3
ENDMDL
MODEL 4
REMARK VINA RESULT:      -3.6     12.548     12.942
REMARK  3 active torsions:
REMARK  status: ('A' for Active; 'I' for Inactive)
REMARK    1  A    between atoms: C_2  and  N_1 
REMARK    2  A    between atoms: C_2  and  C_3 
REMARK    3  A    between atoms: C_2  and  C_5 
ROOT
HETATM    1  C   UNK N   1      22.503  12.303  11.341  0.00  0.00     0.297 C 
ENDROOT
BRANCH   1   2
HETATM    2  N   UNK N   1      21.240  11.773  11.821  0.00  0.00    -0.064 N 
HETATM    3  H   UNK N   1      20.721  11.101  11.256  0.00  0.00     0.275 HD
HETATM    4  H   UNK N   1      20.871  12.073  12.724  0.00  0.00     0.275 HD
HETATM    5  H   UNK N   1      20.352  11.401  12.158  0.00  0.00     0.275 HD
ENDBRANCH   1   2
BRANCH   1   6
HETATM    6  C   UNK N   1      22.443  13.012   9.983  0.00  0.00     0.158 C 
HETATM    7 Cl   UNK N   1      21.131  14.202   9.782  0.00  0.00    -0.128 Cl
ENDBRANCH   1   6
BRANCH   1   8
HETATM    8  C   UNK N   1      23.697  12.086  12.236  0.00  0.00     0.205 C 
HETATM    9  O   UNK N   1      23.529  12.054  13.572  0.00  0.00    -0.646 OA
HETATM   10  O   UNK N   1      24.814  11.939  11.770  0.00  0.00    -0.646 OA
ENDBRANCH   1   8
TORSDOF 3
ENDMDL
MODEL 5
REMARK VINA RESULT:      -3.4      2.246      2.341
REMARK  3 active torsions:
REMARK  status: ('A' for Active; 'I' for Inactive)
REMARK    1  A    between atoms: C_2  and  N_1 
REMARK    2  A    between atoms: C_2  and  C_3 
REMARK    3  A    between atoms: C_2  and  C_5 
ROOT
HETATM    1  C   UNK N   1      33.455  17.353   8.155  0.00  0.00     0.297 C 
ENDROOT
BRANCH   1   2
HETATM    2  N   UNK N   1      32.223  17.417   8.921  0.00  0.00    -0.064 N 
HETATM    3  H   UNK N   1      31.619  18.234   8.846  0.00  0.00     0.275 HD
HETATM    4  H   UNK N   1      31.964  16.643   9.534  0.00  0.00     0.275 HD
HETATM    5  H   UNK N   1      31.358  17.461   9.459  0.00  0.00     0.275 HD
ENDBRANCH   1   2
BRANCH   1   6
HETATM    6  C   UNK N   1      33.363  16.587   6.830  0.00  0.00     0.158 C 
HETATM    7 Cl   UNK N   1      33.424  17.577   5.349  0.00  0.00    -0.128 Cl
ENDBRANCH   1   6
BRANCH   1   8
HETATM    8  C   UNK N   1      34.650  18.043   8.761  0.00  0.00     0.205 C 
HETATM    9  O   UNK N   1      35.307  17.460   9.783  0.00  0.00    -0.646 OA
HETATM   10  O   UNK N   1      35.033  19.121   8.340  0.00  0.00    -0.646 OA
ENDBRANCH   1   8
TORSDOF 3
ENDMDL
MODEL 6
REMARK VINA RESULT:      -3.4     14.300     14.701
REMARK  3 active torsions:
REMARK  status: ('A' for Active; 'I' for Inactive)
REMARK    1  A    between atoms: C_2  and  N_1 
REMARK    2  A    between atoms: C_2  and  C_3 
REMARK    3  A    between atoms: C_2  and  C_5 
ROOT
HETATM    1  C   UNK N   1      20.613  19.288   2.565  0.00  0.00     0.297 C 
ENDROOT
BRANCH   1   2
HETATM    2  N   UNK N   1      19.191  19.194   2.293  0.00  0.00    -0.064 N 
HETATM    3  H   UNK N   1      18.781  19.735   1.532  0.00  0.00     0.275 HD
HETATM    4  H   UNK N   1      18.602  18.587   2.864  0.00  0.00     0.275 HD
HETATM    5  H   UNK N   1      18.191  19.128   2.102  0.00  0.00     0.275 HD
ENDBRANCH   1   2
BRANCH   1   6
HETATM    6  C   UNK N   1      21.187  18.172   3.446  0.00  0.00     0.158 C 
HETATM    7 Cl   UNK N   1      21.368  18.558   5.177  0.00  0.00    -0.128 Cl
ENDBRANCH   1   6
BRANCH   1   8
HETATM    8  C   UNK N   1      21.331  20.462   1.949  0.00  0.00     0.205 C 
HETATM    9  O   UNK N   1      21.317  20.623   0.612  0.00  0.00    -0.646 OA
HETATM   10  O   UNK N   1      21.925  21.270   2.643  0.00  0.00    -0.646 OA
ENDBRANCH   1   8
TORSDOF 3
ENDMDL
MODEL 7
REMARK VINA RESULT:      -3.3      1.699      1.716
REMARK  3 active torsions:
REMARK  status: ('A' for Active; 'I' for Inactive)
REMARK    1  A    between atoms: C_2  and  N_1 
REMARK    2  A    between atoms: C_2  and  C_3 
REMARK    3  A    between atoms: C_2  and  C_5 
ROOT
HETATM    1  C   UNK N   1      32.836  17.428   8.061  0.00  0.00     0.297 C 
ENDROOT
BRANCH   1   2
HETATM    2  N   UNK N   1      33.149  16.924   9.386  0.00  0.00    -0.064 N 
HETATM    3  H   UNK N   1      32.603  17.231  10.190  0.00  0.00     0.275 HD
HETATM    4  H   UNK N   1      33.916  16.262   9.512  0.00  0.00     0.275 HD
HETATM    5  H   UNK N   1      33.369  16.570  10.316  0.00  0.00     0.275 HD
ENDBRANCH   1   2
BRANCH   1   6
HETATM    6  C   UNK N   1      31.370  17.287   7.636  0.00  0.00     0.158 C 
HETATM    7 Cl   UNK N   1      30.161  17.932   8.777  0.00  0.00    -0.128 Cl
ENDBRANCH   1   6
BRANCH   1   8
HETATM    8  C   UNK N   1      33.987  18.017   7.286  0.00  0.00     0.205 C 
HETATM    9  O   UNK N   1      34.948  18.700   7.939  0.00  0.00    -0.646 OA
HETATM   10  O   UNK N   1      34.063  17.886   6.077  0.00  0.00    -0.646 OA
ENDBRANCH   1   8
TORSDOF 3
ENDMDL
MODEL 8
REMARK VINA RESULT:      -3.2     14.266     14.605
REMARK  3 active torsions:
REMARK  status: ('A' for Active; 'I' for Inactive)
REMARK    1  A    between atoms: C_2  and  N_1 
REMARK    2  A    between atoms: C_2  and  C_3 
REMARK    3  A    between atoms: C_2  and  C_5 
ROOT
HETATM    1  C   UNK N   1      20.753  19.937   2.151  0.00  0.00     0.297 C 
ENDROOT
BRANCH   1   2
HETATM    2  N   UNK N   1      20.645  20.323   0.756  0.00  0.00    -0.064 N 
HETATM    3  H   UNK N   1      21.080  21.185   0.430  0.00  0.00     0.275 HD
HETATM    4  H   UNK N   1      20.133  19.730   0.101  0.00  0.00     0.275 HD
HETATM    5  H   UNK N   1      20.568  20.593  -0.225  0.00  0.00     0.275 HD
ENDBRANCH   1   2
BRANCH   1   6
HETATM    6  C   UNK N   1      19.523  19.232   2.733  0.00  0.00     0.158 C 
HETATM    7 Cl   UNK N   1      19.734  17.513   3.157  0.00  0.00    -0.128 Cl
ENDBRANCH   1   6
BRANCH   1   8
HETATM    8  C   UNK N   1      22.052  20.278   2.835  0.00  0.00     0.205 C 
HETATM    9  O   UNK N   1      22.540  21.532   2.749  0.00  0.00    -0.646 OA
HETATM   10  O   UNK N   1      22.670  19.438   3.466  0.00  0.00    -0.646 OA
ENDBRANCH   1   8
TORSDOF 3
ENDMDL
MODEL 9
REMARK VINA RESULT:      -3.2     11.968     12.408
REMARK  3 active torsions:
REMARK  status: ('A' for Active; 'I' for Inactive)
REMARK    1  A    between atoms: C_2  and  N_1 
REMARK    2  A    between atoms: C_2  and  C_3 
REMARK    3  A    between atoms: C_2  and  C_5 
ROOT
HETATM    1  C   UNK N   1      44.534  22.107   3.369  0.00  0.00     0.297 C 
ENDROOT
BRANCH   1   2
HETATM    2  N   UNK N   1      45.712  22.162   4.216  0.00  0.00    -0.064 N 
HETATM    3  H   UNK N   1      45.724  21.665   5.105  0.00  0.00     0.275 HD
HETATM    4  H   UNK N   1      46.528  22.699   3.919  0.00  0.00     0.275 HD
HETATM    5  H   UNK N   1      46.540  22.201   4.810  0.00  0.00     0.275 HD
ENDBRANCH   1   2
BRANCH   1   6
HETATM    6  C   UNK N   1      44.040  20.696   3.026  0.00  0.00     0.158 C 
HETATM    7 Cl   UNK N   1      42.369  20.314   3.515  0.00  0.00    -0.128 Cl
ENDBRANCH   1   6
BRANCH   1   8
HETATM    8  C   UNK N   1      43.959  23.434   2.944  0.00  0.00     0.205 C 
HETATM    9  O   UNK N   1      44.730  24.538   2.988  0.00  0.00    -0.646 OA
HETATM   10  O   UNK N   1      42.805  23.525   2.561  0.00  0.00    -0.646 OA
ENDBRANCH   1   8
TORSDOF 3
ENDMDL
