MODEL 1
REMARK VINA RESULT:      -4.7      0.000      0.000
REMARK  8 active torsions:
REMARK  status: ('A' for Active; 'I' for Inactive)
REMARK    1  A    between atoms: O_1  and  C_2 
REMARK    2  A    between atoms: C_2  and  C_3 
REMARK    3  A    between atoms: C_3  and  C_4 
REMARK    4  A    between atoms: C_3  and  O_6 
REMARK    5  A    between atoms: C_4  and  O_5 
REMARK    6  A    between atoms: O_6  and  P_7 
REMARK    7  A    between atoms: P_7  and  O_8 
REMARK    8  A    between atoms: P_7  and  O_9 
ROOT
HETATM    1  C   UNK N   1      34.716  16.028   9.589  0.00  0.00     0.180 C 
ENDROOT
BRANCH   1   2
HETATM    2  C   UNK N   1      33.518  15.123   9.839  0.00  0.00     0.198 C 
BRANCH   2   3
HETATM    3  O   UNK N   1      33.308  14.954  11.209  0.00  0.00    -0.398 OA
HETATM    4  H   UNK N   1      32.571  14.687  11.781  0.00  0.00     0.209 HD
ENDBRANCH   2   3
ENDBRANCH   1   2
BRANCH   1   5
HETATM    5  C   UNK N   1      35.982  15.360  10.112  0.00  0.00     0.198 C 
BRANCH   5   6
HETATM    6  O   UNK N   1      36.753  16.274  10.828  0.00  0.00    -0.398 OA
HETATM    7  H   UNK N   1      36.783  17.214  10.587  0.00  0.00     0.209 HD
ENDBRANCH   5   6
ENDBRANCH   1   5
BRANCH   1   8
HETATM    8  O   UNK N   1      34.837  16.250   8.215  0.00  0.00    -0.287 OA
BRANCH   8   9
HETATM    9  P   UNK N   1      34.242  17.861   7.910  0.00  0.00     0.391 P 
HETATM   10  O   UNK N   1      34.256  18.041   6.370  0.00  0.00    -0.632 OA
BRANCH   9  11
HETATM   11  O   UNK N   1      35.274  19.105   8.548  0.00  0.00    -0.307 OA
HETATM   12  H   UNK N   1      35.506  20.042   8.456  0.00  0.00     0.222 HD
ENDBRANCH   9  11
BRANCH   9  13
HETATM   13  O   UNK N   1      32.595  18.068   8.415  0.00  0.00    -0.307 OA
HETATM   14  H   UNK N   1      32.345  18.159   9.348  0.00  0.00     0.222 HD
ENDBRANCH   9  13
ENDBRANCH   8   9
ENDBRANCH   1   8
TORSDOF 8
ENDMDL
MODEL 2
REMARK VINA RESULT:      -4.6      0.747      2.547
REMARK  8 active torsions:
REMARK  status: ('A' for Active; 'I' for Inactive)
REMARK    1  A    between atoms: O_1  and  C_2 
REMARK    2  A    between atoms: C_2  and  C_3 
REMARK    3  A    between atoms: C_3  and  C_4 
REMARK    4  A    between atoms: C_3  and  O_6 
REMARK    5  A    between atoms: C_4  and  O_5 
REMARK    6  A    between atoms: O_6  and  P_7 
REMARK    7  A    between atoms: P_7  and  O_8 
REMARK    8  A    between atoms: P_7  and  O_9 
ROOT
HETATM    1  C   UNK N   1      34.909  15.750   9.519  0.00  0.00     0.180 C 
ENDROOT
BRANCH   1   2
HETATM    2  C   UNK N   1      36.040  15.168  10.354  0.00  0.00     0.198 C 
BRANCH   2   3
HETATM    3  O   UNK N   1      36.843  16.187  10.870  0.00  0.00    -0.398 OA
HETATM    4  H   UNK N   1      37.218  17.021  10.545  0.00  0.00     0.209 HD
ENDBRANCH   2   3
ENDBRANCH   1   2
BRANCH   1   5
HETATM    5  C   UNK N   1      33.607  15.026   9.841  0.00  0.00     0.198 C 
BRANCH   5   6
HETATM    6  O   UNK N   1      33.432  14.934  11.221  0.00  0.00    -0.398 OA
HETATM    7  H   UNK N   1      33.520  14.089  11.690  0.00  0.00     0.209 HD
ENDBRANCH   5   6
ENDBRANCH   1   5
BRANCH   1   8
HETATM    8  O   UNK N   1      34.776  17.108   9.820  0.00  0.00    -0.287 OA
BRANCH   8   9
HETATM    9  P   UNK N   1      34.294  17.906   8.345  0.00  0.00     0.391 P 
HETATM   10  O   UNK N   1      35.068  19.250   8.310  0.00  0.00    -0.632 OA
BRANCH   9  11
HETATM   11  O   UNK N   1      32.608  18.323   8.311  0.00  0.00    -0.307 OA
HETATM   12  H   UNK N   1      31.795  18.308   8.840  0.00  0.00     0.222 HD
ENDBRANCH   9  11
BRANCH   9  13
HETATM   13  O   UNK N   1      34.769  17.027   6.927  0.00  0.00    -0.307 OA
HETATM   14  H   UNK N   1      34.203  16.351   6.521  0.00  0.00     0.222 HD
ENDBRANCH   9  13
ENDBRANCH   8   9
ENDBRANCH   1   8
TORSDOF 8
ENDMDL
MODEL 3
REMARK VINA RESULT:      -4.4      0.953      2.641
REMARK  8 active torsions:
REMARK  status: ('A' for Active; 'I' for Inactive)
REMARK    1  A    between atoms: O_1  and  C_2 
REMARK    2  A    between atoms: C_2  and  C_3 
REMARK    3  A    between atoms: C_3  and  C_4 
REMARK    4  A    between atoms: C_3  and  O_6 
REMARK    5  A    between atoms: C_4  and  O_5 
REMARK    6  A    between atoms: O_6  and  P_7 
REMARK    7  A    between atoms: P_7  and  O_8 
REMARK    8  A    between atoms: P_7  and  O_9 
ROOT
HETATM    1  C   UNK N   1      34.978  15.974   9.949  0.00  0.00     0.180 C 
ENDROOT
BRANCH   1   2
HETATM    2  C   UNK N   1      35.936  16.079  11.126  0.00  0.00     0.198 C 
BRANCH   2   3
HETATM    3  O   UNK N   1      37.250  15.852  10.712  0.00  0.00    -0.398 OA
HETATM    4  H   UNK N   1      38.013  16.396  10.462  0.00  0.00     0.209 HD
ENDBRANCH   2   3
ENDBRANCH   1   2
BRANCH   1   5
HETATM    5  C   UNK N   1      34.123  14.721  10.092  0.00  0.00     0.198 C 
BRANCH   5   6
HETATM    6  O   UNK N   1      33.104  14.932  11.020  0.00  0.00    -0.398 OA
HETATM    7  H   UNK N   1      33.091  14.473  11.875  0.00  0.00     0.209 HD
ENDBRANCH   5   6
ENDBRANCH   1   5
BRANCH   1   8
HETATM    8  O   UNK N   1      34.154  17.103   9.932  0.00  0.00    -0.287 OA
BRANCH   8   9
HETATM    9  P   UNK N   1      34.348  17.846   8.366  0.00  0.00     0.391 P 
HETATM   10  O   UNK N   1      32.937  18.329   7.941  0.00  0.00    -0.632 OA
BRANCH   9  11
HETATM   11  O   UNK N   1      34.864  16.730   7.137  0.00  0.00    -0.307 OA
HETATM   12  H   UNK N   1      35.650  16.332   6.732  0.00  0.00     0.222 HD
ENDBRANCH   9  11
BRANCH   9  13
HETATM   13  O   UNK N   1      35.356  19.257   8.419  0.00  0.00    -0.307 OA
HETATM   14  H   UNK N   1      35.957  19.439   9.159  0.00  0.00     0.222 HD
ENDBRANCH   9  13
ENDBRANCH   8   9
ENDBRANCH   1   8
TORSDOF 8
ENDMDL
MODEL 4
REMARK VINA RESULT:      -4.4      2.059      4.086
REMARK  8 active torsions:
REMARK  status: ('A' for Active; 'I' for Inactive)
REMARK    1  A    between atoms: O_1  and  C_2 
REMARK    2  A    between atoms: C_2  and  C_3 
REMARK    3  A    between atoms: C_3  and  C_4 
REMARK    4  A    between atoms: C_3  and  O_6 
REMARK    5  A    between atoms: C_4  and  O_5 
REMARK    6  A    between atoms: O_6  and  P_7 
REMARK    7  A    between atoms: P_7  and  O_8 
REMARK    8  A    between atoms: P_7  and  O_9 
ROOT
HETATM    1  C   UNK N   1      34.403  16.982   7.925  0.00  0.00     0.180 C 
ENDROOT
BRANCH   1   2
HETATM    2  C   UNK N   1      34.185  16.647   6.456  0.00  0.00     0.198 C 
BRANCH   2   3
HETATM    3  O   UNK N   1      34.084  17.814   5.696  0.00  0.00    -0.398 OA
HETATM    4  H   UNK N   1      34.659  18.567   5.483  0.00  0.00     0.209 HD
ENDBRANCH   2   3
ENDBRANCH   1   2
BRANCH   1   5
HETATM    5  C   UNK N   1      34.087  18.453   8.169  0.00  0.00     0.198 C 
BRANCH   5   6
HETATM    6  O   UNK N   1      35.255  19.158   8.453  0.00  0.00    -0.398 OA
HETATM    7  H   UNK N   1      35.264  20.127   8.510  0.00  0.00     0.209 HD
ENDBRANCH   5   6
ENDBRANCH   1   5
BRANCH   1   8
HETATM    8  O   UNK N   1      33.556  16.186   8.701  0.00  0.00    -0.287 OA
BRANCH   8   9
HETATM    9  P   UNK N   1      34.439  15.772  10.147  0.00  0.00     0.391 P 
HETATM   10  O   UNK N   1      35.614  14.868   9.690  0.00  0.00    -0.632 OA
BRANCH   9  11
HETATM   11  O   UNK N   1      33.512  14.821  11.268  0.00  0.00    -0.307 OA
HETATM   12  H   UNK N   1      33.590  14.217  12.023  0.00  0.00     0.222 HD
ENDBRANCH   9  11
BRANCH   9  13
HETATM   13  O   UNK N   1      35.151  17.157  10.912  0.00  0.00    -0.307 OA
HETATM   14  H   UNK N   1      35.565  17.874  10.406  0.00  0.00     0.222 HD
ENDBRANCH   9  13
ENDBRANCH   8   9
ENDBRANCH   1   8
TORSDOF 8
ENDMDL
MODEL 5
REMARK VINA RESULT:      -4.4     11.379     12.738
REMARK  8 active torsions:
REMARK  status: ('A' for Active; 'I' for Inactive)
REMARK    1  A    between atoms: O_1  and  C_2 
REMARK    2  A    between atoms: C_2  and  C_3 
REMARK    3  A    between atoms: C_3  and  C_4 
REMARK    4  A    between atoms: C_3  and  O_6 
REMARK    5  A    between atoms: C_4  and  O_5 
REMARK    6  A    between atoms: O_6  and  P_7 
REMARK    7  A    between atoms: P_7  and  O_8 
REMARK    8  A    between atoms: P_7  and  O_9 
ROOT
HETATM    1  C   UNK N   1      23.272  12.318  11.236  0.00  0.00     0.180 C 
ENDROOT
BRANCH   1   2
HETATM    2  C   UNK N   1      23.012  11.792  12.641  0.00  0.00     0.198 C 
BRANCH   2   3
HETATM    3  O   UNK N   1      23.840  12.432  13.565  0.00  0.00    -0.398 OA
HETATM    4  H   UNK N   1      23.928  12.459  14.531  0.00  0.00     0.209 HD
ENDBRANCH   2   3
ENDBRANCH   1   2
BRANCH   1   5
HETATM    5  C   UNK N   1      24.721  12.048  10.847  0.00  0.00     0.198 C 
BRANCH   5   6
HETATM    6  O   UNK N   1      25.536  13.105  11.248  0.00  0.00    -0.398 OA
HETATM    7  H   UNK N   1      26.151  13.020  11.993  0.00  0.00     0.209 HD
ENDBRANCH   5   6
ENDBRANCH   1   5
BRANCH   1   8
HETATM    8  O   UNK N   1      22.418  11.665  10.343  0.00  0.00    -0.287 OA
BRANCH   8   9
HETATM    9  P   UNK N   1      21.375  12.886   9.660  0.00  0.00     0.391 P 
HETATM   10  O   UNK N   1      21.034  12.407   8.225  0.00  0.00    -0.632 OA
BRANCH   9  11
HETATM   11  O   UNK N   1      22.154  14.429   9.478  0.00  0.00    -0.307 OA
HETATM   12  H   UNK N   1      22.334  15.265   9.935  0.00  0.00     0.222 HD
ENDBRANCH   9  11
BRANCH   9  13
HETATM   13  O   UNK N   1      19.867  13.022  10.506  0.00  0.00    -0.307 OA
HETATM   14  H   UNK N   1      19.609  13.827  10.982  0.00  0.00     0.222 HD
ENDBRANCH   9  13
ENDBRANCH   8   9
ENDBRANCH   1   8
TORSDOF 8
ENDMDL
MODEL 6
REMARK VINA RESULT:      -4.3      2.131      4.146
REMARK  8 active torsions:
REMARK  status: ('A' for Active; 'I' for Inactive)
REMARK    1  A    between atoms: O_1  and  C_2 
REMARK    2  A    between atoms: C_2  and  C_3 
REMARK    3  A    between atoms: C_3  and  C_4 
REMARK    4  A    between atoms: C_3  and  O_6 
REMARK    5  A    between atoms: C_4  and  O_5 
REMARK    6  A    between atoms: O_6  and  P_7 
REMARK    7  A    between atoms: P_7  and  O_8 
REMARK    8  A    between atoms: P_7  and  O_9 
ROOT
HETATM    1  C   UNK N   1      33.706  17.277   8.762  0.00  0.00     0.180 C 
ENDROOT
BRANCH   1   2
HETATM    2  C   UNK N   1      34.308  18.354   7.872  0.00  0.00     0.198 C 
BRANCH   2   3
HETATM    3  O   UNK N   1      35.263  19.094   8.574  0.00  0.00    -0.398 OA
HETATM    4  H   UNK N   1      36.039  18.899   9.123  0.00  0.00     0.209 HD
ENDBRANCH   2   3
ENDBRANCH   1   2
BRANCH   1   5
HETATM    5  C   UNK N   1      32.303  16.934   8.277  0.00  0.00     0.198 C 
BRANCH   5   6
HETATM    6  O   UNK N   1      31.540  16.421   9.325  0.00  0.00    -0.398 OA
HETATM    7  H   UNK N   1      31.150  16.997  10.002  0.00  0.00     0.209 HD
ENDBRANCH   5   6
ENDBRANCH   1   5
BRANCH   1   8
HETATM    8  O   UNK N   1      34.514  16.137   8.703  0.00  0.00    -0.287 OA
BRANCH   8   9
HETATM    9  P   UNK N   1      34.943  15.738  10.346  0.00  0.00     0.391 P 
HETATM   10  O   UNK N   1      35.295  17.082  11.038  0.00  0.00    -0.632 OA
BRANCH   9  11
HETATM   11  O   UNK N   1      36.369  14.752  10.462  0.00  0.00    -0.307 OA
HETATM   12  H   UNK N   1      37.257  14.626  10.091  0.00  0.00     0.222 HD
ENDBRANCH   9  11
BRANCH   9  13
HETATM   13  O   UNK N   1      33.617  15.060  11.235  0.00  0.00    -0.307 OA
HETATM   14  H   UNK N   1      33.194  14.224  10.979  0.00  0.00     0.222 HD
ENDBRANCH   9  13
ENDBRANCH   8   9
ENDBRANCH   1   8
TORSDOF 8
ENDMDL
MODEL 7
REMARK VINA RESULT:      -4.2      3.462      5.751
REMARK  8 active torsions:
REMARK  status: ('A' for Active; 'I' for Inactive)
REMARK    1  A    between atoms: O_1  and  C_2 
REMARK    2  A    between atoms: C_2  and  C_3 
REMARK    3  A    between atoms: C_3  and  C_4 
REMARK    4  A    between atoms: C_3  and  O_6 
REMARK    5  A    between atoms: C_4  and  O_5 
REMARK    6  A    between atoms: O_6  and  P_7 
REMARK    7  A    between atoms: P_7  and  O_8 
REMARK    8  A    between atoms: P_7  and  O_9 
ROOT
HETATM    1  C   UNK N   1      35.268  14.992  11.579  0.00  0.00     0.180 C 
ENDROOT
BRANCH   1   2
HETATM    2  C   UNK N   1      35.927  16.209  10.946  0.00  0.00     0.198 C 
BRANCH   2   3
HETATM    3  O   UNK N   1      34.987  17.218  10.729  0.00  0.00    -0.398 OA
HETATM    4  H   UNK N   1      34.021  17.299  10.764  0.00  0.00     0.209 HD
ENDBRANCH   2   3
ENDBRANCH   1   2
BRANCH   1   5
HETATM    5  C   UNK N   1      34.161  14.474  10.667  0.00  0.00     0.198 C 
BRANCH   5   6
HETATM    6  O   UNK N   1      32.934  15.024  11.034  0.00  0.00    -0.398 OA
HETATM    7  H   UNK N   1      32.283  15.305  10.372  0.00  0.00     0.209 HD
ENDBRANCH   5   6
ENDBRANCH   1   5
BRANCH   1   8
HETATM    8  O   UNK N   1      36.232  13.995  11.756  0.00  0.00    -0.287 OA
BRANCH   8   9
HETATM    9  P   UNK N   1      36.398  13.755  13.476  0.00  0.00     0.391 P 
HETATM   10  O   UNK N   1      34.973  13.451  14.008  0.00  0.00    -0.632 OA
BRANCH   9  11
HETATM   11  O   UNK N   1      36.931  15.178  14.319  0.00  0.00    -0.307 OA
HETATM   12  H   UNK N   1      37.532  15.936  14.256  0.00  0.00     0.222 HD
ENDBRANCH   9  11
BRANCH   9  13
HETATM   13  O   UNK N   1      37.373  12.373  13.864  0.00  0.00    -0.307 OA
HETATM   14  H   UNK N   1      37.036  11.465  13.798  0.00  0.00     0.222 HD
ENDBRANCH   9  13
ENDBRANCH   8   9
ENDBRANCH   1   8
TORSDOF 8
ENDMDL
MODEL 8
REMARK VINA RESULT:      -4.1      2.881      4.080
REMARK  8 active torsions:
REMARK  status: ('A' for Active; 'I' for Inactive)
REMARK    1  A    between atoms: O_1  and  C_2 
REMARK    2  A    between atoms: C_2  and  C_3 
REMARK    3  A    between atoms: C_3  and  C_4 
REMARK    4  A    between atoms: C_3  and  O_6 
REMARK    5  A    between atoms: C_4  and  O_5 
REMARK    6  A    between atoms: O_6  and  P_7 
REMARK    7  A    between atoms: P_7  and  O_8 
REMARK    8  A    between atoms: P_7  and  O_9 
ROOT
HETATM    1  C   UNK N   1      35.578  13.769  12.269  0.00  0.00     0.180 C 
ENDROOT
BRANCH   1   2
HETATM    2  C   UNK N   1      35.931  13.988  13.733  0.00  0.00     0.198 C 
BRANCH   2   3
HETATM    3  O   UNK N   1      36.857  15.026  13.865  0.00  0.00    -0.398 OA
HETATM    4  H   UNK N   1      36.904  15.870  14.340  0.00  0.00     0.209 HD
ENDBRANCH   2   3
ENDBRANCH   1   2
BRANCH   1   5
HETATM    5  C   UNK N   1      34.989  12.376  12.085  0.00  0.00     0.198 C 
BRANCH   5   6
HETATM    6  O   UNK N   1      34.267  12.308  10.895  0.00  0.00    -0.398 OA
HETATM    7  H   UNK N   1      33.323  12.084  10.883  0.00  0.00     0.209 HD
ENDBRANCH   5   6
ENDBRANCH   1   5
BRANCH   1   8
HETATM    8  O   UNK N   1      34.640  14.729  11.881  0.00  0.00    -0.287 OA
BRANCH   8   9
HETATM    9  P   UNK N   1      35.383  15.678  10.619  0.00  0.00     0.391 P 
HETATM   10  O   UNK N   1      35.373  14.788   9.349  0.00  0.00    -0.632 OA
BRANCH   9  11
HETATM   11  O   UNK N   1      37.051  16.049  10.932  0.00  0.00    -0.307 OA
HETATM   12  H   UNK N   1      37.865  16.370  10.515  0.00  0.00     0.222 HD
ENDBRANCH   9  11
BRANCH   9  13
HETATM   13  O   UNK N   1      34.468  17.101  10.231  0.00  0.00    -0.307 OA
HETATM   14  H   UNK N   1      34.687  17.668   9.475  0.00  0.00     0.222 HD
ENDBRANCH   9  13
ENDBRANCH   8   9
ENDBRANCH   1   8
TORSDOF 8
ENDMDL
MODEL 9
REMARK VINA RESULT:      -4.1      3.490      5.068
REMARK  8 active torsions:
REMARK  status: ('A' for Active; 'I' for Inactive)
REMARK    1  A    between atoms: O_1  and  C_2 
REMARK    2  A    between atoms: C_2  and  C_3 
REMARK    3  A    between atoms: C_3  and  C_4 
REMARK    4  A    between atoms: C_3  and  O_6 
REMARK    5  A    between atoms: C_4  and  O_5 
REMARK    6  A    between atoms: O_6  and  P_7 
REMARK    7  A    between atoms: P_7  and  O_8 
REMARK    8  A    between atoms: P_7  and  O_9 
ROOT
HETATM    1  C   UNK N   1      34.845  15.022  10.782  0.00  0.00     0.180 C 
ENDROOT
BRANCH   1   2
HETATM    2  C   UNK N   1      33.606  15.088   9.901  0.00  0.00     0.198 C 
BRANCH   2   3
HETATM    3  O   UNK N   1      32.447  15.055  10.680  0.00  0.00    -0.398 OA
HETATM    4  H   UNK N   1      31.853  14.372  11.029  0.00  0.00     0.209 HD
ENDBRANCH   2   3
ENDBRANCH   1   2
BRANCH   1   5
HETATM    5  C   UNK N   1      35.595  16.348  10.715  0.00  0.00     0.198 C 
BRANCH   5   6
HETATM    6  O   UNK N   1      36.967  16.135  10.841  0.00  0.00    -0.398 OA
HETATM    7  H   UNK N   1      37.350  15.245  10.803  0.00  0.00     0.209 HD
ENDBRANCH   5   6
ENDBRANCH   1   5
BRANCH   1   8
HETATM    8  O   UNK N   1      34.451  14.773  12.100  0.00  0.00    -0.287 OA
BRANCH   8   9
HETATM    9  P   UNK N   1      35.366  13.393  12.647  0.00  0.00     0.391 P 
HETATM   10  O   UNK N   1      35.171  12.293  11.571  0.00  0.00    -0.632 OA
BRANCH   9  11
HETATM   11  O   UNK N   1      34.768  12.720  14.134  0.00  0.00    -0.307 OA
HETATM   12  H   UNK N   1      35.009  12.540  15.056  0.00  0.00     0.222 HD
ENDBRANCH   9  11
BRANCH   9  13
HETATM   13  O   UNK N   1      37.069  13.711  12.723  0.00  0.00    -0.307 OA
HETATM   14  H   UNK N   1      37.425  14.583  12.960  0.00  0.00     0.222 HD
ENDBRANCH   9  13
ENDBRANCH   8   9
ENDBRANCH   1   8
TORSDOF 8
ENDMDL
