MODEL 1
REMARK VINA RESULT:      -4.9      0.000      0.000
REMARK  8 active torsions:
REMARK  status: ('A' for Active; 'I' for Inactive)
REMARK    1  A    between atoms: O_1  and  C_2 
REMARK    2  A    between atoms: C_2  and  C_4 
REMARK    3  A    between atoms: C_4  and  C_5 
REMARK    4  A    between atoms: C_5  and  C_6 
REMARK    5  A    between atoms: C_6  and  C_7 
REMARK    6  A    between atoms: C_7  and  C_8 
REMARK    7  A    between atoms: C_8  and  C_9 
REMARK    8  A    between atoms: C_9  and  O_10 
ROOT
HETATM    1  C   UNK N   1      30.890  16.933   8.301  0.00  0.00     0.001 C 
ENDROOT
BRANCH   1   2
HETATM    2  C   UNK N   1      32.297  16.948   7.750  0.00  0.00     0.010 C 
BRANCH   2   3
HETATM    3  C   UNK N   1      33.288  17.607   8.689  0.00  0.00     0.110 C 
BRANCH   3   4
HETATM    4  C   UNK N   1      34.385  18.291   7.920  0.00  0.00     0.139 C 
HETATM    5  O   UNK N   1      35.151  19.069   8.474  0.00  0.00    -0.650 OA
BRANCH   4   6
HETATM    6  O   UNK N   1      34.528  18.045   6.606  0.00  0.00    -0.776 OA
HETATM    7  H   UNK N   1      34.363  17.187   6.270  0.00  0.00     0.167 HD
ENDBRANCH   4   6
ENDBRANCH   3   4
ENDBRANCH   2   3
ENDBRANCH   1   2
BRANCH   1   8
HETATM    8  C   UNK N   1      30.618  18.351   8.747  0.00  0.00     0.010 C 
BRANCH   8   9
HETATM    9  C   UNK N   1      29.570  18.433   9.841  0.00  0.00     0.110 C 
BRANCH   9  10
HETATM   10  C   UNK N   1      28.200  18.139   9.295  0.00  0.00     0.139 C 
HETATM   11  O   UNK N   1      27.637  17.081   9.542  0.00  0.00    -0.650 OA
BRANCH  10  12
HETATM   12  O   UNK N   1      27.582  19.052   8.525  0.00  0.00    -0.776 OA
HETATM   13  H   UNK N   1      27.203  18.796   7.708  0.00  0.00     0.167 HD
ENDBRANCH  10  12
ENDBRANCH   9  10
ENDBRANCH   8   9
ENDBRANCH   1   8
TORSDOF 8
ENDMDL
MODEL 2
REMARK VINA RESULT:      -4.8      0.448      5.649
REMARK  8 active torsions:
REMARK  status: ('A' for Active; 'I' for Inactive)
REMARK    1  A    between atoms: O_1  and  C_2 
REMARK    2  A    between atoms: C_2  and  C_4 
REMARK    3  A    between atoms: C_4  and  C_5 
REMARK    4  A    between atoms: C_5  and  C_6 
REMARK    5  A    between atoms: C_6  and  C_7 
REMARK    6  A    between atoms: C_7  and  C_8 
REMARK    7  A    between atoms: C_8  and  C_9 
REMARK    8  A    between atoms: C_9  and  O_10 
ROOT
HETATM    1  C   UNK N   1      30.976  17.298   7.651  0.00  0.00     0.001 C 
ENDROOT
BRANCH   1   2
HETATM    2  C   UNK N   1      30.500  17.320   9.085  0.00  0.00     0.010 C 
BRANCH   2   3
HETATM    3  C   UNK N   1      29.632  18.524   9.397  0.00  0.00     0.110 C 
BRANCH   3   4
HETATM    4  C   UNK N   1      28.177  18.207   9.187  0.00  0.00     0.139 C 
HETATM    5  O   UNK N   1      27.706  17.139   9.555  0.00  0.00    -0.650 OA
BRANCH   4   6
HETATM    6  O   UNK N   1      27.381  19.108   8.587  0.00  0.00    -0.776 OA
HETATM    7  H   UNK N   1      26.934  18.884   7.795  0.00  0.00     0.167 HD
ENDBRANCH   4   6
ENDBRANCH   3   4
ENDBRANCH   2   3
ENDBRANCH   1   2
BRANCH   1   8
HETATM    8  C   UNK N   1      32.358  16.687   7.696  0.00  0.00     0.010 C 
BRANCH   8   9
HETATM    9  C   UNK N   1      33.298  17.430   8.627  0.00  0.00     0.110 C 
BRANCH   9  10
HETATM   10  C   UNK N   1      34.299  18.238   7.846  0.00  0.00     0.139 C 
HETATM   11  O   UNK N   1      34.982  19.092   8.394  0.00  0.00    -0.650 OA
BRANCH  10  12
HETATM   12  O   UNK N   1      34.446  18.019   6.528  0.00  0.00    -0.776 OA
HETATM   13  H   UNK N   1      33.710  18.103   5.954  0.00  0.00     0.167 HD
ENDBRANCH  10  12
ENDBRANCH   9  10
ENDBRANCH   8   9
ENDBRANCH   1   8
TORSDOF 8
ENDMDL
MODEL 3
REMARK VINA RESULT:      -4.5     10.359     11.665
REMARK  8 active torsions:
REMARK  status: ('A' for Active; 'I' for Inactive)
REMARK    1  A    between atoms: O_1  and  C_2 
REMARK    2  A    between atoms: C_2  and  C_4 
REMARK    3  A    between atoms: C_4  and  C_5 
REMARK    4  A    between atoms: C_5  and  C_6 
REMARK    5  A    between atoms: C_6  and  C_7 
REMARK    6  A    between atoms: C_7  and  C_8 
REMARK    7  A    between atoms: C_8  and  C_9 
REMARK    8  A    between atoms: C_9  and  O_10 
ROOT
HETATM    1  C   UNK N   1      23.466  13.268   9.543  0.00  0.00     0.001 C 
ENDROOT
BRANCH   1   2
HETATM    2  C   UNK N   1      22.188  13.199   8.740  0.00  0.00     0.010 C 
BRANCH   2   3
HETATM    3  C   UNK N   1      21.286  14.397   8.965  0.00  0.00     0.110 C 
BRANCH   3   4
HETATM    4  C   UNK N   1      20.071  14.013   9.762  0.00  0.00     0.139 C 
HETATM    5  O   UNK N   1      19.027  14.645   9.662  0.00  0.00    -0.650 OA
BRANCH   4   6
HETATM    6  O   UNK N   1      20.128  12.961  10.597  0.00  0.00    -0.776 OA
HETATM    7  H   UNK N   1      20.887  12.827  11.129  0.00  0.00     0.167 HD
ENDBRANCH   4   6
ENDBRANCH   3   4
ENDBRANCH   2   3
ENDBRANCH   1   2
BRANCH   1   8
HETATM    8  C   UNK N   1      23.615  11.904  10.176  0.00  0.00     0.010 C 
BRANCH   8   9
HETATM    9  C   UNK N   1      24.301  11.956  11.529  0.00  0.00     0.110 C 
BRANCH   9  10
HETATM   10  C   UNK N   1      23.293  11.925  12.644  0.00  0.00     0.139 C 
HETATM   11  O   UNK N   1      23.628  12.136  13.802  0.00  0.00    -0.650 OA
BRANCH  10  12
HETATM   12  O   UNK N   1      22.004  11.662  12.367  0.00  0.00    -0.776 OA
HETATM   13  H   UNK N   1      21.360  12.337  12.448  0.00  0.00     0.167 HD
ENDBRANCH  10  12
ENDBRANCH   9  10
ENDBRANCH   8   9
ENDBRANCH   1   8
TORSDOF 8
ENDMDL
MODEL 4
REMARK VINA RESULT:      -4.4     15.617     16.327
REMARK  8 active torsions:
REMARK  status: ('A' for Active; 'I' for Inactive)
REMARK    1  A    between atoms: O_1  and  C_2 
REMARK    2  A    between atoms: C_2  and  C_4 
REMARK    3  A    between atoms: C_4  and  C_5 
REMARK    4  A    between atoms: C_5  and  C_6 
REMARK    5  A    between atoms: C_6  and  C_7 
REMARK    6  A    between atoms: C_7  and  C_8 
REMARK    7  A    between atoms: C_8  and  C_9 
REMARK    8  A    between atoms: C_9  and  O_10 
ROOT
HETATM    1  C   UNK N   1      25.469  25.957  -6.253  0.00  0.00     0.001 C 
ENDROOT
BRANCH   1   2
HETATM    2  C   UNK N   1      25.500  24.822  -5.256  0.00  0.00     0.010 C 
BRANCH   2   3
HETATM    3  C   UNK N   1      26.870  24.182  -5.137  0.00  0.00     0.110 C 
BRANCH   3   4
HETATM    4  C   UNK N   1      27.437  24.381  -3.759  0.00  0.00     0.139 C 
HETATM    5  O   UNK N   1      28.644  24.497  -3.586  0.00  0.00    -0.650 OA
BRANCH   4   6
HETATM    6  O   UNK N   1      26.611  24.432  -2.700  0.00  0.00    -0.776 OA
HETATM    7  H   UNK N   1      26.332  23.640  -2.285  0.00  0.00     0.167 HD
ENDBRANCH   4   6
ENDBRANCH   3   4
ENDBRANCH   2   3
ENDBRANCH   1   2
BRANCH   1   8
HETATM    8  C   UNK N   1      24.988  27.160  -5.474  0.00  0.00     0.010 C 
BRANCH   8   9
HETATM    9  C   UNK N   1      26.120  28.081  -5.057  0.00  0.00     0.110 C 
BRANCH   9  10
HETATM   10  C   UNK N   1      26.076  28.351  -3.578  0.00  0.00     0.139 C 
HETATM   11  O   UNK N   1      26.240  29.481  -3.140  0.00  0.00    -0.650 OA
BRANCH  10  12
HETATM   12  O   UNK N   1      25.853  27.336  -2.725  0.00  0.00    -0.776 OA
HETATM   13  H   UNK N   1      25.447  26.549  -3.028  0.00  0.00     0.167 HD
ENDBRANCH  10  12
ENDBRANCH   9  10
ENDBRANCH   8   9
ENDBRANCH   1   8
TORSDOF 8
ENDMDL
MODEL 5
REMARK VINA RESULT:      -4.3      3.486      4.924
REMARK  8 active torsions:
REMARK  status: ('A' for Active; 'I' for Inactive)
REMARK    1  A    between atoms: O_1  and  C_2 
REMARK    2  A    between atoms: C_2  and  C_4 
REMARK    3  A    between atoms: C_4  and  C_5 
REMARK    4  A    between atoms: C_5  and  C_6 
REMARK    5  A    between atoms: C_6  and  C_7 
REMARK    6  A    between atoms: C_7  and  C_8 
REMARK    7  A    between atoms: C_8  and  C_9 
REMARK    8  A    between atoms: C_9  and  O_10 
ROOT
HETATM    1  C   UNK N   1      31.323  16.613   7.522  0.00  0.00     0.001 C 
ENDROOT
BRANCH   1   2
HETATM    2  C   UNK N   1      30.886  17.197   6.198  0.00  0.00     0.010 C 
BRANCH   2   3
HETATM    3  C   UNK N   1      31.329  16.362   5.013  0.00  0.00     0.110 C 
BRANCH   3   4
HETATM    4  C   UNK N   1      32.032  17.211   3.990  0.00  0.00     0.139 C 
HETATM    5  O   UNK N   1      33.010  17.882   4.293  0.00  0.00    -0.650 OA
BRANCH   4   6
HETATM    6  O   UNK N   1      31.582  17.235   2.724  0.00  0.00    -0.776 OA
HETATM    7  H   UNK N   1      32.065  17.691   2.063  0.00  0.00     0.167 HD
ENDBRANCH   4   6
ENDBRANCH   3   4
ENDBRANCH   2   3
ENDBRANCH   1   2
BRANCH   1   8
HETATM    8  C   UNK N   1      31.958  17.759   8.275  0.00  0.00     0.010 C 
BRANCH   8   9
HETATM    9  C   UNK N   1      33.381  17.460   8.711  0.00  0.00     0.110 C 
BRANCH   9  10
HETATM   10  C   UNK N   1      34.369  18.249   7.896  0.00  0.00     0.139 C 
HETATM   11  O   UNK N   1      35.054  19.123   8.411  0.00  0.00    -0.650 OA
BRANCH  10  12
HETATM   12  O   UNK N   1      34.503  17.992   6.584  0.00  0.00    -0.776 OA
HETATM   13  H   UNK N   1      33.746  17.959   6.033  0.00  0.00     0.167 HD
ENDBRANCH  10  12
ENDBRANCH   9  10
ENDBRANCH   8   9
ENDBRANCH   1   8
TORSDOF 8
ENDMDL
MODEL 6
REMARK VINA RESULT:      -4.3     15.862     16.767
REMARK  8 active torsions:
REMARK  status: ('A' for Active; 'I' for Inactive)
REMARK    1  A    between atoms: O_1  and  C_2 
REMARK    2  A    between atoms: C_2  and  C_4 
REMARK    3  A    between atoms: C_4  and  C_5 
REMARK    4  A    between atoms: C_5  and  C_6 
REMARK    5  A    between atoms: C_6  and  C_7 
REMARK    6  A    between atoms: C_7  and  C_8 
REMARK    7  A    between atoms: C_8  and  C_9 
REMARK    8  A    between atoms: C_9  and  O_10 
ROOT
HETATM    1  C   UNK N   1      25.536  25.955  -6.638  0.00  0.00     0.001 C 
ENDROOT
BRANCH   1   2
HETATM    2  C   UNK N   1      25.031  26.962  -5.631  0.00  0.00     0.010 C 
BRANCH   2   3
HETATM    3  C   UNK N   1      26.085  27.978  -5.236  0.00  0.00     0.110 C 
BRANCH   3   4
HETATM    4  C   UNK N   1      25.817  28.526  -3.862  0.00  0.00     0.139 C 
HETATM    5  O   UNK N   1      25.455  27.792  -2.951  0.00  0.00    -0.650 OA
BRANCH   4   6
HETATM    6  O   UNK N   1      25.976  29.840  -3.628  0.00  0.00    -0.776 OA
HETATM    7  H   UNK N   1      26.374  30.129  -2.831  0.00  0.00     0.167 HD
ENDBRANCH   4   6
ENDBRANCH   3   4
ENDBRANCH   2   3
ENDBRANCH   1   2
BRANCH   1   8
HETATM    8  C   UNK N   1      26.766  25.342  -6.009  0.00  0.00     0.010 C 
BRANCH   8   9
HETATM    9  C   UNK N   1      26.440  24.179  -5.091  0.00  0.00     0.110 C 
BRANCH   9  10
HETATM   10  C   UNK N   1      27.059  24.375  -3.735  0.00  0.00     0.139 C 
HETATM   11  O   UNK N   1      28.092  23.795  -3.425  0.00  0.00    -0.650 OA
BRANCH  10  12
HETATM   12  O   UNK N   1      26.472  25.198  -2.849  0.00  0.00    -0.776 OA
HETATM   13  H   UNK N   1      26.102  24.852  -2.061  0.00  0.00     0.167 HD
ENDBRANCH  10  12
ENDBRANCH   9  10
ENDBRANCH   8   9
ENDBRANCH   1   8
TORSDOF 8
ENDMDL
MODEL 7
REMARK VINA RESULT:      -4.3      1.320      1.656
REMARK  8 active torsions:
REMARK  status: ('A' for Active; 'I' for Inactive)
REMARK    1  A    between atoms: O_1  and  C_2 
REMARK    2  A    between atoms: C_2  and  C_4 
REMARK    3  A    between atoms: C_4  and  C_5 
REMARK    4  A    between atoms: C_5  and  C_6 
REMARK    5  A    between atoms: C_6  and  C_7 
REMARK    6  A    between atoms: C_7  and  C_8 
REMARK    7  A    between atoms: C_8  and  C_9 
REMARK    8  A    between atoms: C_9  and  O_10 
ROOT
HETATM    1  C   UNK N   1      31.501  16.965   8.270  0.00  0.00     0.001 C 
ENDROOT
BRANCH   1   2
HETATM    2  C   UNK N   1      32.588  17.676   7.497  0.00  0.00     0.010 C 
BRANCH   2   3
HETATM    3  C   UNK N   1      33.968  17.108   7.767  0.00  0.00     0.110 C 
BRANCH   3   4
HETATM    4  C   UNK N   1      34.762  18.025   8.656  0.00  0.00     0.139 C 
HETATM    5  O   UNK N   1      34.979  19.185   8.331  0.00  0.00    -0.650 OA
BRANCH   4   6
HETATM    6  O   UNK N   1      35.242  17.566   9.825  0.00  0.00    -0.776 OA
HETATM    7  H   UNK N   1      35.506  16.671   9.904  0.00  0.00     0.167 HD
ENDBRANCH   4   6
ENDBRANCH   3   4
ENDBRANCH   2   3
ENDBRANCH   1   2
BRANCH   1   8
HETATM    8  C   UNK N   1      30.230  17.211   7.491  0.00  0.00     0.010 C 
BRANCH   8   9
HETATM    9  C   UNK N   1      29.427  18.380   8.029  0.00  0.00     0.110 C 
BRANCH   9  10
HETATM   10  C   UNK N   1      29.003  18.132   9.450  0.00  0.00     0.139 C 
HETATM   11  O   UNK N   1      28.039  17.422   9.705  0.00  0.00    -0.650 OA
BRANCH  10  12
HETATM   12  O   UNK N   1      29.691  18.697  10.457  0.00  0.00    -0.776 OA
HETATM   13  H   UNK N   1      29.532  19.590  10.691  0.00  0.00     0.167 HD
ENDBRANCH  10  12
ENDBRANCH   9  10
ENDBRANCH   8   9
ENDBRANCH   1   8
TORSDOF 8
ENDMDL
MODEL 8
REMARK VINA RESULT:      -4.1      9.959     11.215
REMARK  8 active torsions:
REMARK  status: ('A' for Active; 'I' for Inactive)
REMARK    1  A    between atoms: O_1  and  C_2 
REMARK    2  A    between atoms: C_2  and  C_4 
REMARK    3  A    between atoms: C_4  and  C_5 
REMARK    4  A    between atoms: C_5  and  C_6 
REMARK    5  A    between atoms: C_6  and  C_7 
REMARK    6  A    between atoms: C_7  and  C_8 
REMARK    7  A    between atoms: C_8  and  C_9 
REMARK    8  A    between atoms: C_9  and  O_10 
ROOT
HETATM    1  C   UNK N   1      21.555  14.473   8.900  0.00  0.00     0.001 C 
ENDROOT
BRANCH   1   2
HETATM    2  C   UNK N   1      21.889  13.529  10.032  0.00  0.00     0.010 C 
BRANCH   2   3
HETATM    3  C   UNK N   1      23.307  12.996   9.953  0.00  0.00     0.110 C 
BRANCH   3   4
HETATM    4  C   UNK N   1      23.590  12.051  11.088  0.00  0.00     0.139 C 
HETATM    5  O   UNK N   1      24.661  12.081  11.680  0.00  0.00    -0.650 OA
BRANCH   4   6
HETATM    6  O   UNK N   1      22.655  11.159  11.459  0.00  0.00    -0.776 OA
HETATM    7  H   UNK N   1      22.425  11.069  12.362  0.00  0.00     0.167 HD
ENDBRANCH   4   6
ENDBRANCH   3   4
ENDBRANCH   2   3
ENDBRANCH   1   2
BRANCH   1   8
HETATM    8  C   UNK N   1      20.200  15.047   9.243  0.00  0.00     0.010 C 
BRANCH   8   9
HETATM    9  C   UNK N   1      19.957  16.403   8.607  0.00  0.00     0.110 C 
BRANCH   9  10
HETATM   10  C   UNK N   1      18.624  16.960   9.023  0.00  0.00     0.139 C 
HETATM   11  O   UNK N   1      17.609  16.281   8.954  0.00  0.00    -0.650 OA
BRANCH  10  12
HETATM   12  O   UNK N   1      18.545  18.223   9.477  0.00  0.00    -0.776 OA
HETATM   13  H   UNK N   1      18.863  18.435  10.332  0.00  0.00     0.167 HD
ENDBRANCH  10  12
ENDBRANCH   9  10
ENDBRANCH   8   9
ENDBRANCH   1   8
TORSDOF 8
ENDMDL
MODEL 9
REMARK VINA RESULT:      -4.1      9.651     10.589
REMARK  8 active torsions:
REMARK  status: ('A' for Active; 'I' for Inactive)
REMARK    1  A    between atoms: O_1  and  C_2 
REMARK    2  A    between atoms: C_2  and  C_4 
REMARK    3  A    between atoms: C_4  and  C_5 
REMARK    4  A    between atoms: C_5  and  C_6 
REMARK    5  A    between atoms: C_6  and  C_7 
REMARK    6  A    between atoms: C_7  and  C_8 
REMARK    7  A    between atoms: C_8  and  C_9 
REMARK    8  A    between atoms: C_9  and  O_10 
ROOT
HETATM    1  C   UNK N   1      36.302  11.572  15.936  0.00  0.00     0.001 C 
ENDROOT
BRANCH   1   2
HETATM    2  C   UNK N   1      36.989  12.578  15.042  0.00  0.00     0.010 C 
BRANCH   2   3
HETATM    3  C   UNK N   1      36.105  13.763  14.702  0.00  0.00     0.110 C 
BRANCH   3   4
HETATM    4  C   UNK N   1      35.694  13.730  13.256  0.00  0.00     0.139 C 
HETATM    5  O   UNK N   1      36.458  14.106  12.376  0.00  0.00    -0.650 OA
BRANCH   4   6
HETATM    6  O   UNK N   1      34.472  13.282  12.922  0.00  0.00    -0.776 OA
HETATM    7  H   UNK N   1      34.097  13.517  12.096  0.00  0.00     0.167 HD
ENDBRANCH   4   6
ENDBRANCH   3   4
ENDBRANCH   2   3
ENDBRANCH   1   2
BRANCH   1   8
HETATM    8  C   UNK N   1      35.278  12.364  16.717  0.00  0.00     0.010 C 
BRANCH   8   9
HETATM    9  C   UNK N   1      35.265  12.011  18.193  0.00  0.00     0.110 C 
BRANCH   9  10
HETATM   10  C   UNK N   1      35.181  13.251  19.041  0.00  0.00     0.139 C 
HETATM   11  O   UNK N   1      35.354  14.359  18.553  0.00  0.00    -0.650 OA
BRANCH  10  12
HETATM   12  O   UNK N   1      34.913  13.141  20.353  0.00  0.00    -0.776 OA
HETATM   13  H   UNK N   1      34.044  13.292  20.668  0.00  0.00     0.167 HD
ENDBRANCH  10  12
ENDBRANCH   9  10
ENDBRANCH   8   9
ENDBRANCH   1   8
TORSDOF 8
ENDMDL
