MODEL 1
REMARK VINA RESULT:      -7.0      0.000      0.000
REMARK  1 active torsions:
REMARK  status: ('A' for Active; 'I' for Inactive)
REMARK    1  A    between atoms: O_19  and  C_15 
ROOT
HETATM    1  C   UNK N   1      31.587  16.996   6.965  0.00  0.00     0.024 C 
HETATM    2  C   UNK N   1      30.186  17.249   6.811  0.00  0.00    -0.004 A 
HETATM    3  C   UNK N   1      32.417  17.395   5.777  0.00  0.00     0.035 C 
HETATM    4  C   UNK N   1      29.658  17.550   8.011  0.00  0.00     0.110 A 
HETATM    5  C   UNK N   1      31.841  17.846   8.205  0.00  0.00     0.142 C 
HETATM    6  O   UNK N   1      30.649  17.692   8.929  0.00  0.00    -0.341 OA
HETATM    7  C   UNK N   1      31.829  16.563   4.584  0.00  0.00     0.232 C 
HETATM    8  C   UNK N   1      29.490  17.136   5.634  0.00  0.00    -0.046 A 
HETATM    9  C   UNK N   1      33.886  17.117   6.195  0.00  0.00     0.008 C 
HETATM   10  C   UNK N   1      30.286  16.891   4.353  0.00  0.00     0.075 C 
HETATM   11  N   UNK N   1      32.039  15.116   4.838  0.00  0.00     0.089 N 
HETATM   12  C   UNK N   1      31.737  15.475   7.255  0.00  0.00     0.048 C 
HETATM   13  C   UNK N   1      34.248  17.740   7.591  0.00  0.00     0.003 C 
HETATM   14  C   UNK N   1      33.218  17.472   8.741  0.00  0.00     0.034 C 
HETATM   15  C   UNK N   1      28.278  17.706   8.135  0.00  0.00     0.099 A 
HETATM   16  C   UNK N   1      31.338  14.648   6.035  0.00  0.00     0.273 C 
HETATM   17  C   UNK N   1      28.097  17.319   5.700  0.00  0.00     0.011 A 
HETATM   18  C   UNK N   1      27.485  17.580   6.962  0.00  0.00     0.040 A 
HETATM   19  C   UNK N   1      31.556  14.325   3.712  0.00  0.00     0.310 C 
ENDROOT
BRANCH  15  20
HETATM   20  O   UNK N   1      27.713  17.982   9.322  0.00  0.00    -0.358 OA
HETATM   21  H   UNK N   1      26.789  18.053   9.453  0.00  0.00     0.217 HD
ENDBRANCH  15  20
TORSDOF 1
ENDMDL
MODEL 2
REMARK VINA RESULT:      -6.8      8.062      9.835
REMARK  1 active torsions:
REMARK  status: ('A' for Active; 'I' for Inactive)
REMARK    1  A    between atoms: O_19  and  C_15 
ROOT
HETATM    1  C   UNK N   1      22.013  13.429   8.808  0.00  0.00     0.024 C 
HETATM    2  C   UNK N   1      21.721  14.560   7.979  0.00  0.00    -0.004 A 
HETATM    3  C   UNK N   1      23.440  13.362   9.274  0.00  0.00     0.035 C 
HETATM    4  C   UNK N   1      20.449  14.945   8.190  0.00  0.00     0.110 A 
HETATM    5  C   UNK N   1      21.014  13.700   9.929  0.00  0.00     0.142 C 
HETATM    6  O   UNK N   1      19.927  14.258   9.239  0.00  0.00    -0.341 OA
HETATM    7  C   UNK N   1      24.287  13.316   7.954  0.00  0.00     0.232 C 
HETATM    8  C   UNK N   1      22.587  15.114   7.070  0.00  0.00    -0.046 A 
HETATM    9  C   UNK N   1      23.504  12.128  10.214  0.00  0.00     0.008 C 
HETATM   10  C   UNK N   1      24.028  14.607   7.055  0.00  0.00     0.075 C 
HETATM   11  N   UNK N   1      23.977  12.071   7.209  0.00  0.00     0.089 N 
HETATM   12  C   UNK N   1      21.642  12.163   7.985  0.00  0.00     0.048 C 
HETATM   13  C   UNK N   1      22.372  12.136  11.303  0.00  0.00     0.003 C 
HETATM   14  C   UNK N   1      20.927  12.438  10.778  0.00  0.00     0.034 C 
HETATM   15  C   UNK N   1      19.894  15.947   7.396  0.00  0.00     0.099 A 
HETATM   16  C   UNK N   1      22.576  12.002   6.788  0.00  0.00     0.273 C 
HETATM   17  C   UNK N   1      22.084  16.153   6.267  0.00  0.00     0.011 A 
HETATM   18  C   UNK N   1      20.723  16.554   6.413  0.00  0.00     0.040 A 
HETATM   19  C   UNK N   1      24.798  11.977   6.009  0.00  0.00     0.310 C 
ENDROOT
BRANCH  15  20
HETATM   20  O   UNK N   1      18.620  16.339   7.560  0.00  0.00    -0.358 OA
HETATM   21  H   UNK N   1      17.881  15.795   7.378  0.00  0.00     0.217 HD
ENDBRANCH  15  20
TORSDOF 1
ENDMDL
MODEL 3
REMARK VINA RESULT:      -6.8      2.188      4.386
REMARK  1 active torsions:
REMARK  status: ('A' for Active; 'I' for Inactive)
REMARK    1  A    between atoms: O_19  and  C_15 
ROOT
HETATM    1  C   UNK N   1      30.722  17.196   7.079  0.00  0.00     0.024 C 
HETATM    2  C   UNK N   1      31.440  17.266   5.842  0.00  0.00    -0.004 A 
HETATM    3  C   UNK N   1      31.275  18.083   8.159  0.00  0.00     0.035 C 
HETATM    4  C   UNK N   1      30.582  17.076   4.823  0.00  0.00     0.110 A 
HETATM    5  C   UNK N   1      29.348  17.628   6.574  0.00  0.00     0.142 C 
HETATM    6  O   UNK N   1      29.306  17.064   5.290  0.00  0.00    -0.341 OA
HETATM    7  C   UNK N   1      32.757  17.601   8.348  0.00  0.00     0.232 C 
HETATM    8  C   UNK N   1      32.796  17.434   5.727  0.00  0.00    -0.046 A 
HETATM    9  C   UNK N   1      30.305  17.915   9.360  0.00  0.00     0.008 C 
HETATM   10  C   UNK N   1      33.588  17.744   6.996  0.00  0.00     0.075 C 
HETATM   11  N   UNK N   1      32.765  16.202   8.839  0.00  0.00     0.089 N 
HETATM   12  C   UNK N   1      30.742  15.707   7.524  0.00  0.00     0.048 C 
HETATM   13  C   UNK N   1      28.799  18.100   8.953  0.00  0.00     0.003 C 
HETATM   14  C   UNK N   1      28.340  17.318   7.674  0.00  0.00     0.034 C 
HETATM   15  C   UNK N   1      31.072  16.968   3.522  0.00  0.00     0.099 A 
HETATM   16  C   UNK N   1      32.159  15.268   7.887  0.00  0.00     0.273 C 
HETATM   17  C   UNK N   1      33.337  17.368   4.430  0.00  0.00     0.011 A 
HETATM   18  C   UNK N   1      32.473  17.108   3.325  0.00  0.00     0.040 A 
HETATM   19  C   UNK N   1      34.130  15.754   9.082  0.00  0.00     0.310 C 
ENDROOT
BRANCH  15  20
HETATM   20  O   UNK N   1      30.248  16.754   2.484  0.00  0.00    -0.358 OA
HETATM   21  H   UNK N   1      30.526  16.758   1.590  0.00  0.00     0.217 HD
ENDBRANCH  15  20
TORSDOF 1
ENDMDL
MODEL 4
REMARK VINA RESULT:      -6.8     10.657     12.640
REMARK  1 active torsions:
REMARK  status: ('A' for Active; 'I' for Inactive)
REMARK    1  A    between atoms: O_19  and  C_15 
ROOT
HETATM    1  C   UNK N   1      35.346  11.179  15.560  0.00  0.00     0.024 C 
HETATM    2  C   UNK N   1      35.254  11.526  16.946  0.00  0.00    -0.004 A 
HETATM    3  C   UNK N   1      34.658   9.892  15.203  0.00  0.00     0.035 C 
HETATM    4  C   UNK N   1      35.220  12.867  17.064  0.00  0.00     0.110 A 
HETATM    5  C   UNK N   1      34.680  12.417  14.967  0.00  0.00     0.142 C 
HETATM    6  O   UNK N   1      35.101  13.434  15.836  0.00  0.00    -0.341 OA
HETATM    7  C   UNK N   1      35.358   8.807  16.096  0.00  0.00     0.232 C 
HETATM    8  C   UNK N   1      35.266  10.630  17.985  0.00  0.00    -0.046 A 
HETATM    9  C   UNK N   1      34.808   9.763  13.663  0.00  0.00     0.008 C 
HETATM   10  C   UNK N   1      35.198   9.142  17.646  0.00  0.00     0.075 C 
HETATM   11  N   UNK N   1      36.786   8.697  15.714  0.00  0.00     0.089 N 
HETATM   12  C   UNK N   1      36.861  11.108  15.217  0.00  0.00     0.048 C 
HETATM   13  C   UNK N   1      34.376  11.068  12.901  0.00  0.00     0.003 C 
HETATM   14  C   UNK N   1      34.954  12.409  13.468  0.00  0.00     0.034 C 
HETATM   15  C   UNK N   1      35.265  13.447  18.331  0.00  0.00     0.099 A 
HETATM   16  C   UNK N   1      37.527   9.940  15.941  0.00  0.00     0.273 C 
HETATM   17  C   UNK N   1      35.277  11.166  19.286  0.00  0.00     0.011 A 
HETATM   18  C   UNK N   1      35.302  12.581  19.459  0.00  0.00     0.040 A 
HETATM   19  C   UNK N   1      37.442   7.650  16.487  0.00  0.00     0.310 C 
ENDROOT
BRANCH  15  20
HETATM   20  O   UNK N   1      35.258  14.780  18.486  0.00  0.00    -0.358 OA
HETATM   21  H   UNK N   1      36.031  15.309  18.477  0.00  0.00     0.217 HD
ENDBRANCH  15  20
TORSDOF 1
ENDMDL
MODEL 5
REMARK VINA RESULT:      -6.6     12.468     14.356
REMARK  1 active torsions:
REMARK  status: ('A' for Active; 'I' for Inactive)
REMARK    1  A    between atoms: O_19  and  C_15 
ROOT
HETATM    1  C   UNK N   1      28.011  24.006  -5.203  0.00  0.00     0.024 C 
HETATM    2  C   UNK N   1      28.966  23.079  -4.674  0.00  0.00    -0.004 A 
HETATM    3  C   UNK N   1      27.102  23.422  -6.247  0.00  0.00     0.035 C 
HETATM    4  C   UNK N   1      29.209  23.383  -3.386  0.00  0.00     0.110 A 
HETATM    5  C   UNK N   1      27.299  24.372  -3.904  0.00  0.00     0.142 C 
HETATM    6  O   UNK N   1      28.343  24.343  -2.967  0.00  0.00    -0.341 OA
HETATM    7  C   UNK N   1      28.068  22.913  -7.375  0.00  0.00     0.232 C 
HETATM    8  C   UNK N   1      29.578  22.084  -5.392  0.00  0.00    -0.046 A 
HETATM    9  C   UNK N   1      26.110  24.560  -6.608  0.00  0.00     0.008 C 
HETATM   10  C   UNK N   1      29.088  21.824  -6.815  0.00  0.00     0.075 C 
HETATM   11  N   UNK N   1      28.785  24.066  -7.970  0.00  0.00     0.089 N 
HETATM   12  C   UNK N   1      28.821  25.199  -5.784  0.00  0.00     0.048 C 
HETATM   13  C   UNK N   1      25.453  25.216  -5.340  0.00  0.00     0.003 C 
HETATM   14  C   UNK N   1      26.440  25.599  -4.184  0.00  0.00     0.034 C 
HETATM   15  C   UNK N   1      30.208  22.699  -2.694  0.00  0.00     0.099 A 
HETATM   16  C   UNK N   1      29.634  24.762  -7.001  0.00  0.00     0.273 C 
HETATM   17  C   UNK N   1      30.571  21.341  -4.728  0.00  0.00     0.011 A 
HETATM   18  C   UNK N   1      30.905  21.667  -3.380  0.00  0.00     0.040 A 
HETATM   19  C   UNK N   1      29.642  23.625  -9.064  0.00  0.00     0.310 C 
ENDROOT
BRANCH  15  20
HETATM   20  O   UNK N   1      30.495  22.993  -1.416  0.00  0.00    -0.358 OA
HETATM   21  H   UNK N   1      31.338  23.279  -1.125  0.00  0.00     0.217 HD
ENDBRANCH  15  20
TORSDOF 1
ENDMDL
MODEL 6
REMARK VINA RESULT:      -6.6     10.554     12.452
REMARK  1 active torsions:
REMARK  status: ('A' for Active; 'I' for Inactive)
REMARK    1  A    between atoms: O_19  and  C_15 
ROOT
HETATM    1  C   UNK N   1      35.760  10.706  16.410  0.00  0.00     0.024 C 
HETATM    2  C   UNK N   1      35.745  12.028  16.960  0.00  0.00    -0.004 A 
HETATM    3  C   UNK N   1      36.818  10.488  15.365  0.00  0.00     0.035 C 
HETATM    4  C   UNK N   1      35.354  11.966  18.246  0.00  0.00     0.110 A 
HETATM    5  C   UNK N   1      35.998   9.922  17.697  0.00  0.00     0.142 C 
HETATM    6  O   UNK N   1      35.282  10.669  18.644  0.00  0.00    -0.341 OA
HETATM    7  C   UNK N   1      36.502  11.549  14.253  0.00  0.00     0.232 C 
HETATM    8  C   UNK N   1      36.022  13.174  16.260  0.00  0.00    -0.046 A 
HETATM    9  C   UNK N   1      36.708   8.988  14.981  0.00  0.00     0.008 C 
HETATM   10  C   UNK N   1      36.555  13.032  14.835  0.00  0.00     0.075 C 
HETATM   11  N   UNK N   1      35.179  11.256  13.649  0.00  0.00     0.089 N 
HETATM   12  C   UNK N   1      34.344  10.449  15.821  0.00  0.00     0.048 C 
HETATM   13  C   UNK N   1      36.703   8.040  16.234  0.00  0.00     0.003 C 
HETATM   14  C   UNK N   1      35.733   8.453  17.394  0.00  0.00     0.034 C 
HETATM   15  C   UNK N   1      35.135  13.146  18.955  0.00  0.00     0.099 A 
HETATM   16  C   UNK N   1      34.085  11.353  14.618  0.00  0.00     0.273 C 
HETATM   17  C   UNK N   1      35.848  14.392  16.942  0.00  0.00     0.011 A 
HETATM   18  C   UNK N   1      35.378  14.378  18.289  0.00  0.00     0.040 A 
HETATM   19  C   UNK N   1      34.891  12.192  12.570  0.00  0.00     0.310 C 
ENDROOT
BRANCH  15  20
HETATM   20  O   UNK N   1      34.721  13.123  20.232  0.00  0.00    -0.358 OA
HETATM   21  H   UNK N   1      33.820  13.087  20.486  0.00  0.00     0.217 HD
ENDBRANCH  15  20
TORSDOF 1
ENDMDL
MODEL 7
REMARK VINA RESULT:      -6.4     13.692     15.440
REMARK  1 active torsions:
REMARK  status: ('A' for Active; 'I' for Inactive)
REMARK    1  A    between atoms: O_19  and  C_15 
ROOT
HETATM    1  C   UNK N   1      27.102  25.302  -5.418  0.00  0.00     0.024 C 
HETATM    2  C   UNK N   1      27.098  24.126  -6.234  0.00  0.00    -0.004 A 
HETATM    3  C   UNK N   1      28.449  25.956  -5.291  0.00  0.00     0.035 C 
HETATM    4  C   UNK N   1      25.911  24.027  -6.860  0.00  0.00     0.110 A 
HETATM    5  C   UNK N   1      26.090  26.132  -6.203  0.00  0.00     0.142 C 
HETATM    6  O   UNK N   1      25.187  25.159  -6.657  0.00  0.00    -0.341 OA
HETATM    7  C   UNK N   1      29.371  24.846  -4.671  0.00  0.00     0.232 C 
HETATM    8  C   UNK N   1      28.121  23.215  -6.307  0.00  0.00    -0.046 A 
HETATM    9  C   UNK N   1      28.203  27.238  -4.451  0.00  0.00     0.008 C 
HETATM   10  C   UNK N   1      29.434  23.557  -5.607  0.00  0.00     0.075 C 
HETATM   11  N   UNK N   1      28.886  24.501  -3.313  0.00  0.00     0.089 N 
HETATM   12  C   UNK N   1      26.559  24.882  -4.023  0.00  0.00     0.048 C 
HETATM   13  C   UNK N   1      27.013  28.104  -5.003  0.00  0.00     0.003 C 
HETATM   14  C   UNK N   1      25.698  27.318  -5.331  0.00  0.00     0.034 C 
HETATM   15  C   UNK N   1      25.621  22.888  -7.609  0.00  0.00     0.099 A 
HETATM   16  C   UNK N   1      27.534  23.937  -3.324  0.00  0.00     0.273 C 
HETATM   17  C   UNK N   1      27.890  22.062  -7.080  0.00  0.00     0.011 A 
HETATM   18  C   UNK N   1      26.625  21.886  -7.713  0.00  0.00     0.040 A 
HETATM   19  C   UNK N   1      29.764  23.517  -2.692  0.00  0.00     0.310 C 
ENDROOT
BRANCH  15  20
HETATM   20  O   UNK N   1      24.438  22.744  -8.227  0.00  0.00    -0.358 OA
HETATM   21  H   UNK N   1      23.617  22.704  -7.777  0.00  0.00     0.217 HD
ENDBRANCH  15  20
TORSDOF 1
ENDMDL
MODEL 8
REMARK VINA RESULT:      -6.4      9.101     11.221
REMARK  1 active torsions:
REMARK  status: ('A' for Active; 'I' for Inactive)
REMARK    1  A    between atoms: O_19  and  C_15 
ROOT
HETATM    1  C   UNK N   1      35.858  11.850  14.953  0.00  0.00     0.024 C 
HETATM    2  C   UNK N   1      36.552  12.156  13.739  0.00  0.00    -0.004 A 
HETATM    3  C   UNK N   1      36.627  10.964  15.893  0.00  0.00     0.035 C 
HETATM    4  C   UNK N   1      36.204  13.390  13.331  0.00  0.00     0.110 A 
HETATM    5  C   UNK N   1      35.662  13.271  15.472  0.00  0.00     0.142 C 
HETATM    6  O   UNK N   1      35.462  14.000  14.290  0.00  0.00    -0.341 OA
HETATM    7  C   UNK N   1      36.907   9.659  15.068  0.00  0.00     0.232 C 
HETATM    8  C   UNK N   1      37.386  11.295  13.070  0.00  0.00    -0.046 A 
HETATM    9  C   UNK N   1      35.735  10.840  17.157  0.00  0.00     0.008 C 
HETATM   10  C   UNK N   1      37.744   9.975  13.749  0.00  0.00     0.075 C 
HETATM   11  N   UNK N   1      35.622   8.993  14.742  0.00  0.00     0.089 N 
HETATM   12  C   UNK N   1      34.514  11.184  14.545  0.00  0.00     0.048 C 
HETATM   13  C   UNK N   1      35.245  12.233  17.692  0.00  0.00     0.003 C 
HETATM   14  C   UNK N   1      34.655  13.205  16.614  0.00  0.00     0.034 C 
HETATM   15  C   UNK N   1      36.652  13.858  12.096  0.00  0.00     0.099 A 
HETATM   16  C   UNK N   1      34.758   9.822  13.898  0.00  0.00     0.273 C 
HETATM   17  C   UNK N   1      37.892  11.735  11.833  0.00  0.00     0.011 A 
HETATM   18  C   UNK N   1      37.503  13.012  11.332  0.00  0.00     0.040 A 
HETATM   19  C   UNK N   1      35.860   7.744  14.030  0.00  0.00     0.310 C 
ENDROOT
BRANCH  15  20
HETATM   20  O   UNK N   1      36.305  15.074  11.645  0.00  0.00    -0.358 OA
HETATM   21  H   UNK N   1      35.769  15.215  10.890  0.00  0.00     0.217 HD
ENDBRANCH  15  20
TORSDOF 1
ENDMDL
MODEL 9
REMARK VINA RESULT:      -6.4      9.251     11.716
REMARK  1 active torsions:
REMARK  status: ('A' for Active; 'I' for Inactive)
REMARK    1  A    between atoms: O_19  and  C_15 
ROOT
HETATM    1  C   UNK N   1      20.502  16.149   2.435  0.00  0.00     0.024 C 
HETATM    2  C   UNK N   1      20.579  17.570   2.587  0.00  0.00    -0.004 A 
HETATM    3  C   UNK N   1      19.803  15.447   3.565  0.00  0.00     0.035 C 
HETATM    4  C   UNK N   1      20.530  18.147   1.372  0.00  0.00     0.110 A 
HETATM    5  C   UNK N   1      19.738  16.098   1.115  0.00  0.00     0.142 C 
HETATM    6  O   UNK N   1      20.242  17.213   0.429  0.00  0.00    -0.341 OA
HETATM    7  C   UNK N   1      20.634  15.825   4.841  0.00  0.00     0.232 C 
HETATM    8  C   UNK N   1      20.743  18.226   3.781  0.00  0.00    -0.046 A 
HETATM    9  C   UNK N   1      19.759  13.951   3.152  0.00  0.00     0.008 C 
HETATM   10  C   UNK N   1      20.666  17.403   5.065  0.00  0.00     0.075 C 
HETATM   11  N   UNK N   1      22.005  15.272   4.722  0.00  0.00     0.089 N 
HETATM   12  C   UNK N   1      21.962  15.635   2.287  0.00  0.00     0.048 C 
HETATM   13  C   UNK N   1      19.204  13.741   1.697  0.00  0.00     0.003 C 
HETATM   14  C   UNK N   1      19.819  14.669   0.594  0.00  0.00     0.034 C 
HETATM   15  C   UNK N   1      20.722  19.523   1.257  0.00  0.00     0.099 A 
HETATM   16  C   UNK N   1      22.741  15.831   3.585  0.00  0.00     0.273 C 
HETATM   17  C   UNK N   1      20.907  19.622   3.721  0.00  0.00     0.011 A 
HETATM   18  C   UNK N   1      20.922  20.270   2.450  0.00  0.00     0.040 A 
HETATM   19  C   UNK N   1      22.778  15.557   5.925  0.00  0.00     0.310 C 
ENDROOT
BRANCH  15  20
HETATM   20  O   UNK N   1      20.705  20.130   0.059  0.00  0.00    -0.358 OA
HETATM   21  H   UNK N   1      21.442  20.161  -0.518  0.00  0.00     0.217 HD
ENDBRANCH  15  20
TORSDOF 1
ENDMDL
