MODEL 1
REMARK VINA RESULT:      -4.5      0.000      0.000
REMARK  0 active torsions:
REMARK  status: ('A' for Active; 'I' for Inactive)
ROOT
HETATM    1  C   UNK N   1      25.022  13.432   8.991  0.00  0.00     0.089 C 
HETATM    2  C   UNK N   1      23.779  13.037   9.706  0.00  0.00     0.078 A 
HETATM    3  N   UNK N   1      23.864  12.530  10.896  0.00  0.00    -0.332 N 
ATOM      4  HN  UNK N   1      24.782  12.401  11.320  1.00  0.00     0.168 HD
HETATM    5  C   UNK N   1      22.702  12.152  11.620  0.00  0.00     0.111 A 
HETATM    6  N   UNK N   1      22.813  11.604  12.775  0.00  0.00    -0.385 N 
ATOM      7  HN  UNK N   1      23.735  11.469  13.189  1.00  0.00     0.157 HD
HETATM    8  C   UNK N   1      21.386  12.382  11.004  0.00  0.00     0.014 A 
HETATM    9  C   UNK N   1      20.241  12.092  11.621  0.00  0.00     0.028 C 
HETATM   10  C   UNK N   1      21.389  12.939   9.644  0.00  0.00     0.103 A 
HETATM   11  N   UNK N   1      22.509  13.229   9.068  0.00  0.00    -0.355 N 
ATOM     12  HN  UNK N   1      22.488  13.608   8.121  1.00  0.00     0.166 HD
HETATM   13  H   UNK N   1      22.009  11.314  13.263  0.00  0.00     0.157 HD
ENDROOT
TORSDOF 0
ENDMDL
MODEL 2
REMARK VINA RESULT:      -4.3      1.579      2.397
REMARK  0 active torsions:
REMARK  status: ('A' for Active; 'I' for Inactive)
ROOT
HETATM    1  C   UNK N   1      22.993  12.456   7.510  0.00  0.00     0.089 C 
HETATM    2  C   UNK N   1      23.021  12.324   8.992  0.00  0.00     0.078 A 
HETATM    3  N   UNK N   1      21.906  12.214   9.642  0.00  0.00    -0.332 N 
ATOM      4  HN  UNK N   1      21.024  12.229   9.129  1.00  0.00     0.168 HD
HETATM    5  C   UNK N   1      21.888  12.073  11.055  0.00  0.00     0.111 A 
HETATM    6  N   UNK N   1      20.770  12.018  11.683  0.00  0.00    -0.385 N 
ATOM      7  HN  UNK N   1      19.892  12.044  11.165  1.00  0.00     0.157 HD
HETATM    8  C   UNK N   1      23.173  12.016  11.771  0.00  0.00     0.014 A 
HETATM    9  C   UNK N   1      23.256  11.851  13.090  0.00  0.00     0.028 C 
HETATM   10  C   UNK N   1      24.384  12.173  10.952  0.00  0.00     0.103 A 
HETATM   11  N   UNK N   1      24.284  12.317   9.673  0.00  0.00    -0.355 N 
ATOM     12  HN  UNK N   1      25.137  12.431   9.125  1.00  0.00     0.166 HD
HETATM   13  H   UNK N   1      20.759  11.951  12.665  0.00  0.00     0.157 HD
ENDROOT
TORSDOF 0
ENDMDL
MODEL 3
REMARK VINA RESULT:      -4.2      1.459      3.159
REMARK  0 active torsions:
REMARK  status: ('A' for Active; 'I' for Inactive)
ROOT
HETATM    1  C   UNK N   1      23.271  11.802  13.246  0.00  0.00     0.089 C 
HETATM    2  C   UNK N   1      23.104  12.161  11.812  0.00  0.00     0.078 A 
HETATM    3  N   UNK N   1      24.131  12.571  11.136  0.00  0.00    -0.332 N 
ATOM      4  HN  UNK N   1      25.036  12.651  11.600  1.00  0.00     0.168 HD
HETATM    5  C   UNK N   1      24.020  12.910   9.761  0.00  0.00     0.111 A 
HETATM    6  N   UNK N   1      25.038  13.363   9.126  0.00  0.00    -0.385 N 
ATOM      7  HN  UNK N   1      25.938  13.450   9.598  1.00  0.00     0.157 HD
HETATM    8  C   UNK N   1      22.713  12.751   9.103  0.00  0.00     0.014 A 
HETATM    9  C   UNK N   1      22.521  13.011   7.810  0.00  0.00     0.028 C 
HETATM   10  C   UNK N   1      21.603  12.303   9.955  0.00  0.00     0.103 A 
HETATM   11  N   UNK N   1      21.812  12.041  11.203  0.00  0.00    -0.355 N 
ATOM     12  HN  UNK N   1      21.025  11.738  11.778  1.00  0.00     0.166 HD
HETATM   13  H   UNK N   1      24.953  13.627   8.181  0.00  0.00     0.157 HD
ENDROOT
TORSDOF 0
ENDMDL
MODEL 4
REMARK VINA RESULT:      -4.1      1.603      3.612
REMARK  0 active torsions:
REMARK  status: ('A' for Active; 'I' for Inactive)
ROOT
HETATM    1  C   UNK N   1      23.244  11.802  13.187  0.00  0.00     0.089 C 
HETATM    2  C   UNK N   1      23.434  12.161  11.756  0.00  0.00     0.078 A 
HETATM    3  N   UNK N   1      22.406  12.196  10.967  0.00  0.00    -0.332 N 
ATOM      4  HN  UNK N   1      21.483  11.967  11.338  1.00  0.00     0.168 HD
HETATM    5  C   UNK N   1      22.539  12.546   9.598  0.00  0.00     0.111 A 
HETATM    6  N   UNK N   1      21.515  12.523   8.824  0.00  0.00    -0.385 N 
ATOM      7  HN  UNK N   1      20.598  12.284   9.199  1.00  0.00     0.157 HD
HETATM    8  C   UNK N   1      23.873  12.909   9.094  0.00  0.00     0.014 A 
HETATM    9  C   UNK N   1      24.090  13.286   7.834  0.00  0.00     0.028 C 
HETATM   10  C   UNK N   1      24.982  12.819  10.055  0.00  0.00     0.103 A 
HETATM   11  N   UNK N   1      24.750  12.467  11.276  0.00  0.00    -0.355 N 
ATOM     12  HN  UNK N   1      25.535  12.404  11.924  1.00  0.00     0.166 HD
HETATM   13  H   UNK N   1      21.615  12.737   7.868  0.00  0.00     0.157 HD
ENDROOT
TORSDOF 0
ENDMDL
MODEL 5
REMARK VINA RESULT:      -4.1      1.088      3.253
REMARK  0 active torsions:
REMARK  status: ('A' for Active; 'I' for Inactive)
ROOT
HETATM    1  C   UNK N   1      20.338  12.119  11.667  0.00  0.00     0.089 C 
HETATM    2  C   UNK N   1      21.525  12.391  10.812  0.00  0.00     0.078 A 
HETATM    3  N   UNK N   1      22.713  12.257  11.312  0.00  0.00    -0.332 N 
ATOM      4  HN  UNK N   1      22.817  11.975  12.287  1.00  0.00     0.168 HD
HETATM    5  C   UNK N   1      23.873  12.493  10.528  0.00  0.00     0.111 A 
HETATM    6  N   UNK N   1      25.038  12.404  11.059  0.00  0.00    -0.385 N 
ATOM      7  HN  UNK N   1      25.134  12.132  12.037  1.00  0.00     0.157 HD
HETATM    8  C   UNK N   1      23.701  12.861   9.114  0.00  0.00     0.014 A 
HETATM    9  C   UNK N   1      24.729  13.068   8.292  0.00  0.00     0.028 C 
HETATM   10  C   UNK N   1      22.317  13.013   8.642  0.00  0.00     0.103 A 
HETATM   11  N   UNK N   1      21.333  12.793   9.449  0.00  0.00    -0.355 N 
ATOM     12  HN  UNK N   1      20.380  12.911   9.103  1.00  0.00     0.166 HD
HETATM   13  H   UNK N   1      25.841  12.598  10.522  0.00  0.00     0.157 HD
ENDROOT
TORSDOF 0
ENDMDL
MODEL 6
REMARK VINA RESULT:      -4.1     22.919     24.956
REMARK  0 active torsions:
REMARK  status: ('A' for Active; 'I' for Inactive)
ROOT
HETATM    1  C   UNK N   1      45.860  25.012   2.168  0.00  0.00     0.089 C 
HETATM    2  C   UNK N   1      44.943  23.904   2.550  0.00  0.00     0.078 A 
HETATM    3  N   UNK N   1      43.730  23.897   2.095  0.00  0.00    -0.332 N 
ATOM      4  HN  UNK N   1      43.419  24.657   1.489  1.00  0.00     0.168 HD
HETATM    5  C   UNK N   1      42.826  22.853   2.423  0.00  0.00     0.111 A 
HETATM    6  N   UNK N   1      41.614  22.894   2.003  0.00  0.00    -0.385 N 
ATOM      7  HN  UNK N   1      41.306  23.662   1.406  1.00  0.00     0.157 HD
HETATM    8  C   UNK N   1      43.307  21.748   3.267  0.00  0.00     0.014 A 
HETATM    9  C   UNK N   1      42.543  20.708   3.598  0.00  0.00     0.028 C 
HETATM   10  C   UNK N   1      44.690  21.853   3.755  0.00  0.00     0.103 A 
HETATM   11  N   UNK N   1      45.421  22.861   3.411  0.00  0.00    -0.355 N 
ATOM     12  HN  UNK N   1      46.375  22.918   3.767  1.00  0.00     0.166 HD
HETATM   13  H   UNK N   1      40.980  22.185   2.256  0.00  0.00     0.157 HD
ENDROOT
TORSDOF 0
ENDMDL
MODEL 7
REMARK VINA RESULT:      -4.1     11.238     12.348
REMARK  0 active torsions:
REMARK  status: ('A' for Active; 'I' for Inactive)
ROOT
HETATM    1  C   UNK N   1      33.941  18.250   8.126  0.00  0.00     0.089 C 
HETATM    2  C   UNK N   1      34.145  17.142   9.097  0.00  0.00     0.078 A 
HETATM    3  N   UNK N   1      33.519  16.020   8.923  0.00  0.00    -0.332 N 
ATOM      4  HN  UNK N   1      32.888  15.918   8.127  1.00  0.00     0.168 HD
HETATM    5  C   UNK N   1      33.695  14.932   9.818  0.00  0.00     0.111 A 
HETATM    6  N   UNK N   1      33.025  13.849   9.654  0.00  0.00    -0.385 N 
ATOM      7  HN  UNK N   1      32.389  13.757   8.863  1.00  0.00     0.157 HD
HETATM    8  C   UNK N   1      34.638  15.089  10.936  0.00  0.00     0.014 A 
HETATM    9  C   UNK N   1      34.894  14.112  11.806  0.00  0.00     0.028 C 
HETATM   10  C   UNK N   1      35.283  16.403  11.067  0.00  0.00     0.103 A 
HETATM   11  N   UNK N   1      35.034  17.333  10.206  0.00  0.00    -0.355 N 
ATOM     12  HN  UNK N   1      35.488  18.240  10.320  1.00  0.00     0.166 HD
HETATM   13  H   UNK N   1      33.125  13.107  10.293  0.00  0.00     0.157 HD
ENDROOT
TORSDOF 0
ENDMDL
MODEL 8
REMARK VINA RESULT:      -4.1      9.083     10.161
REMARK  0 active torsions:
REMARK  status: ('A' for Active; 'I' for Inactive)
ROOT
HETATM    1  C   UNK N   1      28.379  18.639   8.571  0.00  0.00     0.089 C 
HETATM    2  C   UNK N   1      27.955  19.086   7.216  0.00  0.00     0.078 A 
HETATM    3  N   UNK N   1      28.420  18.477   6.171  0.00  0.00    -0.332 N 
ATOM      4  HN  UNK N   1      29.076  17.706   6.292  1.00  0.00     0.168 HD
HETATM    5  C   UNK N   1      28.032  18.862   4.861  0.00  0.00     0.111 A 
HETATM    6  N   UNK N   1      28.544  18.278   3.839  0.00  0.00    -0.385 N 
ATOM      7  HN  UNK N   1      29.208  17.515   3.967  1.00  0.00     0.157 HD
HETATM    8  C   UNK N   1      27.054  19.953   4.711  0.00  0.00     0.014 A 
HETATM    9  C   UNK N   1      26.605  20.359   3.524  0.00  0.00     0.028 C 
HETATM   10  C   UNK N   1      26.602  20.599   5.951  0.00  0.00     0.103 A 
HETATM   11  N   UNK N   1      27.037  20.181   7.093  0.00  0.00    -0.355 N 
ATOM     12  HN  UNK N   1      26.715  20.649   7.940  1.00  0.00     0.166 HD
HETATM   13  H   UNK N   1      28.297  18.567   2.931  0.00  0.00     0.157 HD
ENDROOT
TORSDOF 0
ENDMDL
MODEL 9
REMARK VINA RESULT:      -4.0      9.186      9.892
REMARK  0 active torsions:
REMARK  status: ('A' for Active; 'I' for Inactive)
ROOT
HETATM    1  C   UNK N   1      29.845  16.699   5.224  0.00  0.00     0.089 C 
HETATM    2  C   UNK N   1      29.035  17.909   5.531  0.00  0.00     0.078 A 
HETATM    3  N   UNK N   1      28.620  18.105   6.742  0.00  0.00    -0.332 N 
ATOM      4  HN  UNK N   1      28.846  17.423   7.466  1.00  0.00     0.168 HD
HETATM    5  C   UNK N   1      27.856  19.253   7.082  0.00  0.00     0.111 A 
HETATM    6  N   UNK N   1      27.411  19.401   8.276  0.00  0.00    -0.385 N 
ATOM      7  HN  UNK N   1      27.632  18.709   8.993  1.00  0.00     0.157 HD
HETATM    8  C   UNK N   1      27.573  20.244   6.031  0.00  0.00     0.014 A 
HETATM    9  C   UNK N   1      26.896  21.367   6.262  0.00  0.00     0.028 C 
HETATM   10  C   UNK N   1      28.065  19.924   4.683  0.00  0.00     0.103 A 
HETATM   11  N   UNK N   1      28.734  18.838   4.481  0.00  0.00    -0.355 N 
ATOM     12  HN  UNK N   1      29.060  18.632   3.536  1.00  0.00     0.166 HD
HETATM   13  H   UNK N   1      26.856  20.182   8.503  0.00  0.00     0.157 HD
ENDROOT
TORSDOF 0
ENDMDL
