REMARK  29 active torsions:
REMARK  status: ('A' for Active; 'I' for Inactive)
REMARK    1  A    between atoms: C_2  and  C_4 
REMARK    2  A    between atoms: C_2  and  C_39 
REMARK    3  A    between atoms: C_4  and  O_5 
REMARK    4  A    between atoms: P_6  and  O_5 
REMARK    5  A    between atoms: P_6  and  O_7 
REMARK    6  A    between atoms: P_6  and  O_9 
REMARK    7  A    between atoms: P_10  and  O_9 
REMARK    8  A    between atoms: P_10  and  O_11 
REMARK    9  A    between atoms: P_10  and  O_13 
REMARK   10  A    between atoms: O_13  and  C_14 
REMARK   11  A    between atoms: C_15  and  C_14 
REMARK   12  A    between atoms: C_17  and  N_26 
REMARK   13  A    between atoms: C_18  and  O_19 
REMARK   14  A    between atoms: C_20  and  O_21 
REMARK   15  A    between atoms: O_21  and  P_22 
REMARK   16  A    between atoms: P_22  and  O_23 
REMARK   17  A    between atoms: P_22  and  O_24 
REMARK   18  A    between atoms: C_31  and  N_32 
REMARK   19  A    between atoms: C_39  and  O_40 
REMARK   20  A    between atoms: C_39  and  C_41 
REMARK       I    between atoms: C_41  and  N_43 
REMARK   21  A    between atoms: N_43  and  C_44 
REMARK   22  A    between atoms: C_44  and  C_45 
REMARK   23  A    between atoms: C_45  and  C_46 
REMARK       I    between atoms: C_46  and  N_48 
REMARK   24  A    between atoms: N_48  and  C_49 
REMARK   25  A    between atoms: C_49  and  C_50 
REMARK   26  A    between atoms: C_50  and  S_51 
REMARK   27  A    between atoms: S_51  and  C_52 
REMARK   28  A    between atoms: C_52  and  C_54 
REMARK   29  A    between atoms: C_57  and  O_58 
ROOT
HETATM    1  O   UNK N   1       6.813  -4.136  -0.077  0.00  0.00    -0.195 OA
ENDROOT
BRANCH   1   2
HETATM    2  P   UNK N   1       7.870  -2.967   0.668  0.00  0.00     0.401 P 
HETATM    3  O   UNK N   1       7.065  -2.319   1.826  0.00  0.00    -0.631 OA
BRANCH   2   4
HETATM    4  O   UNK N   1       8.327  -1.711  -0.451  0.00  0.00    -0.296 OA
BRANCH   4   5
HETATM    5  C   UNK N   1       9.552  -1.185  -0.030  0.00  0.00     0.192 C 
BRANCH   5   6
HETATM    6  C   UNK N   1       9.387   0.224   0.556  0.00  0.00     0.009 C 
HETATM    7  C   UNK N   1       8.750   0.152   1.933  0.00  0.00     0.020 C 
HETATM    8  C   UNK N   1       8.505   1.021  -0.367  0.00  0.00     0.020 C 
BRANCH   6   9
HETATM    9  C   UNK N   1      10.716   0.980   0.612  0.00  0.00     0.219 C 
BRANCH   9  10
HETATM   10  O   UNK N   1      10.674   2.182   1.324  0.00  0.00    -0.385 OA
HETATM   11  H   UNK N   1      11.382   2.624   1.818  0.00  0.00     0.210 HD
ENDBRANCH   9  10
BRANCH   9  12
HETATM   12  C   UNK N   1      11.982   0.231   0.823  0.00  0.00     0.247 C 
HETATM   13  O   UNK N   1      11.998  -0.836   1.422  0.00  0.00    -0.271 OA
HETATM   14  N   UNK N   1      13.082   0.690   0.198  0.00  0.00    -0.358 N 
HETATM   15  H   UNK N   1      13.057   1.578  -0.226  0.00  0.00     0.162 HD
BRANCH  14  16
HETATM   16  C   UNK N   1      14.282  -0.076   0.136  0.00  0.00     0.132 C 
BRANCH  16  17
HETATM   17  C   UNK N   1      14.476  -0.491  -1.309  0.00  0.00     0.122 C 
BRANCH  17  18
HETATM   18  C   UNK N   1      14.474  -1.983  -1.466  0.00  0.00     0.219 C 
HETATM   19  O   UNK N   1      13.635  -2.495  -2.188  0.00  0.00    -0.274 OA
HETATM   20  N   UNK N   1      15.403  -2.775  -0.863  0.00  0.00    -0.360 N 
HETATM   21  H   UNK N   1      15.413  -3.730  -1.099  0.00  0.00     0.162 HD
BRANCH  20  22
HETATM   22  C   UNK N   1      16.378  -2.308   0.102  0.00  0.00     0.133 C 
BRANCH  22  23
HETATM   23  C   UNK N   1      17.124  -1.067  -0.362  0.00  0.00     0.102 C 
BRANCH  23  24
HETATM   24  S   UNK N   1      17.533  -0.077   1.111  0.00  0.00    -0.086 SA
BRANCH  24  25
HETATM   25  C   UNK N   1      19.230   0.136   0.582  0.00  0.00     0.219 C 
HETATM   26  O   UNK N   1      19.635   1.263   0.341  0.00  0.00    -0.280 OA
BRANCH  25  27
HETATM   27  C   UNK N   1      20.109  -1.033   0.372  0.00  0.00     0.021 A 
HETATM   28  C   UNK N   1      21.377  -0.867  -0.198  0.00  0.00     0.019 A 
HETATM   29  C   UNK N   1      22.179  -1.980  -0.461  0.00  0.00     0.037 A 
HETATM   30  C   UNK N   1      21.719  -3.264  -0.155  0.00  0.00     0.065 A 
HETATM   31  C   UNK N   1      20.462  -3.436   0.428  0.00  0.00     0.037 A 
HETATM   32  C   UNK N   1      19.661  -2.325   0.689  0.00  0.00     0.019 A 
BRANCH  30  33
HETATM   33  O   UNK N   1      22.483  -4.333  -0.423  0.00  0.00    -0.361 OA
HETATM   34  H   UNK N   1      22.104  -5.169  -0.610  0.00  0.00     0.217 HD
ENDBRANCH  30  33
ENDBRANCH  25  27
ENDBRANCH  24  25
ENDBRANCH  23  24
ENDBRANCH  22  23
ENDBRANCH  20  22
ENDBRANCH  17  18
ENDBRANCH  16  17
ENDBRANCH  14  16
ENDBRANCH   9  12
ENDBRANCH   6   9
ENDBRANCH   5   6
ENDBRANCH   4   5
ENDBRANCH   2   4
BRANCH   2  35
HETATM   35  O   UNK N   1       9.249  -3.753   1.374  0.00  0.00    -0.307 OA
HETATM   36  H   UNK N   1       9.254  -4.640   1.768  0.00  0.00     0.222 HD
ENDBRANCH   2  35
ENDBRANCH   1   2
BRANCH   1  37
HETATM   37  P   UNK N   1       5.973  -3.329  -1.381  0.00  0.00     0.401 P 
HETATM   38  O   UNK N   1       6.860  -3.486  -2.645  0.00  0.00    -0.631 OA
BRANCH  37  39
HETATM   39  O   UNK N   1       4.487  -4.147  -1.757  0.00  0.00    -0.307 OA
HETATM   40  H   UNK N   1       3.677  -3.657  -1.968  0.00  0.00     0.222 HD
ENDBRANCH  37  39
BRANCH  37  41
HETATM   41  O   UNK N   1       5.733  -1.612  -1.154  0.00  0.00    -0.294 OA
BRANCH  41  42
HETATM   42  C   UNK N   1       4.469  -1.474  -0.581  0.00  0.00     0.215 C 
BRANCH  42  43
HETATM   43  C   UNK N   1       4.545  -0.686   0.730  0.00  0.00     0.180 C 
HETATM   44  O   UNK N   1       3.356  -0.947   1.448  0.00  0.00    -0.353 OA
HETATM   45  C   UNK N   1       2.523   0.188   1.286  0.00  0.00     0.262 C 
HETATM   46  C   UNK N   1       3.175   1.119   0.293  0.00  0.00     0.199 C 
HETATM   47  C   UNK N   1       4.610   0.831   0.552  0.00  0.00     0.197 C 
BRANCH  45  48
HETATM   48  N   UNK N   1       1.193  -0.179   0.800  0.00  0.00    -0.297 N 
HETATM   49  C   UNK N   1       0.750  -1.410   0.435  0.00  0.00     0.188 A 
HETATM   50  N   UNK N   1      -0.545  -1.364   0.008  0.00  0.00    -0.346 N 
HETATM   51  C   UNK N   1      -0.888  -0.068   0.124  0.00  0.00     0.122 A 
ATOM     52  HN  UNK N   1      -1.123  -2.137  -0.323  1.00  0.00     0.167 HD
HETATM   53  C   UNK N   1      -2.083   0.570  -0.170  0.00  0.00     0.131 A 
HETATM   54  C   UNK N   1       0.152   0.640   0.601  0.00  0.00     0.142 A 
HETATM   55  N   UNK N   1      -2.161   1.918   0.044  0.00  0.00    -0.337 N 
HETATM   56  C   UNK N   1      -1.085   2.618   0.536  0.00  0.00     0.183 A 
ATOM     57  HN  UNK N   1      -3.029   2.411  -0.164  1.00  0.00     0.168 HD
HETATM   58  N   UNK N   1       0.089   1.975   0.819  0.00  0.00    -0.336 N 
ATOM     59  HN  UNK N   1       0.893   2.486   1.184  1.00  0.00     0.168 HD
BRANCH  53  60
HETATM   60  N   UNK N   1      -3.189  -0.141  -0.677  0.00  0.00    -0.383 N 
HETATM   61  H   UNK N   1      -4.006   0.279  -1.031  0.00  0.00     0.157 HD
HETATM   62  H   UNK N   1      -3.141  -1.124  -0.677  0.00  0.00     0.157 HD
ENDBRANCH  53  60
ENDBRANCH  45  48
BRANCH  46  63
HETATM   63  O   UNK N   1       2.853   2.442   0.585  0.00  0.00    -0.388 OA
HETATM   64  H   UNK N   1       3.539   3.097   0.788  0.00  0.00     0.210 HD
ENDBRANCH  46  63
BRANCH  47  65
HETATM   65  O   UNK N   1       5.444   1.253  -0.499  0.00  0.00    -0.286 OA
BRANCH  65  66
HETATM   66  P   UNK N   1       5.822   2.938  -0.192  0.00  0.00     0.391 P 
HETATM   67  O   UNK N   1       7.086   3.297  -1.015  0.00  0.00    -0.632 OA
BRANCH  66  68
HETATM   68  O   UNK N   1       4.584   4.007  -0.771  0.00  0.00    -0.307 OA
HETATM   69  H   UNK N   1       4.755   4.905  -1.094  0.00  0.00     0.222 HD
ENDBRANCH  66  68
BRANCH  66  70
HETATM   70  O   UNK N   1       6.214   3.243   1.473  0.00  0.00    -0.307 OA
HETATM   71  H   UNK N   1       6.471   3.138   2.402  0.00  0.00     0.222 HD
ENDBRANCH  66  70
ENDBRANCH  65  66
ENDBRANCH  47  65
ENDBRANCH  42  43
ENDBRANCH  41  42
ENDBRANCH  37  41
ENDBRANCH   1  37
TORSDOF 29
