MODEL 1
REMARK VINA RESULT:      -4.8      0.000      0.000
REMARK  0 active torsions:
REMARK  status: ('A' for Active; 'I' for Inactive)
ROOT
HETATM    1  C   UNK N   1      36.060  15.172  10.974  0.00  0.00     0.182 A 
HETATM    2  C   UNK N   1      36.032  14.367  12.947  0.00  0.00     0.117 A 
HETATM    3  C   UNK N   1      36.184  14.052  14.291  0.00  0.00     0.136 A 
HETATM    4  C   UNK N   1      35.249  13.607  12.160  0.00  0.00     0.138 A 
HETATM    5  C   UNK N   1      34.724  12.199  13.940  0.00  0.00     0.156 A 
HETATM    6 Br   UNK N   1      33.812  10.685  14.637  0.00  0.00    -0.010 Br
HETATM    7 Cl   UNK N   1      37.190  15.006  15.365  0.00  0.00    -0.062 Cl
HETATM    8  N   UNK N   1      36.560  15.366  12.228  0.00  0.00    -0.347 N 
ATOM      9  HN  UNK N   1      37.190  16.102  12.545  1.00  0.00     0.167 HD
HETATM   10  N   UNK N   1      35.245  14.086  10.909  0.00  0.00    -0.337 N 
ATOM     11  HN  UNK N   1      34.746  13.721  10.098  1.00  0.00     0.168 HD
HETATM   12  N   UNK N   1      35.517  12.959  14.766  0.00  0.00    -0.325 N 
ATOM     13  HN  UNK N   1      35.609  12.703  15.748  1.00  0.00     0.169 HD
HETATM   14  N   UNK N   1      34.586  12.524  12.619  0.00  0.00    -0.321 N 
HETATM   15  H   UNK N   1      34.020  11.985  12.020  0.00  0.00     0.169 HD
ENDROOT
TORSDOF 0
ENDMDL
MODEL 2
REMARK VINA RESULT:      -4.7     13.792     14.546
REMARK  0 active torsions:
REMARK  status: ('A' for Active; 'I' for Inactive)
ROOT
HETATM    1  C   UNK N   1      24.064  11.843  11.209  0.00  0.00     0.182 A 
HETATM    2  C   UNK N   1      22.021  12.413  10.998  0.00  0.00     0.117 A 
HETATM    3  C   UNK N   1      20.644  12.584  11.043  0.00  0.00     0.136 A 
HETATM    4  C   UNK N   1      22.772  13.195  10.200  0.00  0.00     0.138 A 
HETATM    5  C   UNK N   1      20.888  14.345   9.454  0.00  0.00     0.156 A 
HETATM    6 Br   UNK N   1      20.094  15.694   8.377  0.00  0.00    -0.010 Br
HETATM    7 Cl   UNK N   1      19.614  11.596  12.062  0.00  0.00    -0.062 Cl
HETATM    8  N   UNK N   1      22.808  11.547  11.649  0.00  0.00    -0.347 N 
ATOM      9  HN  UNK N   1      22.531  10.831  12.321  1.00  0.00     0.167 HD
HETATM   10  N   UNK N   1      24.065  12.863  10.310  0.00  0.00    -0.337 N 
ATOM     11  HN  UNK N   1      24.863  13.277   9.830  1.00  0.00     0.168 HD
HETATM   12  N   UNK N   1      20.099  13.560  10.259  0.00  0.00    -0.325 N 
ATOM     13  HN  UNK N   1      19.091  13.709  10.271  1.00  0.00     0.169 HD
HETATM   14  N   UNK N   1      22.244  14.163   9.421  0.00  0.00    -0.321 N 
HETATM   15  H   UNK N   1      22.818  14.721   8.847  0.00  0.00     0.169 HD
ENDROOT
TORSDOF 0
ENDMDL
MODEL 3
REMARK VINA RESULT:      -4.7     18.197     19.045
REMARK  0 active torsions:
REMARK  status: ('A' for Active; 'I' for Inactive)
ROOT
HETATM    1  C   UNK N   1      20.670  21.123   1.246  0.00  0.00     0.182 A 
HETATM    2  C   UNK N   1      20.575  19.109   1.938  0.00  0.00     0.117 A 
HETATM    3  C   UNK N   1      20.452  17.739   2.126  0.00  0.00     0.136 A 
HETATM    4  C   UNK N   1      20.883  19.908   2.977  0.00  0.00     0.138 A 
HETATM    5  C   UNK N   1      20.967  18.088   4.428  0.00  0.00     0.156 A 
HETATM    6 Br   UNK N   1      21.240  17.371   6.167  0.00  0.00    -0.010 Br
HETATM    7 Cl   UNK N   1      20.052  16.649   0.812  0.00  0.00    -0.062 Cl
HETATM    8  N   UNK N   1      20.433  19.847   0.829  0.00  0.00    -0.347 N 
ATOM      9  HN  UNK N   1      20.202  19.527  -0.111  1.00  0.00     0.167 HD
HETATM   10  N   UNK N   1      20.951  21.184   2.576  0.00  0.00    -0.337 N 
ATOM     11  HN  UNK N   1      21.164  22.009   3.137  1.00  0.00     0.168 HD
HETATM   12  N   UNK N   1      20.653  17.251   3.385  0.00  0.00    -0.325 N 
ATOM     13  HN  UNK N   1      20.570  16.249   3.555  1.00  0.00     0.169 HD
HETATM   14  N   UNK N   1      21.084  19.436   4.225  0.00  0.00    -0.321 N 
HETATM   15  H   UNK N   1      21.309  20.044   4.967  0.00  0.00     0.169 HD
ENDROOT
TORSDOF 0
ENDMDL
MODEL 4
REMARK VINA RESULT:      -4.6      2.656      3.789
REMARK  0 active torsions:
REMARK  status: ('A' for Active; 'I' for Inactive)
ROOT
HETATM    1  C   UNK N   1      36.893  14.313  15.724  0.00  0.00     0.182 A 
HETATM    2  C   UNK N   1      35.707  13.349  14.239  0.00  0.00     0.117 A 
HETATM    3  C   UNK N   1      34.865  12.549  13.477  0.00  0.00     0.136 A 
HETATM    4  C   UNK N   1      36.336  14.396  13.675  0.00  0.00     0.138 A 
HETATM    5  C   UNK N   1      35.363  13.943  11.607  0.00  0.00     0.156 A 
HETATM    6 Br   UNK N   1      35.122  14.356   9.768  0.00  0.00    -0.010 Br
HETATM    7 Cl   UNK N   1      34.018  11.172  14.156  0.00  0.00    -0.062 Cl
HETATM    8  N   UNK N   1      36.037  13.268  15.534  0.00  0.00    -0.347 N 
ATOM      9  HN  UNK N   1      35.722  12.583  16.221  1.00  0.00     0.167 HD
HETATM   10  N   UNK N   1      37.092  15.026  14.583  0.00  0.00    -0.337 N 
ATOM     11  HN  UNK N   1      37.680  15.848  14.450  1.00  0.00     0.168 HD
HETATM   12  N   UNK N   1      34.709  12.868  12.158  0.00  0.00    -0.325 N 
ATOM     13  HN  UNK N   1      34.098  12.300  11.573  1.00  0.00     0.169 HD
HETATM   14  N   UNK N   1      36.189  14.720  12.373  0.00  0.00    -0.321 N 
HETATM   15  H   UNK N   1      36.662  15.493  11.986  0.00  0.00     0.169 HD
ENDROOT
TORSDOF 0
ENDMDL
MODEL 5
REMARK VINA RESULT:      -4.6      7.976      8.756
REMARK  0 active torsions:
REMARK  status: ('A' for Active; 'I' for Inactive)
ROOT
HETATM    1  C   UNK N   1      30.270  17.363   8.892  0.00  0.00     0.182 A 
HETATM    2  C   UNK N   1      32.046  17.577   7.734  0.00  0.00     0.117 A 
HETATM    3  C   UNK N   1      33.317  17.795   7.218  0.00  0.00     0.136 A 
HETATM    4  C   UNK N   1      31.055  17.152   6.929  0.00  0.00     0.138 A 
HETATM    5  C   UNK N   1      32.480  17.131   5.086  0.00  0.00     0.156 A 
HETATM    6 Br   UNK N   1      32.786  16.821   3.236  0.00  0.00    -0.010 Br
HETATM    7 Cl   UNK N   1      34.647  18.348   8.217  0.00  0.00    -0.062 Cl
HETATM    8  N   UNK N   1      31.583  17.720   8.982  0.00  0.00    -0.347 N 
ATOM      9  HN  UNK N   1      32.094  18.026   9.809  1.00  0.00     0.167 HD
HETATM   10  N   UNK N   1      29.921  17.007   7.627  0.00  0.00    -0.337 N 
ATOM     11  HN  UNK N   1      29.009  16.701   7.288  1.00  0.00     0.168 HD
HETATM   12  N   UNK N   1      33.509  17.564   5.886  0.00  0.00    -0.325 N 
ATOM     13  HN  UNK N   1      34.431  17.716   5.478  1.00  0.00     0.169 HD
HETATM   14  N   UNK N   1      31.234  16.921   5.611  0.00  0.00    -0.321 N 
HETATM   15  H   UNK N   1      30.490  16.610   5.045  0.00  0.00     0.169 HD
ENDROOT
TORSDOF 0
ENDMDL
MODEL 6
REMARK VINA RESULT:      -4.5     10.029     11.122
REMARK  0 active torsions:
REMARK  status: ('A' for Active; 'I' for Inactive)
ROOT
HETATM    1  C   UNK N   1      28.714  17.797   9.563  0.00  0.00     0.182 A 
HETATM    2  C   UNK N   1      29.083  17.757   7.464  0.00  0.00     0.117 A 
HETATM    3  C   UNK N   1      29.522  17.552   6.163  0.00  0.00     0.136 A 
HETATM    4  C   UNK N   1      28.061  18.599   7.707  0.00  0.00     0.138 A 
HETATM    5  C   UNK N   1      27.843  19.084   5.438  0.00  0.00     0.156 A 
HETATM    6 Br   UNK N   1      26.980  20.009   4.021  0.00  0.00    -0.010 Br
HETATM    7 Cl   UNK N   1      30.847  16.468   5.785  0.00  0.00    -0.062 Cl
HETATM    8  N   UNK N   1      29.518  17.233   8.617  0.00  0.00    -0.347 N 
ATOM      9  HN  UNK N   1      30.277  16.566   8.756  1.00  0.00     0.167 HD
HETATM   10  N   UNK N   1      27.803  18.648   9.020  0.00  0.00    -0.337 N 
ATOM     11  HN  UNK N   1      27.089  19.195   9.500  1.00  0.00     0.168 HD
HETATM   12  N   UNK N   1      28.884  18.230   5.164  0.00  0.00    -0.325 N 
ATOM     13  HN  UNK N   1      29.184  18.100   4.198  1.00  0.00     0.169 HD
HETATM   14  N   UNK N   1      27.423  19.274   6.727  0.00  0.00    -0.321 N 
HETATM   15  H   UNK N   1      26.678  19.884   6.933  0.00  0.00     0.169 HD
ENDROOT
TORSDOF 0
ENDMDL
MODEL 7
REMARK VINA RESULT:      -4.5     14.908     15.902
REMARK  0 active torsions:
REMARK  status: ('A' for Active; 'I' for Inactive)
ROOT
HETATM    1  C   UNK N   1      44.716  21.930   4.013  0.00  0.00     0.182 A 
HETATM    2  C   UNK N   1      42.784  21.858   3.116  0.00  0.00     0.117 A 
HETATM    3  C   UNK N   1      41.504  21.570   2.662  0.00  0.00     0.136 A 
HETATM    4  C   UNK N   1      43.391  23.000   2.742  0.00  0.00     0.138 A 
HETATM    5  C   UNK N   1      41.545  23.636   1.472  0.00  0.00     0.156 A 
HETATM    6 Br   UNK N   1      40.676  24.876   0.323  0.00  0.00    -0.010 Br
HETATM    7 Cl   UNK N   1      40.663  20.099   3.114  0.00  0.00    -0.062 Cl
HETATM    8  N   UNK N   1      43.595  21.159   3.919  0.00  0.00    -0.347 N 
ATOM      9  HN  UNK N   1      43.416  20.257   4.361  1.00  0.00     0.167 HD
HETATM   10  N   UNK N   1      44.611  23.077   3.290  0.00  0.00    -0.337 N 
ATOM     11  HN  UNK N   1      45.299  23.822   3.189  1.00  0.00     0.168 HD
HETATM   12  N   UNK N   1      40.903  22.478   1.838  0.00  0.00    -0.325 N 
ATOM     13  HN  UNK N   1      39.963  22.294   1.489  1.00  0.00     0.169 HD
HETATM   14  N   UNK N   1      42.806  23.904   1.928  0.00  0.00    -0.321 N 
HETATM   15  H   UNK N   1      43.274  24.732   1.671  0.00  0.00     0.169 HD
ENDROOT
TORSDOF 0
ENDMDL
MODEL 8
REMARK VINA RESULT:      -4.4      2.570      3.093
REMARK  0 active torsions:
REMARK  status: ('A' for Active; 'I' for Inactive)
ROOT
HETATM    1  C   UNK N   1      36.553  13.440  11.498  0.00  0.00     0.182 A 
HETATM    2  C   UNK N   1      35.421  12.485  13.030  0.00  0.00     0.117 A 
HETATM    3  C   UNK N   1      34.597  11.698  13.824  0.00  0.00     0.136 A 
HETATM    4  C   UNK N   1      36.115  13.500  13.576  0.00  0.00     0.138 A 
HETATM    5  C   UNK N   1      35.246  13.038  15.687  0.00  0.00     0.156 A 
HETATM    6 Br   UNK N   1      35.121  13.422  17.544  0.00  0.00    -0.010 Br
HETATM    7 Cl   UNK N   1      33.669  10.362  13.170  0.00  0.00    -0.062 Cl
HETATM    8  N   UNK N   1      35.675  12.419  11.717  0.00  0.00    -0.347 N 
ATOM      9  HN  UNK N   1      35.300  11.758  11.037  1.00  0.00     0.167 HD
HETATM   10  N   UNK N   1      36.839  14.123  12.638  0.00  0.00    -0.337 N 
ATOM     11  HN  UNK N   1      37.460  14.924  12.752  1.00  0.00     0.168 HD
HETATM   12  N   UNK N   1      34.526  11.996  15.155  0.00  0.00    -0.325 N 
ATOM     13  HN  UNK N   1      33.930  11.436  15.764  1.00  0.00     0.169 HD
HETATM   14  N   UNK N   1      36.052  13.803  14.890  0.00  0.00    -0.321 N 
HETATM   15  H   UNK N   1      36.571  14.553  15.263  0.00  0.00     0.169 HD
ENDROOT
TORSDOF 0
ENDMDL
MODEL 9
REMARK VINA RESULT:      -4.4      2.245      3.520
REMARK  0 active torsions:
REMARK  status: ('A' for Active; 'I' for Inactive)
ROOT
HETATM    1  C   UNK N   1      34.174  11.513  14.862  0.00  0.00     0.182 A 
HETATM    2  C   UNK N   1      35.516  13.078  14.319  0.00  0.00     0.117 A 
HETATM    3  C   UNK N   1      36.431  14.120  14.237  0.00  0.00     0.136 A 
HETATM    4  C   UNK N   1      34.973  12.567  13.198  0.00  0.00     0.138 A 
HETATM    5  C   UNK N   1      36.178  14.050  11.866  0.00  0.00     0.156 A 
HETATM    6 Br   UNK N   1      36.643  14.731  10.155  0.00  0.00    -0.010 Br
HETATM    7 Cl   UNK N   1      37.170  14.826  15.661  0.00  0.00    -0.062 Cl
HETATM    8  N   UNK N   1      35.032  12.434  15.388  0.00  0.00    -0.347 N 
ATOM      9  HN  UNK N   1      35.253  12.595  16.370  1.00  0.00     0.167 HD
HETATM   10  N   UNK N   1      34.123  11.579  13.505  0.00  0.00    -0.337 N 
ATOM     11  HN  UNK N   1      33.567  11.008  12.868  1.00  0.00     0.168 HD
HETATM   12  N   UNK N   1      36.747  14.590  12.994  0.00  0.00    -0.325 N 
ATOM     13  HN  UNK N   1      37.415  15.354  12.902  1.00  0.00     0.169 HD
HETATM   14  N   UNK N   1      35.278  13.024  11.966  0.00  0.00    -0.321 N 
HETATM   15  H   UNK N   1      34.866  12.631  11.162  0.00  0.00     0.169 HD
ENDROOT
TORSDOF 0
ENDMDL
