MODEL 1
REMARK VINA RESULT:      -7.2      0.000      0.000
REMARK  10 active torsions:
REMARK  status: ('A' for Active; 'I' for Inactive)
REMARK    1  A    between atoms: C_9  and  C_5 
REMARK    2  A    between atoms: C_12  and  C_5 
REMARK    3  A    between atoms: C_13  and  C_7 
REMARK    4  A    between atoms: N_23  and  C_7 
REMARK    5  A    between atoms: C_15  and  C_8 
REMARK    6  A    between atoms: C_8  and  O_24 
REMARK    7  A    between atoms: O_26  and  C_13 
REMARK    8  A    between atoms: C_16  and  C_15 
REMARK    9  A    between atoms: C_15  and  N_19 
REMARK   10  A    between atoms: O_27  and  C_17 
ROOT
HETATM    1  C   UNK N   1      24.539  19.263   3.683  0.00  0.00     0.066 A 
HETATM    2  C   UNK N   1      22.449  18.826   3.927  0.00  0.00     0.111 A 
HETATM    3  C   UNK N   1      23.809  20.207   3.009  0.00  0.00     0.167 A 
HETATM    4  N   UNK N   1      23.688  18.383   4.258  0.00  0.00    -0.344 N 
ATOM      5  HN  UNK N   1      23.926  17.564   4.819  1.00  0.00     0.167 HD
HETATM    6  N   UNK N   1      22.504  19.935   3.152  0.00  0.00    -0.304 N 
ENDROOT
BRANCH   1   7
HETATM    7  C   UNK N   1      26.033  19.270   3.822  0.00  0.00     0.102 C 
BRANCH   7   8
HETATM    8  C   UNK N   1      26.565  19.515   5.201  0.00  0.00    -0.021 A 
HETATM    9  C   UNK N   1      26.256  20.559   6.069  0.00  0.00     0.097 A 
HETATM   10  N   UNK N   1      26.983  20.432   7.209  0.00  0.00    -0.365 N 
HETATM   11  C   UNK N   1      27.744  19.334   7.047  0.00  0.00     0.045 A 
HETATM   12  H   UNK N   1      26.957  21.024   7.995  0.00  0.00     0.165 HD
HETATM   13  C   UNK N   1      28.671  18.817   7.949  0.00  0.00     0.030 A 
HETATM   14  C   UNK N   1      27.518  18.753   5.832  0.00  0.00     0.037 A 
HETATM   15  C   UNK N   1      29.382  17.663   7.570  0.00  0.00     0.005 A 
HETATM   16  C   UNK N   1      29.154  17.062   6.312  0.00  0.00     0.043 A 
HETATM   17  C   UNK N   1      28.209  17.611   5.427  0.00  0.00     0.129 A 
HETATM   18  F   UNK N   1      27.991  17.047   4.214  0.00  0.00    -0.205 F 
ENDBRANCH   7   8
ENDBRANCH   1   7
BRANCH   3  19
HETATM   19  O   UNK N   1      24.304  21.257   2.329  0.00  0.00    -0.344 OA
HETATM   20  H   UNK N   1      24.021  22.139   2.470  0.00  0.00     0.219 HD
ENDBRANCH   3  19
BRANCH   6  21
HETATM   21  C   UNK N   1      21.382  20.697   2.614  0.00  0.00     0.242 C 
BRANCH  21  22
HETATM   22  C   UNK N   1      20.998  20.202   1.253  0.00  0.00     0.158 C 
HETATM   23  O   UNK N   1      21.340  20.826   0.263  0.00  0.00    -0.649 OA
BRANCH  22  24
HETATM   24  O   UNK N   1      20.288  19.066   1.114  0.00  0.00    -0.775 OA
HETATM   25  H   UNK N   1      19.353  19.094   1.091  0.00  0.00     0.167 HD
ENDBRANCH  22  24
ENDBRANCH  21  22
ENDBRANCH   6  21
BRANCH   2  26
HETATM   26  C   UNK N   1      21.157  18.193   4.399  0.00  0.00     0.171 C 
BRANCH  26  27
HETATM   27  C   UNK N   1      21.179  17.738   5.870  0.00  0.00     0.143 C 
HETATM   28  C   UNK N   1      21.550  16.269   6.009  0.00  0.00     0.042 C 
BRANCH  27  29
HETATM   29  O   UNK N   1      22.118  18.492   6.579  0.00  0.00    -0.393 OA
HETATM   30  H   UNK N   1      22.234  18.378   7.535  0.00  0.00     0.210 HD
ENDBRANCH  27  29
ENDBRANCH  26  27
BRANCH  26  31
HETATM   31  N   UNK N   1      20.854  17.044   3.558  0.00  0.00    -0.418 N 
HETATM   32  H   UNK N   1      20.073  16.444   3.293  0.00  0.00     0.150 HD
HETATM   33  H   UNK N   1      21.699  16.740   3.077  0.00  0.00     0.150 HD
ENDBRANCH  26  31
ENDBRANCH   2  26
TORSDOF 10
ENDMDL
MODEL 2
REMARK VINA RESULT:      -7.0      6.271      9.966
REMARK  10 active torsions:
REMARK  status: ('A' for Active; 'I' for Inactive)
REMARK    1  A    between atoms: C_9  and  C_5 
REMARK    2  A    between atoms: C_12  and  C_5 
REMARK    3  A    between atoms: C_13  and  C_7 
REMARK    4  A    between atoms: N_23  and  C_7 
REMARK    5  A    between atoms: C_15  and  C_8 
REMARK    6  A    between atoms: C_8  and  O_24 
REMARK    7  A    between atoms: O_26  and  C_13 
REMARK    8  A    between atoms: C_16  and  C_15 
REMARK    9  A    between atoms: C_15  and  N_19 
REMARK   10  A    between atoms: O_27  and  C_17 
ROOT
HETATM    1  C   UNK N   1      30.720  16.368   7.451  0.00  0.00     0.066 A 
HETATM    2  C   UNK N   1      32.726  15.629   7.229  0.00  0.00     0.111 A 
HETATM    3  C   UNK N   1      31.550  17.090   8.270  0.00  0.00     0.167 A 
HETATM    4  N   UNK N   1      31.454  15.439   6.797  0.00  0.00    -0.344 N 
ATOM      5  HN  UNK N   1      31.123  14.745   6.125  1.00  0.00     0.167 HD
HETATM    6  N   UNK N   1      32.802  16.627   8.140  0.00  0.00    -0.304 N 
ENDROOT
BRANCH   1   7
HETATM    7  C   UNK N   1      29.257  16.636   7.260  0.00  0.00     0.102 C 
BRANCH   7   8
HETATM    8  C   UNK N   1      28.883  17.403   6.028  0.00  0.00    -0.021 A 
HETATM    9  C   UNK N   1      29.140  17.073   4.700  0.00  0.00     0.097 A 
HETATM   10  N   UNK N   1      28.664  18.053   3.888  0.00  0.00    -0.365 N 
HETATM   11  C   UNK N   1      28.132  18.985   4.701  0.00  0.00     0.045 A 
HETATM   12  H   UNK N   1      28.700  18.076   2.906  0.00  0.00     0.165 HD
HETATM   13  C   UNK N   1      27.539  20.187   4.321  0.00  0.00     0.030 A 
HETATM   14  C   UNK N   1      28.252  18.622   6.011  0.00  0.00     0.037 A 
HETATM   15  C   UNK N   1      27.063  21.035   5.339  0.00  0.00     0.005 A 
HETATM   16  C   UNK N   1      27.190  20.665   6.697  0.00  0.00     0.043 A 
HETATM   17  C   UNK N   1      27.792  19.441   7.044  0.00  0.00     0.129 A 
HETATM   18  F   UNK N   1      27.927  19.083   8.343  0.00  0.00    -0.205 F 
ENDBRANCH   7   8
ENDBRANCH   1   7
BRANCH   3  19
HETATM   19  O   UNK N   1      31.189  18.114   9.063  0.00  0.00    -0.344 OA
HETATM   20  H   UNK N   1      30.347  18.175   9.471  0.00  0.00     0.219 HD
ENDBRANCH   3  19
BRANCH   6  21
HETATM   21  C   UNK N   1      33.997  17.124   8.814  0.00  0.00     0.242 C 
BRANCH  21  22
HETATM   22  C   UNK N   1      34.616  18.255   8.049  0.00  0.00     0.158 C 
HETATM   23  O   UNK N   1      34.477  18.313   6.838  0.00  0.00    -0.649 OA
BRANCH  22  24
HETATM   24  O   UNK N   1      35.312  19.213   8.687  0.00  0.00    -0.775 OA
HETATM   25  H   UNK N   1      35.063  19.482   9.549  0.00  0.00     0.167 HD
ENDBRANCH  22  24
ENDBRANCH  21  22
ENDBRANCH   6  21
BRANCH   2  26
HETATM   26  C   UNK N   1      33.927  14.856   6.726  0.00  0.00     0.171 C 
BRANCH  26  27
HETATM   27  C   UNK N   1      34.417  15.290   5.331  0.00  0.00     0.143 C 
HETATM   28  C   UNK N   1      34.300  14.168   4.310  0.00  0.00     0.042 C 
BRANCH  27  29
HETATM   29  O   UNK N   1      33.650  16.368   4.881  0.00  0.00    -0.393 OA
HETATM   30  H   UNK N   1      33.813  17.268   5.203  0.00  0.00     0.210 HD
ENDBRANCH  27  29
ENDBRANCH  26  27
BRANCH  26  31
HETATM   31  N   UNK N   1      33.601  13.439   6.687  0.00  0.00    -0.418 N 
HETATM   32  H   UNK N   1      32.984  12.757   7.131  0.00  0.00     0.150 HD
HETATM   33  H   UNK N   1      34.177  12.974   5.987  0.00  0.00     0.150 HD
ENDBRANCH  26  31
ENDBRANCH   2  26
TORSDOF 10
ENDMDL
MODEL 3
REMARK VINA RESULT:      -6.9      5.612      9.601
REMARK  10 active torsions:
REMARK  status: ('A' for Active; 'I' for Inactive)
REMARK    1  A    between atoms: C_9  and  C_5 
REMARK    2  A    between atoms: C_12  and  C_5 
REMARK    3  A    between atoms: C_13  and  C_7 
REMARK    4  A    between atoms: N_23  and  C_7 
REMARK    5  A    between atoms: C_15  and  C_8 
REMARK    6  A    between atoms: C_8  and  O_24 
REMARK    7  A    between atoms: O_26  and  C_13 
REMARK    8  A    between atoms: C_16  and  C_15 
REMARK    9  A    between atoms: C_15  and  N_19 
REMARK   10  A    between atoms: O_27  and  C_17 
ROOT
HETATM    1  C   UNK N   1      30.544  17.062   7.084  0.00  0.00     0.066 A 
HETATM    2  C   UNK N   1      32.500  17.123   6.195  0.00  0.00     0.111 A 
HETATM    3  C   UNK N   1      31.430  17.572   7.999  0.00  0.00     0.167 A 
HETATM    4  N   UNK N   1      31.213  16.769   5.946  0.00  0.00    -0.344 N 
ATOM      5  HN  UNK N   1      30.834  16.368   5.087  1.00  0.00     0.167 HD
HETATM    6  N   UNK N   1      32.653  17.605   7.450  0.00  0.00    -0.304 N 
ENDROOT
BRANCH   1   7
HETATM    7  C   UNK N   1      29.065  16.938   7.299  0.00  0.00     0.102 C 
BRANCH   7   8
HETATM    8  C   UNK N   1      28.289  18.220   7.291  0.00  0.00    -0.021 A 
HETATM    9  C   UNK N   1      27.841  18.960   8.382  0.00  0.00     0.097 A 
HETATM   10  N   UNK N   1      27.145  20.041   7.944  0.00  0.00    -0.365 N 
HETATM   11  C   UNK N   1      27.146  19.966   6.600  0.00  0.00     0.045 A 
HETATM   12  H   UNK N   1      26.725  20.738   8.497  0.00  0.00     0.165 HD
HETATM   13  C   UNK N   1      26.536  20.848   5.711  0.00  0.00     0.030 A 
HETATM   14  C   UNK N   1      27.831  18.866   6.169  0.00  0.00     0.037 A 
HETATM   15  C   UNK N   1      26.641  20.571   4.335  0.00  0.00     0.005 A 
HETATM   16  C   UNK N   1      27.345  19.431   3.886  0.00  0.00     0.043 A 
HETATM   17  C   UNK N   1      27.951  18.563   4.812  0.00  0.00     0.129 A 
HETATM   18  F   UNK N   1      28.619  17.462   4.391  0.00  0.00    -0.205 F 
ENDBRANCH   7   8
ENDBRANCH   1   7
BRANCH   3  19
HETATM   19  O   UNK N   1      31.133  17.997   9.239  0.00  0.00    -0.344 OA
HETATM   20  H   UNK N   1      31.124  17.433   9.987  0.00  0.00     0.219 HD
ENDBRANCH   3  19
BRANCH   6  21
HETATM   21  C   UNK N   1      33.881  18.094   8.069  0.00  0.00     0.242 C 
BRANCH  21  22
HETATM   22  C   UNK N   1      34.511  17.036   8.924  0.00  0.00     0.158 C 
HETATM   23  O   UNK N   1      34.884  15.991   8.417  0.00  0.00    -0.649 OA
BRANCH  22  24
HETATM   24  O   UNK N   1      34.678  17.234  10.245  0.00  0.00    -0.775 OA
HETATM   25  H   UNK N   1      34.163  17.873  10.695  0.00  0.00     0.167 HD
ENDBRANCH  22  24
ENDBRANCH  21  22
ENDBRANCH   6  21
BRANCH   2  26
HETATM   26  C   UNK N   1      33.624  17.037   5.184  0.00  0.00     0.171 C 
BRANCH  26  27
HETATM   27  C   UNK N   1      33.169  17.195   3.720  0.00  0.00     0.143 C 
HETATM   28  C   UNK N   1      32.872  15.854   3.066  0.00  0.00     0.042 C 
BRANCH  27  29
HETATM   29  O   UNK N   1      32.006  17.968   3.674  0.00  0.00    -0.393 OA
HETATM   30  H   UNK N   1      31.185  17.665   4.091  0.00  0.00     0.210 HD
ENDBRANCH  27  29
ENDBRANCH  26  27
BRANCH  26  31
HETATM   31  N   UNK N   1      34.299  15.756   5.328  0.00  0.00    -0.418 N 
HETATM   32  H   UNK N   1      35.099  15.239   4.963  0.00  0.00     0.150 HD
HETATM   33  H   UNK N   1      33.811  15.188   6.020  0.00  0.00     0.150 HD
ENDBRANCH  26  31
ENDBRANCH   2  26
TORSDOF 10
ENDMDL
MODEL 4
REMARK VINA RESULT:      -6.9      1.841      2.314
REMARK  10 active torsions:
REMARK  status: ('A' for Active; 'I' for Inactive)
REMARK    1  A    between atoms: C_9  and  C_5 
REMARK    2  A    between atoms: C_12  and  C_5 
REMARK    3  A    between atoms: C_13  and  C_7 
REMARK    4  A    between atoms: N_23  and  C_7 
REMARK    5  A    between atoms: C_15  and  C_8 
REMARK    6  A    between atoms: C_8  and  O_24 
REMARK    7  A    between atoms: O_26  and  C_13 
REMARK    8  A    between atoms: C_16  and  C_15 
REMARK    9  A    between atoms: C_15  and  N_19 
REMARK   10  A    between atoms: O_27  and  C_17 
ROOT
HETATM    1  C   UNK N   1      24.906  19.207   4.722  0.00  0.00     0.066 A 
HETATM    2  C   UNK N   1      23.095  18.050   4.706  0.00  0.00     0.111 A 
HETATM    3  C   UNK N   1      24.078  19.696   3.745  0.00  0.00     0.167 A 
HETATM    4  N   UNK N   1      24.296  18.163   5.327  0.00  0.00    -0.344 N 
ATOM      5  HN  UNK N   1      24.660  17.585   6.086  1.00  0.00     0.167 HD
HETATM    6  N   UNK N   1      22.949  18.972   3.726  0.00  0.00    -0.304 N 
ENDROOT
BRANCH   1   7
HETATM    7  C   UNK N   1      26.231  19.800   5.101  0.00  0.00     0.102 C 
BRANCH   7   8
HETATM    8  C   UNK N   1      27.395  18.857   5.112  0.00  0.00    -0.021 A 
HETATM    9  C   UNK N   1      27.858  18.050   4.076  0.00  0.00     0.097 A 
HETATM   10  N   UNK N   1      28.918  17.319   4.509  0.00  0.00    -0.365 N 
HETATM   11  C   UNK N   1      29.102  17.654   5.799  0.00  0.00     0.045 A 
HETATM   12  H   UNK N   1      29.445  16.674   3.984  0.00  0.00     0.165 HD
HETATM   13  C   UNK N   1      30.064  17.145   6.668  0.00  0.00     0.030 A 
HETATM   14  C   UNK N   1      28.189  18.586   6.200  0.00  0.00     0.037 A 
HETATM   15  C   UNK N   1      30.069  17.619   7.994  0.00  0.00     0.005 A 
HETATM   16  C   UNK N   1      29.121  18.580   8.414  0.00  0.00     0.043 A 
HETATM   17  C   UNK N   1      28.166  19.075   7.507  0.00  0.00     0.129 A 
HETATM   18  F   UNK N   1      27.247  19.989   7.904  0.00  0.00    -0.205 F 
ENDBRANCH   7   8
ENDBRANCH   1   7
BRANCH   3  19
HETATM   19  O   UNK N   1      24.330  20.745   2.943  0.00  0.00    -0.344 OA
HETATM   20  H   UNK N   1      25.184  20.949   2.616  0.00  0.00     0.219 HD
ENDBRANCH   3  19
BRANCH   6  21
HETATM   21  C   UNK N   1      21.794  19.166   2.856  0.00  0.00     0.242 C 
BRANCH  21  22
HETATM   22  C   UNK N   1      21.096  20.455   3.167  0.00  0.00     0.158 C 
HETATM   23  O   UNK N   1      20.209  20.475   4.004  0.00  0.00    -0.649 OA
BRANCH  22  24
HETATM   24  O   UNK N   1      21.448  21.593   2.541  0.00  0.00    -0.775 OA
HETATM   25  H   UNK N   1      20.936  22.369   2.650  0.00  0.00     0.167 HD
ENDBRANCH  22  24
ENDBRANCH  21  22
ENDBRANCH   6  21
BRANCH   2  26
HETATM   26  C   UNK N   1      22.024  17.048   5.085  0.00  0.00     0.171 C 
BRANCH  26  27
HETATM   27  C   UNK N   1      21.079  17.528   6.203  0.00  0.00     0.143 C 
HETATM   28  C   UNK N   1      20.982  16.522   7.340  0.00  0.00     0.042 C 
BRANCH  27  29
HETATM   29  O   UNK N   1      21.553  18.733   6.729  0.00  0.00    -0.393 OA
HETATM   30  H   UNK N   1      20.976  19.314   7.249  0.00  0.00     0.210 HD
ENDBRANCH  27  29
ENDBRANCH  26  27
BRANCH  26  31
HETATM   31  N   UNK N   1      22.658  15.809   5.508  0.00  0.00    -0.418 N 
HETATM   32  H   UNK N   1      23.331  15.458   6.191  0.00  0.00     0.150 HD
HETATM   33  H   UNK N   1      22.319  15.038   4.935  0.00  0.00     0.150 HD
ENDBRANCH  26  31
ENDBRANCH   2  26
TORSDOF 10
ENDMDL
MODEL 5
REMARK VINA RESULT:      -6.8     11.113     13.391
REMARK  10 active torsions:
REMARK  status: ('A' for Active; 'I' for Inactive)
REMARK    1  A    between atoms: C_9  and  C_5 
REMARK    2  A    between atoms: C_12  and  C_5 
REMARK    3  A    between atoms: C_13  and  C_7 
REMARK    4  A    between atoms: N_23  and  C_7 
REMARK    5  A    between atoms: C_15  and  C_8 
REMARK    6  A    between atoms: C_8  and  O_24 
REMARK    7  A    between atoms: O_26  and  C_13 
REMARK    8  A    between atoms: C_16  and  C_15 
REMARK    9  A    between atoms: C_15  and  N_19 
REMARK   10  A    between atoms: O_27  and  C_17 
ROOT
HETATM    1  C   UNK N   1      35.511  14.616  10.168  0.00  0.00     0.066 A 
HETATM    2  C   UNK N   1      34.407  15.005   8.365  0.00  0.00     0.111 A 
HETATM    3  C   UNK N   1      34.997  15.886  10.230  0.00  0.00     0.167 A 
HETATM    4  N   UNK N   1      35.149  14.056   8.991  0.00  0.00    -0.344 N 
ATOM      5  HN  UNK N   1      35.384  13.124   8.647  1.00  0.00     0.167 HD
HETATM    6  N   UNK N   1      34.314  16.136   9.104  0.00  0.00    -0.304 N 
ENDROOT
BRANCH   1   7
HETATM    7  C   UNK N   1      36.273  13.943  11.271  0.00  0.00     0.102 C 
BRANCH   7   8
HETATM    8  C   UNK N   1      35.519  12.917  12.061  0.00  0.00    -0.021 A 
HETATM    9  C   UNK N   1      34.758  11.853  11.583  0.00  0.00     0.097 A 
HETATM   10  N   UNK N   1      34.211  11.180  12.629  0.00  0.00    -0.365 N 
HETATM   11  C   UNK N   1      34.614  11.825  13.740  0.00  0.00     0.045 A 
HETATM   12  H   UNK N   1      33.637  10.382  12.582  0.00  0.00     0.165 HD
HETATM   13  C   UNK N   1      34.285  11.509  15.056  0.00  0.00     0.030 A 
HETATM   14  C   UNK N   1      35.408  12.890  13.430  0.00  0.00     0.037 A 
HETATM   15  C   UNK N   1      34.799  12.332  16.076  0.00  0.00     0.005 A 
HETATM   16  C   UNK N   1      35.618  13.440  15.758  0.00  0.00     0.043 A 
HETATM   17  C   UNK N   1      35.931  13.726  14.418  0.00  0.00     0.129 A 
HETATM   18  F   UNK N   1      36.707  14.792  14.103  0.00  0.00    -0.205 F 
ENDBRANCH   7   8
ENDBRANCH   1   7
BRANCH   3  19
HETATM   19  O   UNK N   1      35.128  16.746  11.255  0.00  0.00    -0.344 OA
HETATM   20  H   UNK N   1      35.814  17.381  11.309  0.00  0.00     0.219 HD
ENDBRANCH   3  19
BRANCH   6  21
HETATM   21  C   UNK N   1      33.591  17.358   8.766  0.00  0.00     0.242 C 
BRANCH  21  22
HETATM   22  C   UNK N   1      34.431  18.261   7.914  0.00  0.00     0.158 C 
HETATM   23  O   UNK N   1      34.388  18.159   6.700  0.00  0.00    -0.649 OA
BRANCH  22  24
HETATM   24  O   UNK N   1      35.223  19.192   8.478  0.00  0.00    -0.775 OA
HETATM   25  H   UNK N   1      35.955  18.933   9.002  0.00  0.00     0.167 HD
ENDBRANCH  22  24
ENDBRANCH  21  22
ENDBRANCH   6  21
BRANCH   2  26
HETATM   26  C   UNK N   1      33.724  14.815   7.027  0.00  0.00     0.171 C 
BRANCH  26  27
HETATM   27  C   UNK N   1      33.024  13.452   6.864  0.00  0.00     0.143 C 
HETATM   28  C   UNK N   1      33.891  12.451   6.116  0.00  0.00     0.042 C 
BRANCH  27  29
HETATM   29  O   UNK N   1      32.736  12.922   8.124  0.00  0.00    -0.393 OA
HETATM   30  H   UNK N   1      31.964  13.220   8.629  0.00  0.00     0.210 HD
ENDBRANCH  27  29
ENDBRANCH  26  27
BRANCH  26  31
HETATM   31  N   UNK N   1      34.707  14.966   5.964  0.00  0.00    -0.418 N 
HETATM   32  H   UNK N   1      34.800  15.350   5.024  0.00  0.00     0.150 HD
HETATM   33  H   UNK N   1      35.592  14.554   6.255  0.00  0.00     0.150 HD
ENDBRANCH  26  31
ENDBRANCH   2  26
TORSDOF 10
ENDMDL
MODEL 6
REMARK VINA RESULT:      -6.8      5.922      9.806
REMARK  10 active torsions:
REMARK  status: ('A' for Active; 'I' for Inactive)
REMARK    1  A    between atoms: C_9  and  C_5 
REMARK    2  A    between atoms: C_12  and  C_5 
REMARK    3  A    between atoms: C_13  and  C_7 
REMARK    4  A    between atoms: N_23  and  C_7 
REMARK    5  A    between atoms: C_15  and  C_8 
REMARK    6  A    between atoms: C_8  and  O_24 
REMARK    7  A    between atoms: O_26  and  C_13 
REMARK    8  A    between atoms: C_16  and  C_15 
REMARK    9  A    between atoms: C_15  and  N_19 
REMARK   10  A    between atoms: O_27  and  C_17 
ROOT
HETATM    1  C   UNK N   1      30.831  16.663   7.170  0.00  0.00     0.066 A 
HETATM    2  C   UNK N   1      32.757  16.342   8.068  0.00  0.00     0.111 A 
HETATM    3  C   UNK N   1      31.803  17.024   6.273  0.00  0.00     0.167 A 
HETATM    4  N   UNK N   1      31.426  16.239   8.309  0.00  0.00    -0.344 N 
ATOM      5  HN  UNK N   1      30.972  15.913   9.163  1.00  0.00     0.167 HD
HETATM    6  N   UNK N   1      33.007  16.832   6.832  0.00  0.00    -0.304 N 
ENDROOT
BRANCH   1   7
HETATM    7  C   UNK N   1      29.358  16.663   6.887  0.00  0.00     0.102 C 
BRANCH   7   8
HETATM    8  C   UNK N   1      28.607  17.891   7.305  0.00  0.00    -0.021 A 
HETATM    9  C   UNK N   1      28.197  18.253   8.586  0.00  0.00     0.097 A 
HETATM   10  N   UNK N   1      27.513  19.425   8.529  0.00  0.00    -0.365 N 
HETATM   11  C   UNK N   1      27.485  19.778   7.230  0.00  0.00     0.045 A 
HETATM   12  H   UNK N   1      27.118  19.916   9.285  0.00  0.00     0.165 HD
HETATM   13  C   UNK N   1      26.873  20.904   6.682  0.00  0.00     0.030 A 
HETATM   14  C   UNK N   1      28.139  18.863   6.457  0.00  0.00     0.037 A 
HETATM   15  C   UNK N   1      26.945  21.075   5.286  0.00  0.00     0.005 A 
HETATM   16  C   UNK N   1      27.616  20.127   4.482  0.00  0.00     0.043 A 
HETATM   17  C   UNK N   1      28.225  19.004   5.071  0.00  0.00     0.129 A 
HETATM   18  F   UNK N   1      28.863  18.084   4.306  0.00  0.00    -0.205 F 
ENDBRANCH   7   8
ENDBRANCH   1   7
BRANCH   3  19
HETATM   19  O   UNK N   1      31.600  17.476   5.023  0.00  0.00    -0.344 OA
HETATM   20  H   UNK N   1      30.848  17.253   4.511  0.00  0.00     0.219 HD
ENDBRANCH   3  19
BRANCH   6  21
HETATM   21  C   UNK N   1      34.309  17.069   6.217  0.00  0.00     0.242 C 
BRANCH  21  22
HETATM   22  C   UNK N   1      34.778  15.859   5.467  0.00  0.00     0.158 C 
HETATM   23  O   UNK N   1      34.106  15.419   4.550  0.00  0.00    -0.649 OA
BRANCH  22  24
HETATM   24  O   UNK N   1      35.941  15.263   5.789  0.00  0.00    -0.775 OA
HETATM   25  H   UNK N   1      36.308  14.611   5.226  0.00  0.00     0.167 HD
ENDBRANCH  22  24
ENDBRANCH  21  22
ENDBRANCH   6  21
BRANCH   2  26
HETATM   26  C   UNK N   1      33.839  15.919   9.039  0.00  0.00     0.171 C 
BRANCH  26  27
HETATM   27  C   UNK N   1      33.465  14.706   9.912  0.00  0.00     0.143 C 
HETATM   28  C   UNK N   1      34.664  14.152  10.666  0.00  0.00     0.042 C 
BRANCH  27  29
HETATM   29  O   UNK N   1      32.500  15.085  10.849  0.00  0.00    -0.393 OA
HETATM   30  H   UNK N   1      32.307  16.020  11.020  0.00  0.00     0.210 HD
ENDBRANCH  27  29
ENDBRANCH  26  27
BRANCH  26  31
HETATM   31  N   UNK N   1      34.164  17.039   9.910  0.00  0.00    -0.418 N 
HETATM   32  H   UNK N   1      33.766  17.588  10.673  0.00  0.00     0.150 HD
HETATM   33  H   UNK N   1      35.093  17.391   9.683  0.00  0.00     0.150 HD
ENDBRANCH  26  31
ENDBRANCH   2  26
TORSDOF 10
ENDMDL
MODEL 7
REMARK VINA RESULT:      -6.7     11.096     13.294
REMARK  10 active torsions:
REMARK  status: ('A' for Active; 'I' for Inactive)
REMARK    1  A    between atoms: C_9  and  C_5 
REMARK    2  A    between atoms: C_12  and  C_5 
REMARK    3  A    between atoms: C_13  and  C_7 
REMARK    4  A    between atoms: N_23  and  C_7 
REMARK    5  A    between atoms: C_15  and  C_8 
REMARK    6  A    between atoms: C_8  and  O_24 
REMARK    7  A    between atoms: O_26  and  C_13 
REMARK    8  A    between atoms: C_16  and  C_15 
REMARK    9  A    between atoms: C_15  and  N_19 
REMARK   10  A    between atoms: O_27  and  C_17 
ROOT
HETATM    1  C   UNK N   1      35.826  14.551  10.086  0.00  0.00     0.066 A 
HETATM    2  C   UNK N   1      34.498  14.957   8.446  0.00  0.00     0.111 A 
HETATM    3  C   UNK N   1      35.349  15.831  10.209  0.00  0.00     0.167 A 
HETATM    4  N   UNK N   1      35.299  13.995   8.971  0.00  0.00    -0.344 N 
ATOM      5  HN  UNK N   1      35.468  13.058   8.604  1.00  0.00     0.167 HD
HETATM    6  N   UNK N   1      34.526  16.091   9.184  0.00  0.00    -0.304 N 
ENDROOT
BRANCH   1   7
HETATM    7  C   UNK N   1      36.716  13.866  11.080  0.00  0.00     0.102 C 
BRANCH   7   8
HETATM    8  C   UNK N   1      36.112  13.588  12.423  0.00  0.00    -0.021 A 
HETATM    9  C   UNK N   1      36.265  14.314  13.601  0.00  0.00     0.097 A 
HETATM   10  N   UNK N   1      35.577  13.705  14.602  0.00  0.00    -0.365 N 
HETATM   11  C   UNK N   1      35.017  12.609  14.058  0.00  0.00     0.045 A 
HETATM   12  H   UNK N   1      35.503  14.006  15.536  0.00  0.00     0.165 HD
HETATM   13  C   UNK N   1      34.232  11.659  14.707  0.00  0.00     0.030 A 
HETATM   14  C   UNK N   1      35.326  12.505  12.732  0.00  0.00     0.037 A 
HETATM   15  C   UNK N   1      33.760  10.569  13.951  0.00  0.00     0.005 A 
HETATM   16  C   UNK N   1      34.082  10.456  12.580  0.00  0.00     0.043 A 
HETATM   17  C   UNK N   1      34.876  11.436  11.956  0.00  0.00     0.129 A 
HETATM   18  F   UNK N   1      35.198  11.330  10.644  0.00  0.00    -0.205 F 
ENDBRANCH   7   8
ENDBRANCH   1   7
BRANCH   3  19
HETATM   19  O   UNK N   1      35.632  16.691  11.203  0.00  0.00    -0.344 OA
HETATM   20  H   UNK N   1      35.625  17.621  11.095  0.00  0.00     0.219 HD
ENDBRANCH   3  19
BRANCH   6  21
HETATM   21  C   UNK N   1      33.788  17.326   8.939  0.00  0.00     0.242 C 
BRANCH  21  22
HETATM   22  C   UNK N   1      34.557  18.243   8.037  0.00  0.00     0.158 C 
HETATM   23  O   UNK N   1      34.494  18.094   6.828  0.00  0.00    -0.649 OA
BRANCH  22  24
HETATM   24  O   UNK N   1      35.307  19.236   8.549  0.00  0.00    -0.775 OA
HETATM   25  H   UNK N   1      35.220  19.476   9.450  0.00  0.00     0.167 HD
ENDBRANCH  22  24
ENDBRANCH  21  22
ENDBRANCH   6  21
BRANCH   2  26
HETATM   26  C   UNK N   1      33.638  14.776   7.212  0.00  0.00     0.171 C 
BRANCH  26  27
HETATM   27  C   UNK N   1      32.932  13.409   7.130  0.00  0.00     0.143 C 
HETATM   28  C   UNK N   1      33.729  12.402   6.315  0.00  0.00     0.042 C 
BRANCH  27  29
HETATM   29  O   UNK N   1      32.765  12.892   8.417  0.00  0.00    -0.393 OA
HETATM   30  H   UNK N   1      32.582  11.950   8.559  0.00  0.00     0.210 HD
ENDBRANCH  27  29
ENDBRANCH  26  27
BRANCH  26  31
HETATM   31  N   UNK N   1      34.463  14.949   6.026  0.00  0.00    -0.418 N 
HETATM   32  H   UNK N   1      35.406  14.758   5.684  0.00  0.00     0.150 HD
HETATM   33  H   UNK N   1      33.922  15.411   5.297  0.00  0.00     0.150 HD
ENDBRANCH  26  31
ENDBRANCH   2  26
TORSDOF 10
ENDMDL
MODEL 8
REMARK VINA RESULT:      -6.7      8.838     13.244
REMARK  10 active torsions:
REMARK  status: ('A' for Active; 'I' for Inactive)
REMARK    1  A    between atoms: C_9  and  C_5 
REMARK    2  A    between atoms: C_12  and  C_5 
REMARK    3  A    between atoms: C_13  and  C_7 
REMARK    4  A    between atoms: N_23  and  C_7 
REMARK    5  A    between atoms: C_15  and  C_8 
REMARK    6  A    between atoms: C_8  and  O_24 
REMARK    7  A    between atoms: O_26  and  C_13 
REMARK    8  A    between atoms: C_16  and  C_15 
REMARK    9  A    between atoms: C_15  and  N_19 
REMARK   10  A    between atoms: O_27  and  C_17 
ROOT
HETATM    1  C   UNK N   1      34.315  15.842   9.158  0.00  0.00     0.066 A 
HETATM    2  C   UNK N   1      35.714  14.215   9.024  0.00  0.00     0.111 A 
HETATM    3  C   UNK N   1      34.120  15.002  10.224  0.00  0.00     0.167 A 
HETATM    4  N   UNK N   1      35.314  15.348   8.392  0.00  0.00    -0.344 N 
ATOM      5  HN  UNK N   1      35.686  15.741   7.527  1.00  0.00     0.167 HD
HETATM    6  N   UNK N   1      34.985  13.981  10.141  0.00  0.00    -0.304 N 
ENDROOT
BRANCH   1   7
HETATM    7  C   UNK N   1      33.590  17.137   8.941  0.00  0.00     0.102 C 
BRANCH   7   8
HETATM    8  C   UNK N   1      32.327  17.057   8.139  0.00  0.00    -0.021 A 
HETATM    9  C   UNK N   1      31.037  16.791   8.591  0.00  0.00     0.097 A 
HETATM   10  N   UNK N   1      30.180  16.775   7.537  0.00  0.00    -0.365 N 
HETATM   11  C   UNK N   1      30.929  17.012   6.444  0.00  0.00     0.045 A 
HETATM   12  H   UNK N   1      29.209  16.621   7.567  0.00  0.00     0.165 HD
HETATM   13  C   UNK N   1      30.488  17.070   5.123  0.00  0.00     0.030 A 
HETATM   14  C   UNK N   1      32.242  17.185   6.774  0.00  0.00     0.037 A 
HETATM   15  C   UNK N   1      31.447  17.311   4.121  0.00  0.00     0.005 A 
HETATM   16  C   UNK N   1      32.808  17.485   4.459  0.00  0.00     0.043 A 
HETATM   17  C   UNK N   1      33.217  17.423   5.804  0.00  0.00     0.129 A 
HETATM   18  F   UNK N   1      34.521  17.578   6.137  0.00  0.00    -0.205 F 
ENDBRANCH   7   8
ENDBRANCH   1   7
BRANCH   3  19
HETATM   19  O   UNK N   1      33.226  15.171  11.215  0.00  0.00    -0.344 OA
HETATM   20  H   UNK N   1      32.651  14.492  11.509  0.00  0.00     0.219 HD
ENDBRANCH   3  19
BRANCH   6  21
HETATM   21  C   UNK N   1      35.133  12.873  11.079  0.00  0.00     0.242 C 
BRANCH  21  22
HETATM   22  C   UNK N   1      35.702  13.345  12.383  0.00  0.00     0.158 C 
HETATM   23  O   UNK N   1      34.967  13.495  13.344  0.00  0.00    -0.649 OA
BRANCH  22  24
HETATM   24  O   UNK N   1      37.020  13.592  12.505  0.00  0.00    -0.775 OA
HETATM   25  H   UNK N   1      37.316  14.370  12.933  0.00  0.00     0.167 HD
ENDBRANCH  22  24
ENDBRANCH  21  22
ENDBRANCH   6  21
BRANCH   2  26
HETATM   26  C   UNK N   1      36.862  13.339   8.570  0.00  0.00     0.171 C 
BRANCH  26  27
HETATM   27  C   UNK N   1      38.225  13.718   9.181  0.00  0.00     0.143 C 
HETATM   28  C   UNK N   1      39.283  13.958   8.115  0.00  0.00     0.042 C 
BRANCH  27  29
HETATM   29  O   UNK N   1      38.090  14.890   9.930  0.00  0.00    -0.393 OA
HETATM   30  H   UNK N   1      38.602  15.686   9.713  0.00  0.00     0.210 HD
ENDBRANCH  27  29
ENDBRANCH  26  27
BRANCH  26  31
HETATM   31  N   UNK N   1      36.967  13.403   7.120  0.00  0.00    -0.418 N 
HETATM   32  H   UNK N   1      37.644  13.606   6.384  0.00  0.00     0.150 HD
HETATM   33  H   UNK N   1      36.068  13.168   6.701  0.00  0.00     0.150 HD
ENDBRANCH  26  31
ENDBRANCH   2  26
TORSDOF 10
ENDMDL
MODEL 9
REMARK VINA RESULT:      -6.6      8.406     12.327
REMARK  10 active torsions:
REMARK  status: ('A' for Active; 'I' for Inactive)
REMARK    1  A    between atoms: C_9  and  C_5 
REMARK    2  A    between atoms: C_12  and  C_5 
REMARK    3  A    between atoms: C_13  and  C_7 
REMARK    4  A    between atoms: N_23  and  C_7 
REMARK    5  A    between atoms: C_15  and  C_8 
REMARK    6  A    between atoms: C_8  and  O_24 
REMARK    7  A    between atoms: O_26  and  C_13 
REMARK    8  A    between atoms: C_16  and  C_15 
REMARK    9  A    between atoms: C_15  and  N_19 
REMARK   10  A    between atoms: O_27  and  C_17 
ROOT
HETATM    1  C   UNK N   1      33.880  16.442   9.024  0.00  0.00     0.066 A 
HETATM    2  C   UNK N   1      34.509  14.409   9.321  0.00  0.00     0.111 A 
HETATM    3  C   UNK N   1      34.927  16.429   9.908  0.00  0.00     0.167 A 
HETATM    4  N   UNK N   1      33.605  15.171   8.655  0.00  0.00    -0.344 N 
ATOM      5  HN  UNK N   1      32.876  14.853   8.015  1.00  0.00     0.167 HD
HETATM    6  N   UNK N   1      35.318  15.161  10.103  0.00  0.00    -0.304 N 
ENDROOT
BRANCH   1   7
HETATM    7  C   UNK N   1      33.218  17.680   8.496  0.00  0.00     0.102 C 
BRANCH   7   8
HETATM    8  C   UNK N   1      31.978  17.468   7.682  0.00  0.00    -0.021 A 
HETATM    9  C   UNK N   1      30.668  17.328   8.132  0.00  0.00     0.097 A 
HETATM   10  N   UNK N   1      29.843  17.117   7.073  0.00  0.00    -0.365 N 
HETATM   11  C   UNK N   1      30.632  17.111   5.982  0.00  0.00     0.045 A 
HETATM   12  H   UNK N   1      28.867  16.994   7.099  0.00  0.00     0.165 HD
HETATM   13  C   UNK N   1      30.233  16.909   4.662  0.00  0.00     0.030 A 
HETATM   14  C   UNK N   1      31.938  17.318   6.317  0.00  0.00     0.037 A 
HETATM   15  C   UNK N   1      31.229  16.920   3.667  0.00  0.00     0.005 A 
HETATM   16  C   UNK N   1      32.584  17.129   4.011  0.00  0.00     0.043 A 
HETATM   17  C   UNK N   1      32.949  17.332   5.354  0.00  0.00     0.129 A 
HETATM   18  F   UNK N   1      34.246  17.523   5.695  0.00  0.00    -0.205 F 
ENDBRANCH   7   8
ENDBRANCH   1   7
BRANCH   3  19
HETATM   19  O   UNK N   1      35.498  17.504  10.480  0.00  0.00    -0.344 OA
HETATM   20  H   UNK N   1      35.006  18.212  10.847  0.00  0.00     0.219 HD
ENDBRANCH   3  19
BRANCH   6  21
HETATM   21  C   UNK N   1      36.412  14.698  10.952  0.00  0.00     0.242 C 
BRANCH  21  22
HETATM   22  C   UNK N   1      35.952  14.510  12.366  0.00  0.00     0.158 C 
HETATM   23  O   UNK N   1      34.875  13.984  12.587  0.00  0.00    -0.649 OA
BRANCH  22  24
HETATM   24  O   UNK N   1      36.725  14.908  13.395  0.00  0.00    -0.775 OA
HETATM   25  H   UNK N   1      37.422  14.362  13.698  0.00  0.00     0.167 HD
ENDBRANCH  22  24
ENDBRANCH  21  22
ENDBRANCH   6  21
BRANCH   2  26
HETATM   26  C   UNK N   1      34.635  12.906   9.180  0.00  0.00     0.171 C 
BRANCH  26  27
HETATM   27  C   UNK N   1      34.206  12.365   7.803  0.00  0.00     0.143 C 
HETATM   28  C   UNK N   1      34.624  10.916   7.603  0.00  0.00     0.042 C 
BRANCH  27  29
HETATM   29  O   UNK N   1      32.815  12.436   7.686  0.00  0.00    -0.393 OA
HETATM   30  H   UNK N   1      32.235  12.112   8.392  0.00  0.00     0.210 HD
ENDBRANCH  27  29
ENDBRANCH  26  27
BRANCH  26  31
HETATM   31  N   UNK N   1      33.831  12.261  10.207  0.00  0.00    -0.418 N 
HETATM   32  H   UNK N   1      33.729  11.364  10.683  0.00  0.00     0.150 HD
HETATM   33  H   UNK N   1      33.145  12.921  10.570  0.00  0.00     0.150 HD
ENDBRANCH  26  31
ENDBRANCH   2  26
TORSDOF 10
ENDMDL
