REMARK  20 active torsions:
REMARK  status: ('A' for Active; 'I' for Inactive)
REMARK    1  A    between atoms: C_5  and  N_4 
REMARK    2  A    between atoms: C_7  and  C_8 
REMARK    3  A    between atoms: C_8  and  O_9 
REMARK    4  A    between atoms: P_10  and  O_9 
REMARK    5  A    between atoms: P_10  and  O_11 
REMARK    6  A    between atoms: P_10  and  O_13 
REMARK    7  A    between atoms: P_14  and  O_13 
REMARK    8  A    between atoms: P_14  and  O_15 
REMARK    9  A    between atoms: P_14  and  O_17 
REMARK   10  A    between atoms: P_18  and  O_17 
REMARK   11  A    between atoms: P_18  and  O_19 
REMARK   12  A    between atoms: P_18  and  O_21 
REMARK   13  A    between atoms: O_21  and  C_22 
REMARK   14  A    between atoms: C_23  and  C_22 
REMARK   15  A    between atoms: C_25  and  N_30 
REMARK   16  A    between atoms: C_26  and  O_27 
REMARK   17  A    between atoms: C_28  and  O_29 
REMARK   18  A    between atoms: C_35  and  N_36 
REMARK   19  A    between atoms: C_43  and  O_44 
REMARK   20  A    between atoms: C_45  and  O_46 
REMARK       I    between atoms: C_53  and  N_54 
ROOT
HETATM    1  P   UNK N   1      10.579  -4.837   1.653  0.00  0.00     0.410 P 
HETATM    2  O   UNK N   1       9.503  -5.328   2.655  0.00  0.00    -0.631 OA
ENDROOT
BRANCH   1   3
HETATM    3  O   UNK N   1       9.767  -3.940   0.367  0.00  0.00    -0.195 OA
BRANCH   3   4
HETATM    4  P   UNK N   1       8.506  -4.949  -0.355  0.00  0.00     0.401 P 
HETATM    5  O   UNK N   1       9.558  -6.055  -0.571  0.00  0.00    -0.631 OA
BRANCH   4   6
HETATM    6  O   UNK N   1       8.014  -5.132  -2.056  0.00  0.00    -0.294 OA
BRANCH   6   7
HETATM    7  C   UNK N   1       8.138  -6.480  -2.523  0.00  0.00     0.215 C 
BRANCH   7   8
HETATM    8  C   UNK N   1       6.981  -7.377  -2.069  0.00  0.00     0.180 C 
HETATM    9  O   UNK N   1       5.994  -6.590  -1.490  0.00  0.00    -0.353 OA
HETATM   10  C   UNK N   1       5.911  -6.978  -0.150  0.00  0.00     0.262 C 
HETATM   11  C   UNK N   1       6.200  -8.476  -0.096  0.00  0.00     0.198 C 
HETATM   12  C   UNK N   1       7.290  -8.572  -1.143  0.00  0.00     0.182 C 
BRANCH  10  13
HETATM   13  N   UNK N   1       4.604  -6.524   0.289  0.00  0.00    -0.296 N 
HETATM   14  C   UNK N   1       3.435  -7.211   0.383  0.00  0.00     0.190 A 
HETATM   15  N   UNK N   1       2.391  -6.352   0.478  0.00  0.00    -0.340 N 
HETATM   16  C   UNK N   1       0.987  -6.719   0.517  0.00  0.00     0.157 C 
HETATM   17  C   UNK N   1       2.925  -5.114   0.417  0.00  0.00     0.149 A 
HETATM   18  C   UNK N   1       4.261  -5.231   0.328  0.00  0.00     0.159 A 
HETATM   19  C   UNK N   1       2.335  -3.861   0.367  0.00  0.00     0.290 A 
HETATM   20  N   UNK N   1       5.085  -4.158   0.195  0.00  0.00    -0.174 N 
HETATM   21  C   UNK N   1       4.527  -2.912   0.179  0.00  0.00     0.680 A 
HETATM   22  H   UNK N   1       6.059  -4.276   0.112  0.00  0.00     0.186 HD
HETATM   23  N   UNK N   1       3.164  -2.761   0.254  0.00  0.00    -0.154 N 
HETATM   24  N   UNK N   1       5.354  -1.777   0.066  0.00  0.00    -0.234 N 
ATOM     25  HN  UNK N   1       2.759  -1.825   0.226  1.00  0.00     0.187 HD
HETATM   26  H   UNK N   1       6.330  -1.880  -0.014  0.00  0.00     0.174 HD
HETATM   27  H   UNK N   1       4.955  -0.877   0.066  0.00  0.00     0.174 HD
HETATM   28  O   UNK N   1       1.127  -3.723   0.388  0.00  0.00    -0.265 OA
ENDBRANCH  10  13
BRANCH  11  29
HETATM   29  O   UNK N   1       5.106  -9.219  -0.541  0.00  0.00    -0.388 OA
HETATM   30  H   UNK N   1       4.279  -8.818  -0.850  0.00  0.00     0.210 HD
ENDBRANCH  11  29
BRANCH  12  31
HETATM   31  O   UNK N   1       8.543  -8.471  -0.539  0.00  0.00    -0.390 OA
HETATM   32  H   UNK N   1       9.040  -9.191  -0.119  0.00  0.00     0.210 HD
ENDBRANCH  12  31
ENDBRANCH   7   8
ENDBRANCH   6   7
ENDBRANCH   4   6
BRANCH   4  33
HETATM   33  O   UNK N   1       9.160  -3.739  -1.414  0.00  0.00    -0.307 OA
HETATM   34  H   UNK N   1       9.928  -3.718  -2.006  0.00  0.00     0.222 HD
ENDBRANCH   4  33
ENDBRANCH   3   4
ENDBRANCH   1   3
BRANCH   1  35
HETATM   35  O   UNK N   1      11.714  -3.895   2.571  0.00  0.00    -0.307 OA
HETATM   36  H   UNK N   1      12.487  -4.182   3.083  0.00  0.00     0.222 HD
ENDBRANCH   1  35
BRANCH   1  37
HETATM   37  O   UNK N   1      11.327  -6.280   1.048  0.00  0.00    -0.195 OA
BRANCH  37  38
HETATM   38  P   UNK N   1      12.802  -5.823   0.269  0.00  0.00     0.401 P 
HETATM   39  O   UNK N   1      12.732  -6.330  -1.199  0.00  0.00    -0.631 OA
BRANCH  38  40
HETATM   40  O   UNK N   1      13.121  -4.107   0.221  0.00  0.00    -0.307 OA
HETATM   41  H   UNK N   1      14.036  -3.785   0.194  0.00  0.00     0.222 HD
ENDBRANCH  38  40
BRANCH  38  42
HETATM   42  O   UNK N   1      14.023  -6.758   1.082  0.00  0.00    -0.294 OA
BRANCH  42  43
HETATM   43  C   UNK N   1      15.200  -6.025   1.075  0.00  0.00     0.215 C 
BRANCH  43  44
HETATM   44  C   UNK N   1      15.883  -6.246  -0.249  0.00  0.00     0.180 C 
HETATM   45  O   UNK N   1      15.402  -5.296  -1.172  0.00  0.00    -0.353 OA
HETATM   46  C   UNK N   1      16.520  -4.589  -1.631  0.00  0.00     0.262 C 
HETATM   47  C   UNK N   1      17.747  -5.448  -1.395  0.00  0.00     0.198 C 
HETATM   48  C   UNK N   1      17.364  -6.072  -0.090  0.00  0.00     0.182 C 
BRANCH  46  49
HETATM   49  N   UNK N   1      16.581  -3.247  -1.034  0.00  0.00    -0.297 N 
HETATM   50  C   UNK N   1      15.657  -2.268  -1.223  0.00  0.00     0.188 A 
HETATM   51  N   UNK N   1      16.071  -1.083  -0.691  0.00  0.00    -0.346 N 
HETATM   52  C   UNK N   1      17.280  -1.358  -0.167  0.00  0.00     0.122 A 
ATOM     53  HN  UNK N   1      15.578  -0.190  -0.690  1.00  0.00     0.167 HD
HETATM   54  C   UNK N   1      18.210  -0.513   0.418  0.00  0.00     0.131 A 
HETATM   55  C   UNK N   1      17.570  -2.661  -0.344  0.00  0.00     0.142 A 
HETATM   56  N   UNK N   1      19.392  -1.055   0.840  0.00  0.00    -0.337 N 
HETATM   57  C   UNK N   1      19.649  -2.396   0.686  0.00  0.00     0.183 A 
ATOM     58  HN  UNK N   1      20.093  -0.456   1.275  1.00  0.00     0.168 HD
HETATM   59  N   UNK N   1      18.739  -3.208   0.068  0.00  0.00    -0.336 N 
ATOM     60  HN  UNK N   1      18.935  -4.198  -0.079  1.00  0.00     0.168 HD
BRANCH  54  61
HETATM   61  N   UNK N   1      17.981   0.873   0.519  0.00  0.00    -0.383 N 
HETATM   62  H   UNK N   1      18.739   1.497   0.589  0.00  0.00     0.157 HD
HETATM   63  H   UNK N   1      17.059   1.219   0.519  0.00  0.00     0.157 HD
ENDBRANCH  54  61
ENDBRANCH  46  49
BRANCH  47  64
HETATM   64  O   UNK N   1      17.798  -6.416  -2.402  0.00  0.00    -0.388 OA
HETATM   65  H   UNK N   1      17.234  -6.782  -3.101  0.00  0.00     0.210 HD
ENDBRANCH  47  64
BRANCH  48  66
HETATM   66  O   UNK N   1      17.989  -7.306   0.112  0.00  0.00    -0.390 OA
HETATM   67  H   UNK N   1      17.464  -8.109   0.253  0.00  0.00     0.210 HD
ENDBRANCH  48  66
ENDBRANCH  43  44
ENDBRANCH  42  43
ENDBRANCH  38  42
ENDBRANCH  37  38
ENDBRANCH   1  37
TORSDOF 20
