MODEL 1
REMARK VINA RESULT:      -6.9      0.000      0.000
REMARK  11 active torsions:
REMARK  status: ('A' for Active; 'I' for Inactive)
REMARK    1  A    between atoms: C_7  and  C_8 
REMARK    2  A    between atoms: C_8  and  N_9 
REMARK    3  A    between atoms: C_12  and  C_13 
REMARK    4  A    between atoms: C_13  and  C_14 
REMARK    5  A    between atoms: C_14  and  O_15 
REMARK    6  A    between atoms: P_16  and  O_15 
REMARK    7  A    between atoms: P_16  and  O_17 
REMARK    8  A    between atoms: P_16  and  O_19 
REMARK    9  A    between atoms: O_19  and  P_20 
REMARK   10  A    between atoms: P_20  and  O_21 
REMARK   11  A    between atoms: C_26  and  N_27 
ROOT
HETATM    1  N   UNK N   1      26.872  18.634   5.547  0.00  0.00    -0.349 N 
HETATM    2  C   UNK N   1      26.303  17.497   5.066  0.00  0.00     0.141 A 
HETATM    3  S   UNK N   1      25.343  17.890   3.775  0.00  0.00    -0.087 SA
HETATM    4  C   UNK N   1      25.600  19.512   3.789  0.00  0.00     0.008 A 
HETATM    5  C   UNK N   1      26.486  19.759   4.843  0.00  0.00     0.021 A 
HETATM    6  C   UNK N   1      26.945  21.137   5.207  0.00  0.00     0.069 C 
ENDROOT
BRANCH   1   7
HETATM    7  C   UNK N   1      27.760  18.782   6.707  0.00  0.00     0.173 C 
BRANCH   7   8
HETATM    8  C   UNK N   1      28.992  17.954   7.085  0.00  0.00     0.026 A 
HETATM    9  C   UNK N   1      30.002  17.404   6.242  0.00  0.00     0.018 A 
HETATM   10  N   UNK N   1      31.038  16.723   6.798  0.00  0.00    -0.349 N 
HETATM   11  C   UNK N   1      30.039  17.542   4.770  0.00  0.00     0.069 C 
HETATM   12  C   UNK N   1      31.144  16.551   8.134  0.00  0.00     0.078 A 
ATOM     13  HN  UNK N   1      31.757  16.330   6.190  1.00  0.00     0.167 HD
HETATM   14  C   UNK N   1      32.308  15.816   8.696  0.00  0.00     0.089 C 
HETATM   15  N   UNK N   1      30.207  17.059   8.961  0.00  0.00    -0.332 N 
HETATM   16  C   UNK N   1      29.142  17.748   8.475  0.00  0.00     0.110 A 
ATOM     17  HN  UNK N   1      30.299  16.923   9.967  1.00  0.00     0.168 HD
BRANCH  16  18
HETATM   18  N   UNK N   1      28.196  18.265   9.386  0.00  0.00    -0.385 N 
HETATM   19  H   UNK N   1      28.288  18.081  10.349  0.00  0.00     0.157 HD
HETATM   20  H   UNK N   1      27.443  18.810   9.058  0.00  0.00     0.157 HD
ENDBRANCH  16  18
ENDBRANCH   7   8
ENDBRANCH   1   7
BRANCH   4  21
HETATM   21  C   UNK N   1      24.930  20.521   2.938  0.00  0.00     0.075 C 
BRANCH  21  22
HETATM   22  C   UNK N   1      23.459  20.171   3.016  0.00  0.00     0.185 C 
BRANCH  22  23
HETATM   23  O   UNK N   1      22.641  21.271   2.779  0.00  0.00    -0.296 OA
BRANCH  23  24
HETATM   24  P   UNK N   1      21.038  20.684   2.401  0.00  0.00     0.402 P 
HETATM   25  O   UNK N   1      21.916  20.612   1.122  0.00  0.00    -0.631 OA
BRANCH  24  26
HETATM   26  O   UNK N   1      21.659  19.796   3.762  0.00  0.00    -0.307 OA
HETATM   27  H   UNK N   1      21.652  19.238   4.556  0.00  0.00     0.222 HD
ENDBRANCH  24  26
BRANCH  24  28
HETATM   28  O   UNK N   1      20.966  18.951   2.112  0.00  0.00    -0.188 OA
BRANCH  28  29
HETATM   29  P   UNK N   1      20.288  18.135   3.503  0.00  0.00     0.414 P 
HETATM   30  O   UNK N   1      21.170  16.962   2.577  0.00  0.00    -0.624 OA
HETATM   31  O   UNK N   1      19.056  18.658   2.713  0.00  0.00    -0.624 OA
BRANCH  29  32
HETATM   32  O   UNK N   1      19.282  16.747   3.239  0.00  0.00    -0.300 OA
HETATM   33  H   UNK N   1      19.145  16.392   2.347  0.00  0.00     0.223 HD
ENDBRANCH  29  32
ENDBRANCH  28  29
ENDBRANCH  24  28
ENDBRANCH  23  24
ENDBRANCH  22  23
ENDBRANCH  21  22
ENDBRANCH   4  21
TORSDOF 11
ENDMDL
MODEL 2
REMARK VINA RESULT:      -6.9      9.997     11.644
REMARK  11 active torsions:
REMARK  status: ('A' for Active; 'I' for Inactive)
REMARK    1  A    between atoms: C_7  and  C_8 
REMARK    2  A    between atoms: C_8  and  N_9 
REMARK    3  A    between atoms: C_12  and  C_13 
REMARK    4  A    between atoms: C_13  and  C_14 
REMARK    5  A    between atoms: C_14  and  O_15 
REMARK    6  A    between atoms: P_16  and  O_15 
REMARK    7  A    between atoms: P_16  and  O_17 
REMARK    8  A    between atoms: P_16  and  O_19 
REMARK    9  A    between atoms: O_19  and  P_20 
REMARK   10  A    between atoms: P_20  and  O_21 
REMARK   11  A    between atoms: C_26  and  N_27 
ROOT
HETATM    1  N   UNK N   1      31.018  16.961   5.987  0.00  0.00    -0.349 N 
HETATM    2  C   UNK N   1      31.681  17.412   4.889  0.00  0.00     0.141 A 
HETATM    3  S   UNK N   1      33.308  17.234   5.143  0.00  0.00    -0.087 SA
HETATM    4  C   UNK N   1      33.231  16.596   6.654  0.00  0.00     0.008 A 
HETATM    5  C   UNK N   1      31.873  16.506   6.973  0.00  0.00     0.021 A 
HETATM    6  C   UNK N   1      31.384  15.998   8.295  0.00  0.00     0.069 C 
ENDROOT
BRANCH   1   7
HETATM    7  C   UNK N   1      29.570  16.961   6.234  0.00  0.00     0.173 C 
BRANCH   7   8
HETATM    8  C   UNK N   1      28.654  18.141   6.571  0.00  0.00     0.026 A 
HETATM    9  C   UNK N   1      28.247  18.632   7.846  0.00  0.00     0.018 A 
HETATM   10  N   UNK N   1      27.447  19.729   7.915  0.00  0.00    -0.349 N 
HETATM   11  C   UNK N   1      28.659  18.053   9.143  0.00  0.00     0.069 C 
HETATM   12  C   UNK N   1      27.024  20.375   6.806  0.00  0.00     0.078 A 
ATOM     13  HN  UNK N   1      27.157  20.074   8.830  1.00  0.00     0.167 HD
HETATM   14  C   UNK N   1      26.167  21.582   6.935  0.00  0.00     0.089 C 
HETATM   15  N   UNK N   1      27.391  19.938   5.584  0.00  0.00    -0.332 N 
HETATM   16  C   UNK N   1      28.187  18.847   5.439  0.00  0.00     0.110 A 
ATOM     17  HN  UNK N   1      27.066  20.435   4.756  1.00  0.00     0.168 HD
BRANCH  16  18
HETATM   18  N   UNK N   1      28.548  18.439   4.137  0.00  0.00    -0.385 N 
HETATM   19  H   UNK N   1      29.456  18.615   3.799  0.00  0.00     0.157 HD
HETATM   20  H   UNK N   1      27.891  17.979   3.565  0.00  0.00     0.157 HD
ENDBRANCH  16  18
ENDBRANCH   7   8
ENDBRANCH   1   7
BRANCH   4  21
HETATM   21  C   UNK N   1      34.374  16.296   7.546  0.00  0.00     0.075 C 
BRANCH  21  22
HETATM   22  C   UNK N   1      34.484  17.508   8.447  0.00  0.00     0.185 C 
BRANCH  22  23
HETATM   23  O   UNK N   1      34.291  17.189   9.788  0.00  0.00    -0.296 OA
BRANCH  23  24
HETATM   24  P   UNK N   1      35.456  15.961  10.226  0.00  0.00     0.402 P 
HETATM   25  O   UNK N   1      36.037  17.357  10.581  0.00  0.00    -0.631 OA
BRANCH  24  26
HETATM   26  O   UNK N   1      33.934  15.592  10.984  0.00  0.00    -0.307 OA
HETATM   27  H   UNK N   1      32.999  15.341  11.059  0.00  0.00     0.222 HD
ENDBRANCH  24  26
BRANCH  24  28
HETATM   28  O   UNK N   1      35.648  15.750  11.962  0.00  0.00    -0.188 OA
BRANCH  28  29
HETATM   29  P   UNK N   1      35.732  14.048  12.356  0.00  0.00     0.414 P 
HETATM   30  O   UNK N   1      36.437  14.934  13.672  0.00  0.00    -0.624 OA
HETATM   31  O   UNK N   1      36.583  14.196  11.065  0.00  0.00    -0.624 OA
BRANCH  29  32
HETATM   32  O   UNK N   1      37.279  13.363  12.738  0.00  0.00    -0.300 OA
HETATM   33  H   UNK N   1      38.098  13.853  12.567  0.00  0.00     0.223 HD
ENDBRANCH  29  32
ENDBRANCH  28  29
ENDBRANCH  24  28
ENDBRANCH  23  24
ENDBRANCH  22  23
ENDBRANCH  21  22
ENDBRANCH   4  21
TORSDOF 11
ENDMDL
MODEL 3
REMARK VINA RESULT:      -6.8     10.189     11.749
REMARK  11 active torsions:
REMARK  status: ('A' for Active; 'I' for Inactive)
REMARK    1  A    between atoms: C_7  and  C_8 
REMARK    2  A    between atoms: C_8  and  N_9 
REMARK    3  A    between atoms: C_12  and  C_13 
REMARK    4  A    between atoms: C_13  and  C_14 
REMARK    5  A    between atoms: C_14  and  O_15 
REMARK    6  A    between atoms: P_16  and  O_15 
REMARK    7  A    between atoms: P_16  and  O_17 
REMARK    8  A    between atoms: P_16  and  O_19 
REMARK    9  A    between atoms: O_19  and  P_20 
REMARK   10  A    between atoms: P_20  and  O_21 
REMARK   11  A    between atoms: C_26  and  N_27 
ROOT
HETATM    1  N   UNK N   1      30.987  17.177   6.469  0.00  0.00    -0.349 N 
HETATM    2  C   UNK N   1      31.758  16.946   5.374  0.00  0.00     0.141 A 
HETATM    3  S   UNK N   1      33.341  17.228   5.771  0.00  0.00    -0.087 SA
HETATM    4  C   UNK N   1      33.105  17.669   7.334  0.00  0.00     0.008 A 
HETATM    5  C   UNK N   1      31.728  17.580   7.563  0.00  0.00     0.021 A 
HETATM    6  C   UNK N   1      31.102  17.936   8.877  0.00  0.00     0.069 C 
ENDROOT
BRANCH   1   7
HETATM    7  C   UNK N   1      29.524  17.099   6.580  0.00  0.00     0.173 C 
BRANCH   7   8
HETATM    8  C   UNK N   1      28.459  17.850   5.777  0.00  0.00     0.026 A 
HETATM    9  C   UNK N   1      28.134  17.748   4.393  0.00  0.00     0.018 A 
HETATM   10  N   UNK N   1      27.115  18.494   3.889  0.00  0.00    -0.349 N 
HETATM   11  C   UNK N   1      28.808  16.849   3.432  0.00  0.00     0.069 C 
HETATM   12  C   UNK N   1      26.394  19.333   4.665  0.00  0.00     0.078 A 
ATOM     13  HN  UNK N   1      26.888  18.419   2.897  1.00  0.00     0.167 HD
HETATM   14  C   UNK N   1      25.276  20.113   4.070  0.00  0.00     0.089 C 
HETATM   15  N   UNK N   1      26.674  19.453   5.978  0.00  0.00    -0.332 N 
HETATM   16  C   UNK N   1      27.680  18.741   6.550  0.00  0.00     0.110 A 
ATOM     17  HN  UNK N   1      26.122  20.090   6.552  1.00  0.00     0.168 HD
BRANCH  16  18
HETATM   18  N   UNK N   1      27.924  18.899   7.931  0.00  0.00    -0.385 N 
HETATM   19  H   UNK N   1      28.057  18.108   8.501  0.00  0.00     0.157 HD
HETATM   20  H   UNK N   1      27.959  19.801   8.325  0.00  0.00     0.157 HD
ENDBRANCH  16  18
ENDBRANCH   7   8
ENDBRANCH   1   7
BRANCH   4  21
HETATM   21  C   UNK N   1      34.129  18.178   8.274  0.00  0.00     0.075 C 
BRANCH  21  22
HETATM   22  C   UNK N   1      34.611  16.949   9.017  0.00  0.00     0.185 C 
BRANCH  22  23
HETATM   23  O   UNK N   1      35.416  17.272  10.105  0.00  0.00    -0.296 OA
BRANCH  23  24
HETATM   24  P   UNK N   1      35.362  15.937  11.233  0.00  0.00     0.402 P 
HETATM   25  O   UNK N   1      34.347  15.671  10.089  0.00  0.00    -0.631 OA
BRANCH  24  26
HETATM   26  O   UNK N   1      37.006  16.170  10.710  0.00  0.00    -0.307 OA
HETATM   27  H   UNK N   1      37.848  16.624  10.554  0.00  0.00     0.222 HD
ENDBRANCH  24  26
BRANCH  24  28
HETATM   28  O   UNK N   1      36.042  14.444  10.601  0.00  0.00    -0.188 OA
BRANCH  28  29
HETATM   29  P   UNK N   1      36.174  13.253  11.876  0.00  0.00     0.414 P 
HETATM   30  O   UNK N   1      35.661  14.747  12.595  0.00  0.00    -0.624 OA
HETATM   31  O   UNK N   1      37.612  13.376  11.301  0.00  0.00    -0.624 OA
BRANCH  29  32
HETATM   32  O   UNK N   1      37.190  13.607  13.236  0.00  0.00    -0.300 OA
HETATM   33  H   UNK N   1      36.873  13.475  14.144  0.00  0.00     0.223 HD
ENDBRANCH  29  32
ENDBRANCH  28  29
ENDBRANCH  24  28
ENDBRANCH  23  24
ENDBRANCH  22  23
ENDBRANCH  21  22
ENDBRANCH   4  21
TORSDOF 11
ENDMDL
MODEL 4
REMARK VINA RESULT:      -6.7     12.361     15.153
REMARK  11 active torsions:
REMARK  status: ('A' for Active; 'I' for Inactive)
REMARK    1  A    between atoms: C_7  and  C_8 
REMARK    2  A    between atoms: C_8  and  N_9 
REMARK    3  A    between atoms: C_12  and  C_13 
REMARK    4  A    between atoms: C_13  and  C_14 
REMARK    5  A    between atoms: C_14  and  O_15 
REMARK    6  A    between atoms: P_16  and  O_15 
REMARK    7  A    between atoms: P_16  and  O_17 
REMARK    8  A    between atoms: P_16  and  O_19 
REMARK    9  A    between atoms: O_19  and  P_20 
REMARK   10  A    between atoms: P_20  and  O_21 
REMARK   11  A    between atoms: C_26  and  N_27 
ROOT
HETATM    1  N   UNK N   1      35.021  12.561  15.541  0.00  0.00    -0.349 N 
HETATM    2  C   UNK N   1      34.246  11.764  14.759  0.00  0.00     0.141 A 
HETATM    3  S   UNK N   1      34.700  11.969  13.179  0.00  0.00    -0.087 SA
HETATM    4  C   UNK N   1      35.879  13.084  13.428  0.00  0.00     0.008 A 
HETATM    5  C   UNK N   1      35.932  13.298  14.809  0.00  0.00     0.021 A 
HETATM    6  C   UNK N   1      36.869  14.282  15.440  0.00  0.00     0.069 C 
ENDROOT
BRANCH   1   7
HETATM    7  C   UNK N   1      34.952  12.745  16.997  0.00  0.00     0.173 C 
BRANCH   7   8
HETATM    8  C   UNK N   1      35.544  11.869  18.104  0.00  0.00     0.026 A 
HETATM    9  C   UNK N   1      36.172  10.593  18.006  0.00  0.00     0.018 A 
HETATM   10  N   UNK N   1      36.665  10.002  19.128  0.00  0.00    -0.349 N 
HETATM   11  C   UNK N   1      36.372   9.846  16.746  0.00  0.00     0.069 C 
HETATM   12  C   UNK N   1      36.579  10.591  20.340  0.00  0.00     0.078 A 
ATOM     13  HN  UNK N   1      37.111   9.088  19.052  1.00  0.00     0.167 HD
HETATM   14  C   UNK N   1      37.150   9.914  21.534  0.00  0.00     0.089 C 
HETATM   15  N   UNK N   1      35.992  11.799  20.469  0.00  0.00    -0.332 N 
HETATM   16  C   UNK N   1      35.476  12.447  19.392  0.00  0.00     0.110 A 
ATOM     17  HN  UNK N   1      35.934  12.232  21.390  1.00  0.00     0.168 HD
BRANCH  16  18
HETATM   18  N   UNK N   1      34.880  13.712  19.584  0.00  0.00    -0.385 N 
HETATM   19  H   UNK N   1      33.995  13.780  20.008  0.00  0.00     0.157 HD
HETATM   20  H   UNK N   1      35.350  14.527  19.291  0.00  0.00     0.157 HD
ENDBRANCH  16  18
ENDBRANCH   7   8
ENDBRANCH   1   7
BRANCH   4  21
HETATM   21  C   UNK N   1      36.645  13.808  12.388  0.00  0.00     0.075 C 
BRANCH  21  22
HETATM   22  C   UNK N   1      35.831  15.054  12.112  0.00  0.00     0.185 C 
BRANCH  22  23
HETATM   23  O   UNK N   1      36.324  15.779  11.031  0.00  0.00    -0.296 OA
BRANCH  23  24
HETATM   24  P   UNK N   1      34.965  16.303  10.064  0.00  0.00     0.402 P 
HETATM   25  O   UNK N   1      35.803  17.545  10.471  0.00  0.00    -0.631 OA
BRANCH  24  26
HETATM   26  O   UNK N   1      35.845  15.085   9.188  0.00  0.00    -0.307 OA
HETATM   27  H   UNK N   1      36.248  14.629   8.432  0.00  0.00     0.222 HD
ENDBRANCH  24  26
BRANCH  24  28
HETATM   28  O   UNK N   1      35.410  16.874   8.462  0.00  0.00    -0.188 OA
BRANCH  28  29
HETATM   29  P   UNK N   1      33.977  17.300   7.553  0.00  0.00     0.414 P 
HETATM   30  O   UNK N   1      34.871  16.140   6.622  0.00  0.00    -0.624 OA
HETATM   31  O   UNK N   1      34.767  18.631   7.692  0.00  0.00    -0.624 OA
BRANCH  29  32
HETATM   32  O   UNK N   1      34.170  17.897   5.936  0.00  0.00    -0.300 OA
HETATM   33  H   UNK N   1      34.018  18.832   5.728  0.00  0.00     0.223 HD
ENDBRANCH  29  32
ENDBRANCH  28  29
ENDBRANCH  24  28
ENDBRANCH  23  24
ENDBRANCH  22  23
ENDBRANCH  21  22
ENDBRANCH   4  21
TORSDOF 11
ENDMDL
MODEL 5
REMARK VINA RESULT:      -6.7      7.835      9.936
REMARK  11 active torsions:
REMARK  status: ('A' for Active; 'I' for Inactive)
REMARK    1  A    between atoms: C_7  and  C_8 
REMARK    2  A    between atoms: C_8  and  N_9 
REMARK    3  A    between atoms: C_12  and  C_13 
REMARK    4  A    between atoms: C_13  and  C_14 
REMARK    5  A    between atoms: C_14  and  O_15 
REMARK    6  A    between atoms: P_16  and  O_15 
REMARK    7  A    between atoms: P_16  and  O_17 
REMARK    8  A    between atoms: P_16  and  O_19 
REMARK    9  A    between atoms: O_19  and  P_20 
REMARK   10  A    between atoms: P_20  and  O_21 
REMARK   11  A    between atoms: C_26  and  N_27 
ROOT
HETATM    1  N   UNK N   1      26.718  17.361   4.390  0.00  0.00    -0.349 N 
HETATM    2  C   UNK N   1      26.515  16.173   3.761  0.00  0.00     0.141 A 
HETATM    3  S   UNK N   1      27.978  15.590   3.245  0.00  0.00    -0.087 SA
HETATM    4  C   UNK N   1      28.914  16.827   3.784  0.00  0.00     0.008 A 
HETATM    5  C   UNK N   1      28.048  17.732   4.407  0.00  0.00     0.021 A 
HETATM    6  C   UNK N   1      28.520  19.022   5.005  0.00  0.00     0.069 C 
ENDROOT
BRANCH   1   7
HETATM    7  C   UNK N   1      25.712  18.261   4.970  0.00  0.00     0.173 C 
BRANCH   7   8
HETATM    8  C   UNK N   1      24.531  18.951   4.282  0.00  0.00     0.026 A 
HETATM    9  C   UNK N   1      24.537  19.994   3.309  0.00  0.00     0.018 A 
HETATM   10  N   UNK N   1      23.358  20.439   2.800  0.00  0.00    -0.349 N 
HETATM   11  C   UNK N   1      25.755  20.630   2.763  0.00  0.00     0.069 C 
HETATM   12  C   UNK N   1      22.172  19.921   3.188  0.00  0.00     0.078 A 
ATOM     13  HN  UNK N   1      23.368  21.187   2.106  1.00  0.00     0.167 HD
HETATM   14  C   UNK N   1      20.911  20.429   2.587  0.00  0.00     0.089 C 
HETATM   15  N   UNK N   1      22.130  18.933   4.105  0.00  0.00    -0.332 N 
HETATM   16  C   UNK N   1      23.268  18.440   4.659  0.00  0.00     0.110 A 
ATOM     17  HN  UNK N   1      21.228  18.550   4.389  1.00  0.00     0.168 HD
BRANCH  16  18
HETATM   18  N   UNK N   1      23.166  17.401   5.608  0.00  0.00    -0.385 N 
HETATM   19  H   UNK N   1      23.081  16.467   5.308  0.00  0.00     0.157 HD
HETATM   20  H   UNK N   1      23.179  17.609   6.570  0.00  0.00     0.157 HD
ENDBRANCH  16  18
ENDBRANCH   7   8
ENDBRANCH   1   7
BRANCH   4  21
HETATM   21  C   UNK N   1      30.364  17.006   3.547  0.00  0.00     0.075 C 
BRANCH  21  22
HETATM   22  C   UNK N   1      31.022  16.531   4.825  0.00  0.00     0.185 C 
BRANCH  22  23
HETATM   23  O   UNK N   1      31.822  17.511   5.404  0.00  0.00    -0.296 OA
BRANCH  23  24
HETATM   24  P   UNK N   1      33.355  16.782   5.823  0.00  0.00     0.402 P 
HETATM   25  O   UNK N   1      33.600  17.907   4.782  0.00  0.00    -0.631 OA
BRANCH  24  26
HETATM   26  O   UNK N   1      32.558  17.299   7.281  0.00  0.00    -0.307 OA
HETATM   27  H   UNK N   1      32.380  17.388   8.231  0.00  0.00     0.222 HD
ENDBRANCH  24  26
BRANCH  24  28
HETATM   28  O   UNK N   1      34.400  17.824   6.780  0.00  0.00    -0.188 OA
BRANCH  28  29
HETATM   29  P   UNK N   1      34.047  17.632   8.483  0.00  0.00     0.414 P 
HETATM   30  O   UNK N   1      34.870  19.146   8.278  0.00  0.00    -0.624 OA
HETATM   31  O   UNK N   1      34.980  16.439   8.136  0.00  0.00    -0.624 OA
BRANCH  29  32
HETATM   32  O   UNK N   1      35.357  17.723   9.615  0.00  0.00    -0.300 OA
HETATM   33  H   UNK N   1      35.203  17.979  10.538  0.00  0.00     0.223 HD
ENDBRANCH  29  32
ENDBRANCH  28  29
ENDBRANCH  24  28
ENDBRANCH  23  24
ENDBRANCH  22  23
ENDBRANCH  21  22
ENDBRANCH   4  21
TORSDOF 11
ENDMDL
MODEL 6
REMARK VINA RESULT:      -6.5     10.660     12.407
REMARK  11 active torsions:
REMARK  status: ('A' for Active; 'I' for Inactive)
REMARK    1  A    between atoms: C_7  and  C_8 
REMARK    2  A    between atoms: C_8  and  N_9 
REMARK    3  A    between atoms: C_12  and  C_13 
REMARK    4  A    between atoms: C_13  and  C_14 
REMARK    5  A    between atoms: C_14  and  O_15 
REMARK    6  A    between atoms: P_16  and  O_15 
REMARK    7  A    between atoms: P_16  and  O_17 
REMARK    8  A    between atoms: P_16  and  O_19 
REMARK    9  A    between atoms: O_19  and  P_20 
REMARK   10  A    between atoms: P_20  and  O_21 
REMARK   11  A    between atoms: C_26  and  N_27 
ROOT
HETATM    1  N   UNK N   1      32.154  17.041   8.391  0.00  0.00    -0.349 N 
HETATM    2  C   UNK N   1      32.898  18.162   8.202  0.00  0.00     0.141 A 
HETATM    3  S   UNK N   1      34.498  17.772   8.376  0.00  0.00    -0.087 SA
HETATM    4  C   UNK N   1      34.305  16.177   8.712  0.00  0.00     0.008 A 
HETATM    5  C   UNK N   1      32.928  15.932   8.676  0.00  0.00     0.021 A 
HETATM    6  C   UNK N   1      32.338  14.586   8.966  0.00  0.00     0.069 C 
ENDROOT
BRANCH   1   7
HETATM    7  C   UNK N   1      30.690  16.912   8.378  0.00  0.00     0.173 C 
BRANCH   7   8
HETATM    8  C   UNK N   1      29.669  17.655   7.513  0.00  0.00     0.026 A 
HETATM    9  C   UNK N   1      29.500  17.632   6.097  0.00  0.00     0.018 A 
HETATM   10  N   UNK N   1      28.493  18.351   5.533  0.00  0.00    -0.349 N 
HETATM   11  C   UNK N   1      30.330  16.844   5.161  0.00  0.00     0.069 C 
HETATM   12  C   UNK N   1      27.640  19.089   6.277  0.00  0.00     0.078 A 
ATOM     13  HN  UNK N   1      28.378  18.333   4.519  1.00  0.00     0.167 HD
HETATM   14  C   UNK N   1      26.543  19.842   5.614  0.00  0.00     0.089 C 
HETATM   15  N   UNK N   1      27.771  19.132   7.618  0.00  0.00    -0.332 N 
HETATM   16  C   UNK N   1      28.755  18.442   8.250  0.00  0.00     0.110 A 
ATOM     17  HN  UNK N   1      27.120  19.693   8.167  1.00  0.00     0.168 HD
BRANCH  16  18
HETATM   18  N   UNK N   1      28.840  18.515   9.657  0.00  0.00    -0.385 N 
HETATM   19  H   UNK N   1      29.712  18.413  10.104  0.00  0.00     0.157 HD
HETATM   20  H   UNK N   1      28.028  18.669  10.192  0.00  0.00     0.157 HD
ENDBRANCH  16  18
ENDBRANCH   7   8
ENDBRANCH   1   7
BRANCH   4  21
HETATM   21  C   UNK N   1      35.365  15.220   9.100  0.00  0.00     0.075 C 
BRANCH  21  22
HETATM   22  C   UNK N   1      35.919  15.768  10.399  0.00  0.00     0.185 C 
BRANCH  22  23
HETATM   23  O   UNK N   1      35.117  15.452  11.491  0.00  0.00    -0.296 OA
BRANCH  23  24
HETATM   24  P   UNK N   1      35.789  14.037  12.266  0.00  0.00     0.402 P 
HETATM   25  O   UNK N   1      36.202  15.298  13.073  0.00  0.00    -0.631 OA
BRANCH  24  26
HETATM   26  O   UNK N   1      34.073  13.819  12.083  0.00  0.00    -0.307 OA
HETATM   27  H   UNK N   1      33.200  13.836  11.659  0.00  0.00     0.222 HD
ENDBRANCH  24  26
BRANCH  24  28
HETATM   28  O   UNK N   1      35.033  13.643  13.805  0.00  0.00    -0.188 OA
BRANCH  28  29
HETATM   29  P   UNK N   1      35.608  12.094  14.380  0.00  0.00     0.414 P 
HETATM   30  O   UNK N   1      36.213  12.320  12.769  0.00  0.00    -0.624 OA
HETATM   31  O   UNK N   1      34.059  11.965  14.380  0.00  0.00    -0.624 OA
BRANCH  29  32
HETATM   32  O   UNK N   1      35.258  10.680  13.437  0.00  0.00    -0.300 OA
HETATM   33  H   UNK N   1      35.017   9.843  13.864  0.00  0.00     0.223 HD
ENDBRANCH  29  32
ENDBRANCH  28  29
ENDBRANCH  24  28
ENDBRANCH  23  24
ENDBRANCH  22  23
ENDBRANCH  21  22
ENDBRANCH   4  21
TORSDOF 11
ENDMDL
MODEL 7
REMARK VINA RESULT:      -6.4     10.585     12.335
REMARK  11 active torsions:
REMARK  status: ('A' for Active; 'I' for Inactive)
REMARK    1  A    between atoms: C_7  and  C_8 
REMARK    2  A    between atoms: C_8  and  N_9 
REMARK    3  A    between atoms: C_12  and  C_13 
REMARK    4  A    between atoms: C_13  and  C_14 
REMARK    5  A    between atoms: C_14  and  O_15 
REMARK    6  A    between atoms: P_16  and  O_15 
REMARK    7  A    between atoms: P_16  and  O_17 
REMARK    8  A    between atoms: P_16  and  O_19 
REMARK    9  A    between atoms: O_19  and  P_20 
REMARK   10  A    between atoms: P_20  and  O_21 
REMARK   11  A    between atoms: C_26  and  N_27 
ROOT
HETATM    1  N   UNK N   1      31.536  16.784   7.463  0.00  0.00    -0.349 N 
HETATM    2  C   UNK N   1      32.089  17.779   8.206  0.00  0.00     0.141 A 
HETATM    3  S   UNK N   1      33.646  17.356   8.582  0.00  0.00    -0.087 SA
HETATM    4  C   UNK N   1      33.669  15.895   7.832  0.00  0.00     0.008 A 
HETATM    5  C   UNK N   1      32.407  15.733   7.250  0.00  0.00     0.021 A 
HETATM    6  C   UNK N   1      32.017  14.500   6.495  0.00  0.00     0.069 C 
ENDROOT
BRANCH   1   7
HETATM    7  C   UNK N   1      30.165  16.699   6.940  0.00  0.00     0.173 C 
BRANCH   7   8
HETATM    8  C   UNK N   1      29.123  17.811   6.795  0.00  0.00     0.026 A 
HETATM    9  C   UNK N   1      28.327  18.438   7.798  0.00  0.00     0.018 A 
HETATM   10  N   UNK N   1      27.479  19.441   7.448  0.00  0.00    -0.349 N 
HETATM   11  C   UNK N   1      28.368  18.104   9.238  0.00  0.00     0.069 C 
HETATM   12  C   UNK N   1      27.367  19.867   6.171  0.00  0.00     0.078 A 
ATOM     13  HN  UNK N   1      26.910  19.885   8.170  1.00  0.00     0.167 HD
HETATM   14  C   UNK N   1      26.440  20.982   5.842  0.00  0.00     0.089 C 
HETATM   15  N   UNK N   1      28.106  19.297   5.197  0.00  0.00    -0.332 N 
HETATM   16  C   UNK N   1      28.972  18.288   5.473  0.00  0.00     0.110 A 
ATOM     17  HN  UNK N   1      28.012  19.629   4.237  1.00  0.00     0.168 HD
BRANCH  16  18
HETATM   18  N   UNK N   1      29.726  17.733   4.417  0.00  0.00    -0.385 N 
HETATM   19  H   UNK N   1      30.563  18.166   4.130  0.00  0.00     0.157 HD
HETATM   20  H   UNK N   1      29.416  16.914   3.967  0.00  0.00     0.157 HD
ENDBRANCH  16  18
ENDBRANCH   7   8
ENDBRANCH   1   7
BRANCH   4  21
HETATM   21  C   UNK N   1      34.762  14.898   7.872  0.00  0.00     0.075 C 
BRANCH  21  22
HETATM   22  C   UNK N   1      35.392  15.076   9.238  0.00  0.00     0.185 C 
BRANCH  22  23
HETATM   23  O   UNK N   1      34.673  14.430  10.240  0.00  0.00    -0.296 OA
BRANCH  23  24
HETATM   24  P   UNK N   1      35.790  13.990  11.511  0.00  0.00     0.402 P 
HETATM   25  O   UNK N   1      35.786  15.535  11.355  0.00  0.00    -0.631 OA
BRANCH  24  26
HETATM   26  O   UNK N   1      34.235  13.289  11.856  0.00  0.00    -0.307 OA
HETATM   27  H   UNK N   1      33.379  12.863  11.691  0.00  0.00     0.222 HD
ENDBRANCH  24  26
BRANCH  24  28
HETATM   28  O   UNK N   1      35.241  14.431  13.123  0.00  0.00    -0.188 OA
BRANCH  28  29
HETATM   29  P   UNK N   1      36.265  13.689  14.332  0.00  0.00     0.414 P 
HETATM   30  O   UNK N   1      36.765  13.100  12.778  0.00  0.00    -0.624 OA
HETATM   31  O   UNK N   1      34.830  13.202  14.677  0.00  0.00    -0.624 OA
BRANCH  29  32
HETATM   32  O   UNK N   1      36.361  11.958  14.385  0.00  0.00    -0.300 OA
HETATM   33  H   UNK N   1      35.757  11.408  13.863  0.00  0.00     0.223 HD
ENDBRANCH  29  32
ENDBRANCH  28  29
ENDBRANCH  24  28
ENDBRANCH  23  24
ENDBRANCH  22  23
ENDBRANCH  21  22
ENDBRANCH   4  21
TORSDOF 11
ENDMDL
MODEL 8
REMARK VINA RESULT:      -6.3     10.898     12.729
REMARK  11 active torsions:
REMARK  status: ('A' for Active; 'I' for Inactive)
REMARK    1  A    between atoms: C_7  and  C_8 
REMARK    2  A    between atoms: C_8  and  N_9 
REMARK    3  A    between atoms: C_12  and  C_13 
REMARK    4  A    between atoms: C_13  and  C_14 
REMARK    5  A    between atoms: C_14  and  O_15 
REMARK    6  A    between atoms: P_16  and  O_15 
REMARK    7  A    between atoms: P_16  and  O_17 
REMARK    8  A    between atoms: P_16  and  O_19 
REMARK    9  A    between atoms: O_19  and  P_20 
REMARK   10  A    between atoms: P_20  and  O_21 
REMARK   11  A    between atoms: C_26  and  N_27 
ROOT
HETATM    1  N   UNK N   1      33.931  16.409   6.708  0.00  0.00    -0.349 N 
HETATM    2  C   UNK N   1      34.426  15.143   6.671  0.00  0.00     0.141 A 
HETATM    3  S   UNK N   1      35.133  14.809   8.131  0.00  0.00    -0.087 SA
HETATM    4  C   UNK N   1      34.853  16.257   8.853  0.00  0.00     0.008 A 
HETATM    5  C   UNK N   1      34.164  17.035   7.917  0.00  0.00     0.021 A 
HETATM    6  C   UNK N   1      33.752  18.450   8.188  0.00  0.00     0.069 C 
ENDROOT
BRANCH   1   7
HETATM    7  C   UNK N   1      33.261  17.151   5.631  0.00  0.00     0.173 C 
BRANCH   7   8
HETATM    8  C   UNK N   1      31.819  17.023   5.131  0.00  0.00     0.026 A 
HETATM    9  C   UNK N   1      30.600  17.087   5.867  0.00  0.00     0.018 A 
HETATM   10  N   UNK N   1      29.416  16.982   5.208  0.00  0.00    -0.349 N 
HETATM   11  C   UNK N   1      30.507  17.298   7.327  0.00  0.00     0.069 C 
HETATM   12  C   UNK N   1      29.357  16.819   3.868  0.00  0.00     0.078 A 
ATOM     13  HN  UNK N   1      28.546  17.026   5.740  1.00  0.00     0.167 HD
HETATM   14  C   UNK N   1      28.036  16.729   3.191  0.00  0.00     0.089 C 
HETATM   15  N   UNK N   1      30.491  16.756   3.141  0.00  0.00    -0.332 N 
HETATM   16  C   UNK N   1      31.710  16.851   3.732  0.00  0.00     0.110 A 
ATOM     17  HN  UNK N   1      30.432  16.633   2.130  1.00  0.00     0.168 HD
BRANCH  16  18
HETATM   18  N   UNK N   1      32.864  16.787   2.922  0.00  0.00    -0.385 N 
HETATM   19  H   UNK N   1      33.647  17.345   3.135  0.00  0.00     0.157 HD
HETATM   20  H   UNK N   1      32.886  16.184   2.143  0.00  0.00     0.157 HD
ENDBRANCH  16  18
ENDBRANCH   7   8
ENDBRANCH   1   7
BRANCH   4  21
HETATM   21  C   UNK N   1      35.342  16.692  10.181  0.00  0.00     0.075 C 
BRANCH  21  22
HETATM   22  C   UNK N   1      35.026  15.533  11.103  0.00  0.00     0.185 C 
BRANCH  22  23
HETATM   23  O   UNK N   1      35.952  15.411  12.135  0.00  0.00    -0.296 OA
BRANCH  23  24
HETATM   24  P   UNK N   1      35.947  13.748  12.674  0.00  0.00     0.402 P 
HETATM   25  O   UNK N   1      36.373  14.660  13.856  0.00  0.00    -0.631 OA
BRANCH  24  26
HETATM   26  O   UNK N   1      34.394  14.124  11.986  0.00  0.00    -0.307 OA
HETATM   27  H   UNK N   1      33.732  14.585  11.446  0.00  0.00     0.222 HD
ENDBRANCH  24  26
BRANCH  24  28
HETATM   28  O   UNK N   1      34.649  13.370  13.799  0.00  0.00    -0.188 OA
BRANCH  28  29
HETATM   29  P   UNK N   1      35.027  11.910  14.687  0.00  0.00     0.414 P 
HETATM   30  O   UNK N   1      34.278  11.444  13.192  0.00  0.00    -0.624 OA
HETATM   31  O   UNK N   1      34.027  12.678  15.595  0.00  0.00    -0.624 OA
BRANCH  29  32
HETATM   32  O   UNK N   1      33.746  10.789  15.019  0.00  0.00    -0.300 OA
HETATM   33  H   UNK N   1      33.570  10.485  15.923  0.00  0.00     0.223 HD
ENDBRANCH  29  32
ENDBRANCH  28  29
ENDBRANCH  24  28
ENDBRANCH  23  24
ENDBRANCH  22  23
ENDBRANCH  21  22
ENDBRANCH   4  21
TORSDOF 11
ENDMDL
MODEL 9
REMARK VINA RESULT:      -6.3     10.190     11.883
REMARK  11 active torsions:
REMARK  status: ('A' for Active; 'I' for Inactive)
REMARK    1  A    between atoms: C_7  and  C_8 
REMARK    2  A    between atoms: C_8  and  N_9 
REMARK    3  A    between atoms: C_12  and  C_13 
REMARK    4  A    between atoms: C_13  and  C_14 
REMARK    5  A    between atoms: C_14  and  O_15 
REMARK    6  A    between atoms: P_16  and  O_15 
REMARK    7  A    between atoms: P_16  and  O_17 
REMARK    8  A    between atoms: P_16  and  O_19 
REMARK    9  A    between atoms: O_19  and  P_20 
REMARK   10  A    between atoms: P_20  and  O_21 
REMARK   11  A    between atoms: C_26  and  N_27 
ROOT
HETATM    1  N   UNK N   1      31.456  16.880   7.217  0.00  0.00    -0.349 N 
HETATM    2  C   UNK N   1      31.992  17.556   8.267  0.00  0.00     0.141 A 
HETATM    3  S   UNK N   1      33.622  17.264   8.308  0.00  0.00    -0.087 SA
HETATM    4  C   UNK N   1      33.703  16.261   7.012  0.00  0.00     0.008 A 
HETATM    5  C   UNK N   1      32.400  16.157   6.514  0.00  0.00     0.021 A 
HETATM    6  C   UNK N   1      32.049  15.296   5.339  0.00  0.00     0.069 C 
ENDROOT
BRANCH   1   7
HETATM    7  C   UNK N   1      30.045  16.804   6.813  0.00  0.00     0.173 C 
BRANCH   7   8
HETATM    8  C   UNK N   1      29.007  17.927   6.736  0.00  0.00     0.026 A 
HETATM    9  C   UNK N   1      28.263  18.542   7.785  0.00  0.00     0.018 A 
HETATM   10  N   UNK N   1      27.410  19.559   7.492  0.00  0.00    -0.349 N 
HETATM   11  C   UNK N   1      28.368  18.183   9.215  0.00  0.00     0.069 C 
HETATM   12  C   UNK N   1      27.244  20.009   6.229  0.00  0.00     0.078 A 
ATOM     13  HN  UNK N   1      26.879  19.994   8.246  1.00  0.00     0.167 HD
HETATM   14  C   UNK N   1      26.313  21.137   5.962  0.00  0.00     0.089 C 
HETATM   15  N   UNK N   1      27.932  19.450   5.212  0.00  0.00    -0.332 N 
HETATM   16  C   UNK N   1      28.800  18.429   5.431  0.00  0.00     0.110 A 
ATOM     17  HN  UNK N   1      27.797  19.800   4.264  1.00  0.00     0.168 HD
BRANCH  16  18
HETATM   18  N   UNK N   1      29.501  17.887   4.331  0.00  0.00    -0.385 N 
HETATM   19  H   UNK N   1      30.087  18.463   3.789  0.00  0.00     0.157 HD
HETATM   20  H   UNK N   1      29.402  16.934   4.106  0.00  0.00     0.157 HD
ENDBRANCH  16  18
ENDBRANCH   7   8
ENDBRANCH   1   7
BRANCH   4  21
HETATM   21  C   UNK N   1      34.893  15.517   6.542  0.00  0.00     0.075 C 
BRANCH  21  22
HETATM   22  C   UNK N   1      34.825  14.189   7.267  0.00  0.00     0.185 C 
BRANCH  22  23
HETATM   23  O   UNK N   1      35.520  14.208   8.472  0.00  0.00    -0.296 OA
BRANCH  23  24
HETATM   24  P   UNK N   1      34.473  13.559   9.712  0.00  0.00     0.402 P 
HETATM   25  O   UNK N   1      35.324  12.405   9.117  0.00  0.00    -0.631 OA
BRANCH  24  26
HETATM   26  O   UNK N   1      35.395  14.874  10.382  0.00  0.00    -0.307 OA
HETATM   27  H   UNK N   1      36.114  15.520  10.472  0.00  0.00     0.222 HD
ENDBRANCH  24  26
BRANCH  24  28
HETATM   28  O   UNK N   1      35.321  13.059  11.169  0.00  0.00    -0.188 OA
BRANCH  28  29
HETATM   29  P   UNK N   1      35.945  14.458  12.014  0.00  0.00     0.414 P 
HETATM   30  O   UNK N   1      37.273  13.382  11.717  0.00  0.00    -0.624 OA
HETATM   31  O   UNK N   1      34.924  13.825  13.000  0.00  0.00    -0.624 OA
BRANCH  29  32
HETATM   32  O   UNK N   1      36.818  14.211  13.492  0.00  0.00    -0.300 OA
HETATM   33  H   UNK N   1      37.721  13.857  13.486  0.00  0.00     0.223 HD
ENDBRANCH  29  32
ENDBRANCH  28  29
ENDBRANCH  24  28
ENDBRANCH  23  24
ENDBRANCH  22  23
ENDBRANCH  21  22
ENDBRANCH   4  21
TORSDOF 11
ENDMDL
