MODEL 1
REMARK VINA RESULT:      -6.8      0.000      0.000
REMARK  6 active torsions:
REMARK  status: ('A' for Active; 'I' for Inactive)
REMARK    1  A    between atoms: O_1  and  C_4 
REMARK    2  A    between atoms: O_1  and  C_14 
REMARK    3  A    between atoms: N_3  and  C_10 
REMARK    4  A    between atoms: C_4  and  C_9 
REMARK    5  A    between atoms: C_10  and  C_11 
REMARK    6  A    between atoms: C_11  and  C_15 
ROOT
HETATM    1  N   UNK N   1      28.766  24.224  -3.925  0.00  0.00    -0.412 N 
HETATM    2  C   UNK N   1      26.516  25.288  -5.522  0.00  0.00     0.101 C 
HETATM    3  C   UNK N   1      27.811  24.763  -6.166  0.00  0.00     0.063 C 
HETATM    4  C   UNK N   1      26.286  24.447  -4.261  0.00  0.00     0.063 C 
HETATM    5  C   UNK N   1      29.010  24.859  -5.225  0.00  0.00     0.120 C 
HETATM    6  C   UNK N   1      27.468  24.487  -3.283  0.00  0.00     0.120 C 
ENDROOT
BRANCH   2   7
HETATM    7  O   UNK N   1      25.441  25.031  -6.371  0.00  0.00    -0.305 OA
BRANCH   7   8
HETATM    8  C   UNK N   1      25.517  24.684  -7.688  0.00  0.00     0.255 C 
HETATM    9  O   UNK N   1      25.281  23.541  -8.055  0.00  0.00    -0.266 OA
HETATM   10  C   UNK N   1      25.900  25.710  -8.696  0.00  0.00     0.126 C 
ENDBRANCH   7   8
ENDBRANCH   2   7
BRANCH   2  11
HETATM   11  C   UNK N   1      26.581  26.788  -5.175  0.00  0.00    -0.023 A 
HETATM   12  C   UNK N   1      25.898  27.298  -4.054  0.00  0.00     0.010 A 
HETATM   13  C   UNK N   1      25.972  28.655  -3.727  0.00  0.00     0.001 A 
HETATM   14  C   UNK N   1      26.736  29.523  -4.509  0.00  0.00     0.000 A 
HETATM   15  C   UNK N   1      27.423  29.036  -5.620  0.00  0.00     0.001 A 
HETATM   16  C   UNK N   1      27.346  27.680  -5.950  0.00  0.00     0.010 A 
ENDBRANCH   2  11
BRANCH   1  17
HETATM   17  C   UNK N   1      29.240  22.843  -3.852  0.00  0.00     0.121 C 
BRANCH  17  18
HETATM   18  C   UNK N   1      30.317  22.613  -2.799  0.00  0.00     0.058 C 
BRANCH  18  19
HETATM   19  C   UNK N   1      31.336  21.660  -3.332  0.00  0.00    -0.057 A 
HETATM   20  C   UNK N   1      31.019  20.793  -4.389  0.00  0.00     0.007 A 
HETATM   21  C   UNK N   1      31.974  19.890  -4.867  0.00  0.00     0.001 A 
HETATM   22  C   UNK N   1      33.249  19.854  -4.297  0.00  0.00     0.000 A 
HETATM   23  C   UNK N   1      33.571  20.723  -3.249  0.00  0.00     0.001 A 
HETATM   24  C   UNK N   1      32.615  21.622  -2.765  0.00  0.00     0.007 A 
ENDBRANCH  18  19
ENDBRANCH  17  18
ENDBRANCH   1  17
TORSDOF 6
ENDMDL
MODEL 2
REMARK VINA RESULT:      -6.7      2.277      7.211
REMARK  6 active torsions:
REMARK  status: ('A' for Active; 'I' for Inactive)
REMARK    1  A    between atoms: O_1  and  C_4 
REMARK    2  A    between atoms: O_1  and  C_14 
REMARK    3  A    between atoms: N_3  and  C_10 
REMARK    4  A    between atoms: C_4  and  C_9 
REMARK    5  A    between atoms: C_10  and  C_11 
REMARK    6  A    between atoms: C_11  and  C_15 
ROOT
HETATM    1  N   UNK N   1      26.835  24.442  -6.346  0.00  0.00    -0.412 N 
HETATM    2  C   UNK N   1      29.102  24.622  -4.455  0.00  0.00     0.101 C 
HETATM    3  C   UNK N   1      29.097  25.348  -5.811  0.00  0.00     0.063 C 
HETATM    4  C   UNK N   1      27.647  24.594  -3.972  0.00  0.00     0.063 C 
HETATM    5  C   UNK N   1      28.199  24.660  -6.837  0.00  0.00     0.120 C 
HETATM    6  C   UNK N   1      26.690  23.931  -4.973  0.00  0.00     0.120 C 
ENDROOT
BRANCH   2   7
HETATM    7  O   UNK N   1      29.812  25.382  -3.527  0.00  0.00    -0.305 OA
BRANCH   7   8
HETATM    8  C   UNK N   1      30.825  26.253  -3.801  0.00  0.00     0.255 C 
HETATM    9  O   UNK N   1      31.895  25.859  -4.244  0.00  0.00    -0.266 OA
HETATM   10  C   UNK N   1      30.628  27.707  -3.553  0.00  0.00     0.126 C 
ENDBRANCH   7   8
ENDBRANCH   2   7
BRANCH   2  11
HETATM   11  C   UNK N   1      29.678  23.195  -4.536  0.00  0.00    -0.023 A 
HETATM   12  C   UNK N   1      30.044  22.636  -5.775  0.00  0.00     0.010 A 
HETATM   13  C   UNK N   1      30.585  21.349  -5.848  0.00  0.00     0.001 A 
HETATM   14  C   UNK N   1      30.778  20.603  -4.683  0.00  0.00     0.000 A 
HETATM   15  C   UNK N   1      30.426  21.143  -3.447  0.00  0.00     0.001 A 
HETATM   16  C   UNK N   1      29.881  22.427  -3.374  0.00  0.00     0.010 A 
ENDBRANCH   2  11
BRANCH   1  17
HETATM   17  C   UNK N   1      25.900  25.499  -6.729  0.00  0.00     0.121 C 
BRANCH  17  18
HETATM   18  C   UNK N   1      25.191  26.155  -5.551  0.00  0.00     0.058 C 
BRANCH  18  19
HETATM   19  C   UNK N   1      25.885  27.431  -5.202  0.00  0.00    -0.057 A 
HETATM   20  C   UNK N   1      26.805  28.009  -6.090  0.00  0.00     0.007 A 
HETATM   21  C   UNK N   1      27.464  29.194  -5.745  0.00  0.00     0.001 A 
HETATM   22  C   UNK N   1      27.202  29.807  -4.517  0.00  0.00     0.000 A 
HETATM   23  C   UNK N   1      26.279  29.238  -3.634  0.00  0.00     0.001 A 
HETATM   24  C   UNK N   1      25.623  28.049  -3.974  0.00  0.00     0.007 A 
ENDBRANCH  18  19
ENDBRANCH  17  18
ENDBRANCH   1  17
TORSDOF 6
ENDMDL
MODEL 3
REMARK VINA RESULT:      -6.6      1.773      2.506
REMARK  6 active torsions:
REMARK  status: ('A' for Active; 'I' for Inactive)
REMARK    1  A    between atoms: O_1  and  C_4 
REMARK    2  A    between atoms: O_1  and  C_14 
REMARK    3  A    between atoms: N_3  and  C_10 
REMARK    4  A    between atoms: C_4  and  C_9 
REMARK    5  A    between atoms: C_10  and  C_11 
REMARK    6  A    between atoms: C_11  and  C_15 
ROOT
HETATM    1  N   UNK N   1      28.750  24.282  -4.307  0.00  0.00    -0.412 N 
HETATM    2  C   UNK N   1      26.515  25.462  -5.842  0.00  0.00     0.101 C 
HETATM    3  C   UNK N   1      27.833  25.026  -6.504  0.00  0.00     0.063 C 
HETATM    4  C   UNK N   1      26.274  24.496  -4.676  0.00  0.00     0.063 C 
HETATM    5  C   UNK N   1      29.009  25.047  -5.532  0.00  0.00     0.120 C 
HETATM    6  C   UNK N   1      27.434  24.457  -3.673  0.00  0.00     0.120 C 
ENDROOT
BRANCH   2   7
HETATM    7  O   UNK N   1      25.463  25.273  -6.737  0.00  0.00    -0.305 OA
BRANCH   7   8
HETATM    8  C   UNK N   1      25.574  24.945  -8.056  0.00  0.00     0.255 C 
HETATM    9  O   UNK N   1      25.500  23.781  -8.426  0.00  0.00    -0.266 OA
HETATM   10  C   UNK N   1      25.796  26.018  -9.063  0.00  0.00     0.126 C 
ENDBRANCH   7   8
ENDBRANCH   2   7
BRANCH   2  11
HETATM   11  C   UNK N   1      26.543  26.921  -5.346  0.00  0.00    -0.023 A 
HETATM   12  C   UNK N   1      25.843  27.300  -4.185  0.00  0.00     0.010 A 
HETATM   13  C   UNK N   1      25.884  28.619  -3.723  0.00  0.00     0.001 A 
HETATM   14  C   UNK N   1      26.633  29.578  -4.408  0.00  0.00     0.000 A 
HETATM   15  C   UNK N   1      27.336  29.220  -5.557  0.00  0.00     0.001 A 
HETATM   16  C   UNK N   1      27.292  27.903  -6.021  0.00  0.00     0.010 A 
ENDBRANCH   2  11
BRANCH   1  17
HETATM   17  C   UNK N   1      29.249  22.908  -4.361  0.00  0.00     0.121 C 
BRANCH  17  18
HETATM   18  C   UNK N   1      30.293  22.671  -5.444  0.00  0.00     0.058 C 
BRANCH  18  19
HETATM   19  C   UNK N   1      29.844  21.555  -6.330  0.00  0.00    -0.057 A 
HETATM   20  C   UNK N   1      30.585  20.366  -6.411  0.00  0.00     0.007 A 
HETATM   21  C   UNK N   1      30.166  19.335  -7.259  0.00  0.00     0.001 A 
HETATM   22  C   UNK N   1      29.005  19.485  -8.022  0.00  0.00     0.000 A 
HETATM   23  C   UNK N   1      28.260  20.666  -7.936  0.00  0.00     0.001 A 
HETATM   24  C   UNK N   1      28.681  21.701  -7.094  0.00  0.00     0.007 A 
ENDBRANCH  18  19
ENDBRANCH  17  18
ENDBRANCH   1  17
TORSDOF 6
ENDMDL
MODEL 4
REMARK VINA RESULT:      -6.6     14.694     16.275
REMARK  6 active torsions:
REMARK  status: ('A' for Active; 'I' for Inactive)
REMARK    1  A    between atoms: O_1  and  C_4 
REMARK    2  A    between atoms: O_1  and  C_14 
REMARK    3  A    between atoms: N_3  and  C_10 
REMARK    4  A    between atoms: C_4  and  C_9 
REMARK    5  A    between atoms: C_10  and  C_11 
REMARK    6  A    between atoms: C_11  and  C_15 
ROOT
HETATM    1  N   UNK N   1      21.433  15.061   6.316  0.00  0.00    -0.412 N 
HETATM    2  C   UNK N   1      21.476  16.778   3.908  0.00  0.00     0.101 C 
HETATM    3  C   UNK N   1      20.267  16.715   4.857  0.00  0.00     0.063 C 
HETATM    4  C   UNK N   1      22.722  16.574   4.778  0.00  0.00     0.063 C 
HETATM    5  C   UNK N   1      20.188  15.391   5.614  0.00  0.00     0.120 C 
HETATM    6  C   UNK N   1      22.691  15.266   5.581  0.00  0.00     0.120 C 
ENDROOT
BRANCH   2   7
HETATM    7  O   UNK N   1      21.574  18.060   3.370  0.00  0.00    -0.305 OA
BRANCH   7   8
HETATM    8  C   UNK N   1      20.671  19.070   3.519  0.00  0.00     0.255 C 
HETATM    9  O   UNK N   1      20.794  19.902   4.407  0.00  0.00    -0.266 OA
HETATM   10  C   UNK N   1      19.510  19.159   2.591  0.00  0.00     0.126 C 
ENDBRANCH   7   8
ENDBRANCH   2   7
BRANCH   2  11
HETATM   11  C   UNK N   1      21.416  15.725   2.784  0.00  0.00    -0.023 A 
HETATM   12  C   UNK N   1      20.188  15.368   2.196  0.00  0.00     0.010 A 
HETATM   13  C   UNK N   1      20.135  14.428   1.163  0.00  0.00     0.001 A 
HETATM   14  C   UNK N   1      21.309  13.835   0.695  0.00  0.00     0.000 A 
HETATM   15  C   UNK N   1      22.535  14.180   1.262  0.00  0.00     0.001 A 
HETATM   16  C   UNK N   1      22.588  15.116   2.297  0.00  0.00     0.010 A 
ENDBRANCH   2  11
BRANCH   1  17
HETATM   17  C   UNK N   1      21.442  15.479   7.717  0.00  0.00     0.121 C 
BRANCH  17  18
HETATM   18  C   UNK N   1      20.417  14.760   8.584  0.00  0.00     0.058 C 
BRANCH  18  19
HETATM   19  C   UNK N   1      21.120  13.820   9.507  0.00  0.00    -0.057 A 
HETATM   20  C   UNK N   1      20.405  13.109  10.484  0.00  0.00     0.007 A 
HETATM   21  C   UNK N   1      21.077  12.246  11.356  0.00  0.00     0.001 A 
HETATM   22  C   UNK N   1      22.461  12.085  11.251  0.00  0.00     0.000 A 
HETATM   23  C   UNK N   1      23.174  12.785  10.273  0.00  0.00     0.001 A 
HETATM   24  C   UNK N   1      22.506  13.653   9.404  0.00  0.00     0.007 A 
ENDBRANCH  18  19
ENDBRANCH  17  18
ENDBRANCH   1  17
TORSDOF 6
ENDMDL
MODEL 5
REMARK VINA RESULT:      -6.6     18.147     22.008
REMARK  6 active torsions:
REMARK  status: ('A' for Active; 'I' for Inactive)
REMARK    1  A    between atoms: O_1  and  C_4 
REMARK    2  A    between atoms: O_1  and  C_14 
REMARK    3  A    between atoms: N_3  and  C_10 
REMARK    4  A    between atoms: C_4  and  C_9 
REMARK    5  A    between atoms: C_10  and  C_11 
REMARK    6  A    between atoms: C_11  and  C_15 
ROOT
HETATM    1  N   UNK N   1      36.374  12.001  12.601  0.00  0.00    -0.412 N 
HETATM    2  C   UNK N   1      36.009  14.020  10.471  0.00  0.00     0.101 C 
HETATM    3  C   UNK N   1      35.159  14.008  11.753  0.00  0.00     0.063 C 
HETATM    4  C   UNK N   1      37.398  13.503  10.866  0.00  0.00     0.063 C 
HETATM    5  C   UNK N   1      35.062  12.617  12.376  0.00  0.00     0.120 C 
HETATM    6  C   UNK N   1      37.363  12.114  11.518  0.00  0.00     0.120 C 
ENDROOT
BRANCH   2   7
HETATM    7  O   UNK N   1      36.183  15.335  10.045  0.00  0.00    -0.305 OA
BRANCH   7   8
HETATM    8  C   UNK N   1      35.261  16.337  10.117  0.00  0.00     0.255 C 
HETATM    9  O   UNK N   1      35.309  17.178  11.004  0.00  0.00    -0.266 OA
HETATM   10  C   UNK N   1      34.171  16.404   9.105  0.00  0.00     0.126 C 
ENDBRANCH   7   8
ENDBRANCH   2   7
BRANCH   2  11
HETATM   11  C   UNK N   1      35.408  13.162   9.341  0.00  0.00    -0.023 A 
HETATM   12  C   UNK N   1      34.056  12.774   9.373  0.00  0.00     0.010 A 
HETATM   13  C   UNK N   1      33.504  12.013   8.338  0.00  0.00     0.001 A 
HETATM   14  C   UNK N   1      34.294  11.634   7.250  0.00  0.00     0.000 A 
HETATM   15  C   UNK N   1      35.634  12.014   7.199  0.00  0.00     0.001 A 
HETATM   16  C   UNK N   1      36.186  12.771   8.235  0.00  0.00     0.010 A 
ENDBRANCH   2  11
BRANCH   1  17
HETATM   17  C   UNK N   1      36.891  12.206  13.954  0.00  0.00     0.121 C 
BRANCH  17  18
HETATM   18  C   UNK N   1      35.812  12.252  15.028  0.00  0.00     0.058 C 
BRANCH  18  19
HETATM   19  C   UNK N   1      36.059  13.416  15.931  0.00  0.00    -0.057 A 
HETATM   20  C   UNK N   1      36.987  14.407  15.579  0.00  0.00     0.007 A 
HETATM   21  C   UNK N   1      37.226  15.483  16.441  0.00  0.00     0.001 A 
HETATM   22  C   UNK N   1      36.533  15.575  17.651  0.00  0.00     0.000 A 
HETATM   23  C   UNK N   1      35.600  14.593  18.000  0.00  0.00     0.001 A 
HETATM   24  C   UNK N   1      35.366  13.513  17.142  0.00  0.00     0.007 A 
ENDBRANCH  18  19
ENDBRANCH  17  18
ENDBRANCH   1  17
TORSDOF 6
ENDMDL
MODEL 6
REMARK VINA RESULT:      -6.4      2.566      7.358
REMARK  6 active torsions:
REMARK  status: ('A' for Active; 'I' for Inactive)
REMARK    1  A    between atoms: O_1  and  C_4 
REMARK    2  A    between atoms: O_1  and  C_14 
REMARK    3  A    between atoms: N_3  and  C_10 
REMARK    4  A    between atoms: C_4  and  C_9 
REMARK    5  A    between atoms: C_10  and  C_11 
REMARK    6  A    between atoms: C_11  and  C_15 
ROOT
HETATM    1  N   UNK N   1      27.705  24.480  -8.649  0.00  0.00    -0.412 N 
HETATM    2  C   UNK N   1      28.388  23.148  -6.098  0.00  0.00     0.101 C 
HETATM    3  C   UNK N   1      29.146  24.383  -6.614  0.00  0.00     0.063 C 
HETATM    4  C   UNK N   1      26.936  23.302  -6.566  0.00  0.00     0.063 C 
HETATM    5  C   UNK N   1      29.078  24.515  -8.134  0.00  0.00     0.120 C 
HETATM    6  C   UNK N   1      26.804  23.460  -8.087  0.00  0.00     0.120 C 
ENDROOT
BRANCH   2   7
HETATM    7  O   UNK N   1      28.359  23.173  -4.704  0.00  0.00    -0.305 OA
BRANCH   7   8
HETATM    8  C   UNK N   1      28.506  24.273  -3.913  0.00  0.00     0.255 C 
HETATM    9  O   UNK N   1      29.601  24.592  -3.471  0.00  0.00    -0.266 OA
HETATM   10  C   UNK N   1      27.313  25.098  -3.574  0.00  0.00     0.126 C 
ENDBRANCH   7   8
ENDBRANCH   2   7
BRANCH   2  11
HETATM   11  C   UNK N   1      28.986  21.819  -6.600  0.00  0.00    -0.023 A 
HETATM   12  C   UNK N   1      28.288  21.020  -7.525  0.00  0.00     0.010 A 
HETATM   13  C   UNK N   1      28.838  19.824  -7.996  0.00  0.00     0.001 A 
HETATM   14  C   UNK N   1      30.098  19.412  -7.558  0.00  0.00     0.000 A 
HETATM   15  C   UNK N   1      30.806  20.194  -6.646  0.00  0.00     0.001 A 
HETATM   16  C   UNK N   1      30.255  21.386  -6.171  0.00  0.00     0.010 A 
ENDBRANCH   2  11
BRANCH   1  17
HETATM   17  C   UNK N   1      27.119  25.806  -8.839  0.00  0.00     0.121 C 
BRANCH  17  18
HETATM   18  C   UNK N   1      25.795  26.007  -8.113  0.00  0.00     0.058 C 
BRANCH  18  19
HETATM   19  C   UNK N   1      26.008  26.891  -6.929  0.00  0.00    -0.057 A 
HETATM   20  C   UNK N   1      25.042  26.971  -5.914  0.00  0.00     0.007 A 
HETATM   21  C   UNK N   1      25.242  27.817  -4.818  0.00  0.00     0.001 A 
HETATM   22  C   UNK N   1      26.410  28.579  -4.729  0.00  0.00     0.000 A 
HETATM   23  C   UNK N   1      27.379  28.494  -5.734  0.00  0.00     0.001 A 
HETATM   24  C   UNK N   1      27.177  27.654  -6.834  0.00  0.00     0.007 A 
ENDBRANCH  18  19
ENDBRANCH  17  18
ENDBRANCH   1  17
TORSDOF 6
ENDMDL
MODEL 7
REMARK VINA RESULT:      -6.4      1.966      7.115
REMARK  6 active torsions:
REMARK  status: ('A' for Active; 'I' for Inactive)
REMARK    1  A    between atoms: O_1  and  C_4 
REMARK    2  A    between atoms: O_1  and  C_14 
REMARK    3  A    between atoms: N_3  and  C_10 
REMARK    4  A    between atoms: C_4  and  C_9 
REMARK    5  A    between atoms: C_10  and  C_11 
REMARK    6  A    between atoms: C_11  and  C_15 
ROOT
HETATM    1  N   UNK N   1      29.916  26.046  -7.092  0.00  0.00    -0.412 N 
HETATM    2  C   UNK N   1      28.710  24.091  -5.229  0.00  0.00     0.101 C 
HETATM    3  C   UNK N   1      29.183  25.482  -4.775  0.00  0.00     0.063 C 
HETATM    4  C   UNK N   1      28.209  24.252  -6.669  0.00  0.00     0.063 C 
HETATM    5  C   UNK N   1      30.283  26.046  -5.672  0.00  0.00     0.120 C 
HETATM    6  C   UNK N   1      29.265  24.835  -7.617  0.00  0.00     0.120 C 
ENDROOT
BRANCH   2   7
HETATM    7  O   UNK N   1      27.609  23.705  -4.467  0.00  0.00    -0.305 OA
BRANCH   7   8
HETATM    8  C   UNK N   1      27.371  24.039  -3.166  0.00  0.00     0.255 C 
HETATM    9  O   UNK N   1      26.542  24.890  -2.874  0.00  0.00    -0.266 OA
HETATM   10  C   UNK N   1      28.136  23.362  -2.083  0.00  0.00     0.126 C 
ENDBRANCH   7   8
ENDBRANCH   2   7
BRANCH   2  11
HETATM   11  C   UNK N   1      29.818  23.022  -5.153  0.00  0.00    -0.023 A 
HETATM   12  C   UNK N   1      30.997  23.258  -4.421  0.00  0.00     0.010 A 
HETATM   13  C   UNK N   1      31.994  22.282  -4.335  0.00  0.00     0.001 A 
HETATM   14  C   UNK N   1      31.826  21.051  -4.972  0.00  0.00     0.000 A 
HETATM   15  C   UNK N   1      30.663  20.798  -5.698  0.00  0.00     0.001 A 
HETATM   16  C   UNK N   1      29.668  21.775  -5.788  0.00  0.00     0.010 A 
ENDBRANCH   2  11
BRANCH   1  17
HETATM   17  C   UNK N   1      29.352  27.316  -7.549  0.00  0.00     0.121 C 
BRANCH  17  18
HETATM   18  C   UNK N   1      27.871  27.244  -7.898  0.00  0.00     0.058 C 
BRANCH  18  19
HETATM   19  C   UNK N   1      27.060  27.620  -6.701  0.00  0.00    -0.057 A 
HETATM   20  C   UNK N   1      27.463  28.677  -5.869  0.00  0.00     0.007 A 
HETATM   21  C   UNK N   1      26.708  29.008  -4.739  0.00  0.00     0.001 A 
HETATM   22  C   UNK N   1      25.546  28.292  -4.441  0.00  0.00     0.000 A 
HETATM   23  C   UNK N   1      25.137  27.245  -5.274  0.00  0.00     0.001 A 
HETATM   24  C   UNK N   1      25.895  26.907  -6.400  0.00  0.00     0.007 A 
ENDBRANCH  18  19
ENDBRANCH  17  18
ENDBRANCH   1  17
TORSDOF 6
ENDMDL
MODEL 8
REMARK VINA RESULT:      -6.4      1.782      6.941
REMARK  6 active torsions:
REMARK  status: ('A' for Active; 'I' for Inactive)
REMARK    1  A    between atoms: O_1  and  C_4 
REMARK    2  A    between atoms: O_1  and  C_14 
REMARK    3  A    between atoms: N_3  and  C_10 
REMARK    4  A    between atoms: C_4  and  C_9 
REMARK    5  A    between atoms: C_10  and  C_11 
REMARK    6  A    between atoms: C_11  and  C_15 
ROOT
HETATM    1  N   UNK N   1      30.159  26.299  -6.062  0.00  0.00    -0.412 N 
HETATM    2  C   UNK N   1      28.223  24.338  -4.989  0.00  0.00     0.101 C 
HETATM    3  C   UNK N   1      28.689  25.565  -4.185  0.00  0.00     0.063 C 
HETATM    4  C   UNK N   1      28.211  24.764  -6.462  0.00  0.00     0.063 C 
HETATM    5  C   UNK N   1      30.069  26.055  -4.618  0.00  0.00     0.120 C 
HETATM    6  C   UNK N   1      29.568  25.287  -6.951  0.00  0.00     0.120 C 
ENDROOT
BRANCH   2   7
HETATM    7  O   UNK N   1      26.904  24.040  -4.652  0.00  0.00    -0.305 OA
BRANCH   7   8
HETATM    8  C   UNK N   1      25.842  23.998  -5.506  0.00  0.00     0.255 C 
HETATM    9  O   UNK N   1      25.065  24.939  -5.595  0.00  0.00    -0.266 OA
HETATM   10  C   UNK N   1      25.618  22.785  -6.340  0.00  0.00     0.126 C 
ENDBRANCH   7   8
ENDBRANCH   2   7
BRANCH   2  11
HETATM   11  C   UNK N   1      29.123  23.105  -4.783  0.00  0.00    -0.023 A 
HETATM   12  C   UNK N   1      29.368  22.208  -5.840  0.00  0.00     0.010 A 
HETATM   13  C   UNK N   1      30.201  21.099  -5.661  0.00  0.00     0.001 A 
HETATM   14  C   UNK N   1      30.809  20.873  -4.424  0.00  0.00     0.000 A 
HETATM   15  C   UNK N   1      30.581  21.753  -3.367  0.00  0.00     0.001 A 
HETATM   16  C   UNK N   1      29.746  22.859  -3.545  0.00  0.00     0.010 A 
ENDBRANCH   2  11
BRANCH   1  17
HETATM   17  C   UNK N   1      29.913  27.691  -6.435  0.00  0.00     0.121 C 
BRANCH  17  18
HETATM   18  C   UNK N   1      28.496  27.958  -6.929  0.00  0.00     0.058 C 
BRANCH  18  19
HETATM   19  C   UNK N   1      27.731  28.683  -5.871  0.00  0.00    -0.057 A 
HETATM   20  C   UNK N   1      28.114  29.973  -5.470  0.00  0.00     0.007 A 
HETATM   21  C   UNK N   1      27.402  30.636  -4.465  0.00  0.00     0.001 A 
HETATM   22  C   UNK N   1      26.303  30.017  -3.863  0.00  0.00     0.000 A 
HETATM   23  C   UNK N   1      25.914  28.736  -4.267  0.00  0.00     0.001 A 
HETATM   24  C   UNK N   1      26.629  28.068  -5.268  0.00  0.00     0.007 A 
ENDBRANCH  18  19
ENDBRANCH  17  18
ENDBRANCH   1  17
TORSDOF 6
ENDMDL
MODEL 9
REMARK VINA RESULT:      -6.3     13.298     15.144
REMARK  6 active torsions:
REMARK  status: ('A' for Active; 'I' for Inactive)
REMARK    1  A    between atoms: O_1  and  C_4 
REMARK    2  A    between atoms: O_1  and  C_14 
REMARK    3  A    between atoms: N_3  and  C_10 
REMARK    4  A    between atoms: C_4  and  C_9 
REMARK    5  A    between atoms: C_10  and  C_11 
REMARK    6  A    between atoms: C_11  and  C_15 
ROOT
HETATM    1  N   UNK N   1      24.693  15.520   6.507  0.00  0.00    -0.412 N 
HETATM    2  C   UNK N   1      25.875  15.996   3.838  0.00  0.00     0.101 C 
HETATM    3  C   UNK N   1      26.568  15.135   4.908  0.00  0.00     0.063 C 
HETATM    4  C   UNK N   1      24.367  15.796   4.031  0.00  0.00     0.063 C 
HETATM    5  C   UNK N   1      26.148  15.516   6.326  0.00  0.00     0.120 C 
HETATM    6  C   UNK N   1      23.886  16.144   5.447  0.00  0.00     0.120 C 
ENDROOT
BRANCH   2   7
HETATM    7  O   UNK N   1      26.182  15.498   2.573  0.00  0.00    -0.305 OA
BRANCH   7   8
HETATM    8  C   UNK N   1      27.105  14.536   2.286  0.00  0.00     0.255 C 
HETATM    9  O   UNK N   1      26.787  13.357   2.214  0.00  0.00    -0.266 OA
HETATM   10  C   UNK N   1      28.525  14.925   2.065  0.00  0.00     0.126 C 
ENDBRANCH   7   8
ENDBRANCH   2   7
BRANCH   2  11
HETATM   11  C   UNK N   1      26.244  17.490   3.933  0.00  0.00    -0.023 A 
HETATM   12  C   UNK N   1      27.537  17.888   4.322  0.00  0.00     0.010 A 
HETATM   13  C   UNK N   1      27.879  19.242   4.389  0.00  0.00     0.001 A 
HETATM   14  C   UNK N   1      26.937  20.220   4.061  0.00  0.00     0.000 A 
HETATM   15  C   UNK N   1      25.652  19.843   3.669  0.00  0.00     0.001 A 
HETATM   16  C   UNK N   1      25.309  18.490   3.606  0.00  0.00     0.010 A 
ENDBRANCH   2  11
BRANCH   1  17
HETATM   17  C   UNK N   1      24.169  14.265   7.045  0.00  0.00     0.121 C 
BRANCH  17  18
HETATM   18  C   UNK N   1      25.033  13.653   8.140  0.00  0.00     0.058 C 
BRANCH  18  19
HETATM   19  C   UNK N   1      24.157  13.152   9.242  0.00  0.00    -0.057 A 
HETATM   20  C   UNK N   1      24.703  12.436  10.318  0.00  0.00     0.007 A 
HETATM   21  C   UNK N   1      23.871  11.954  11.334  0.00  0.00     0.001 A 
HETATM   22  C   UNK N   1      22.495  12.191  11.282  0.00  0.00     0.000 A 
HETATM   23  C   UNK N   1      21.950  12.912  10.215  0.00  0.00     0.001 A 
HETATM   24  C   UNK N   1      22.779  13.389   9.194  0.00  0.00     0.007 A 
ENDBRANCH  18  19
ENDBRANCH  17  18
ENDBRANCH   1  17
TORSDOF 6
ENDMDL
