MODEL 1
REMARK VINA RESULT:      -3.1      0.000      0.000
REMARK  3 active torsions:
REMARK  status: ('A' for Active; 'I' for Inactive)
REMARK    1  A    between atoms: O_2  and  C_3 
REMARK    2  A    between atoms: C_3  and  C_4 
REMARK    3  A    between atoms: C_4  and  O_5 
ROOT
HETATM    1  C   UNK N   1      34.239  18.361   8.140  0.00  0.00     0.193 C 
ENDROOT
BRANCH   1   2
HETATM    2  O   UNK N   1      34.528  18.012   6.824  0.00  0.00    -0.394 OA
HETATM    3  C   UNK N   1      34.208  16.657   6.745  0.00  0.00     0.201 C 
ENDBRANCH   1   2
BRANCH   1   4
HETATM    4  C   UNK N   1      34.533  17.184   9.043  0.00  0.00     0.193 C 
BRANCH   4   5
HETATM    5  O   UNK N   1      35.429  17.578  10.033  0.00  0.00    -0.394 OA
HETATM    6  C   UNK N   1      35.485  16.491  10.903  0.00  0.00     0.201 C 
ENDBRANCH   4   5
ENDBRANCH   1   4
TORSDOF 3
ENDMDL
MODEL 2
REMARK VINA RESULT:      -3.0      0.356      3.407
REMARK  3 active torsions:
REMARK  status: ('A' for Active; 'I' for Inactive)
REMARK    1  A    between atoms: O_2  and  C_3 
REMARK    2  A    between atoms: C_3  and  C_4 
REMARK    3  A    between atoms: C_4  and  O_5 
ROOT
HETATM    1  C   UNK N   1      34.449  17.227   9.057  0.00  0.00     0.193 C 
ENDROOT
BRANCH   1   2
HETATM    2  O   UNK N   1      35.416  17.570   9.997  0.00  0.00    -0.394 OA
HETATM    3  C   UNK N   1      35.422  16.503  10.894  0.00  0.00     0.201 C 
ENDBRANCH   1   2
BRANCH   1   4
HETATM    4  C   UNK N   1      34.210  18.404   8.137  0.00  0.00     0.193 C 
BRANCH   4   5
HETATM    5  O   UNK N   1      34.635  18.075   6.853  0.00  0.00    -0.394 OA
HETATM    6  C   UNK N   1      33.661  17.199   6.379  0.00  0.00     0.201 C 
ENDBRANCH   4   5
ENDBRANCH   1   4
TORSDOF 3
ENDMDL
MODEL 3
REMARK VINA RESULT:      -2.9     13.444     14.402
REMARK  3 active torsions:
REMARK  status: ('A' for Active; 'I' for Inactive)
REMARK    1  A    between atoms: O_2  and  C_3 
REMARK    2  A    between atoms: C_3  and  C_4 
REMARK    3  A    between atoms: C_4  and  O_5 
ROOT
HETATM    1  C   UNK N   1      21.823  20.398   2.349  0.00  0.00     0.193 C 
ENDROOT
BRANCH   1   2
HETATM    2  O   UNK N   1      22.724  21.311   2.890  0.00  0.00    -0.394 OA
HETATM    3  C   UNK N   1      23.930  20.615   2.949  0.00  0.00     0.201 C 
ENDBRANCH   1   2
BRANCH   1   4
HETATM    4  C   UNK N   1      20.544  20.424   3.155  0.00  0.00     0.193 C 
BRANCH   4   5
HETATM    5  O   UNK N   1      20.786  19.882   4.415  0.00  0.00    -0.394 OA
HETATM    6  C   UNK N   1      21.007  18.528   4.174  0.00  0.00     0.201 C 
ENDBRANCH   4   5
ENDBRANCH   1   4
TORSDOF 3
ENDMDL
MODEL 4
REMARK VINA RESULT:      -2.8     12.968     14.277
REMARK  3 active torsions:
REMARK  status: ('A' for Active; 'I' for Inactive)
REMARK    1  A    between atoms: O_2  and  C_3 
REMARK    2  A    between atoms: C_3  and  C_4 
REMARK    3  A    between atoms: C_4  and  O_5 
ROOT
HETATM    1  C   UNK N   1      28.409  23.701  -2.836  0.00  0.00     0.193 C 
ENDROOT
BRANCH   1   2
HETATM    2  O   UNK N   1      27.054  23.934  -2.619  0.00  0.00    -0.394 OA
HETATM    3  C   UNK N   1      26.565  24.331  -3.862  0.00  0.00     0.201 C 
ENDBRANCH   1   2
BRANCH   1   4
HETATM    4  C   UNK N   1      28.967  22.897  -1.683  0.00  0.00     0.193 C 
BRANCH   4   5
HETATM    5  O   UNK N   1      30.334  23.138  -1.576  0.00  0.00    -0.394 OA
HETATM    6  C   UNK N   1      30.751  23.363  -2.886  0.00  0.00     0.201 C 
ENDBRANCH   4   5
ENDBRANCH   1   4
TORSDOF 3
ENDMDL
MODEL 5
REMARK VINA RESULT:      -2.5      2.434      3.730
REMARK  3 active torsions:
REMARK  status: ('A' for Active; 'I' for Inactive)
REMARK    1  A    between atoms: O_2  and  C_3 
REMARK    2  A    between atoms: C_3  and  C_4 
REMARK    3  A    between atoms: C_4  and  O_5 
ROOT
HETATM    1  C   UNK N   1      32.362  17.544   7.637  0.00  0.00     0.193 C 
ENDROOT
BRANCH   1   2
HETATM    2  O   UNK N   1      31.583  17.952   8.716  0.00  0.00    -0.394 OA
HETATM    3  C   UNK N   1      30.270  17.759   8.289  0.00  0.00     0.201 C 
ENDBRANCH   1   2
BRANCH   1   4
HETATM    4  C   UNK N   1      33.763  18.090   7.801  0.00  0.00     0.193 C 
BRANCH   4   5
HETATM    5  O   UNK N   1      34.458  17.935   6.604  0.00  0.00    -0.394 OA
HETATM    6  C   UNK N   1      33.501  17.468   5.706  0.00  0.00     0.201 C 
ENDBRANCH   4   5
ENDBRANCH   1   4
TORSDOF 3
ENDMDL
MODEL 6
REMARK VINA RESULT:      -2.5      2.175      2.936
REMARK  3 active torsions:
REMARK  status: ('A' for Active; 'I' for Inactive)
REMARK    1  A    between atoms: O_2  and  C_3 
REMARK    2  A    between atoms: C_3  and  C_4 
REMARK    3  A    between atoms: C_4  and  O_5 
ROOT
HETATM    1  C   UNK N   1      33.989  18.296   8.023  0.00  0.00     0.193 C 
ENDROOT
BRANCH   1   2
HETATM    2  O   UNK N   1      34.479  18.019   6.750  0.00  0.00    -0.394 OA
HETATM    3  C   UNK N   1      34.137  16.686   6.528  0.00  0.00     0.201 C 
ENDBRANCH   1   2
BRANCH   1   4
HETATM    4  C   UNK N   1      32.843  17.358   8.330  0.00  0.00     0.193 C 
BRANCH   4   5
HETATM    5  O   UNK N   1      31.707  18.106   8.631  0.00  0.00    -0.394 OA
HETATM    6  C   UNK N   1      30.656  17.377   8.079  0.00  0.00     0.201 C 
ENDBRANCH   4   5
ENDBRANCH   1   4
TORSDOF 3
ENDMDL
MODEL 7
REMARK VINA RESULT:      -2.5      1.562      3.969
REMARK  3 active torsions:
REMARK  status: ('A' for Active; 'I' for Inactive)
REMARK    1  A    between atoms: O_2  and  C_3 
REMARK    2  A    between atoms: C_3  and  C_4 
REMARK    3  A    between atoms: C_4  and  O_5 
ROOT
HETATM    1  C   UNK N   1      35.466  16.433  10.999  0.00  0.00     0.193 C 
ENDROOT
BRANCH   1   2
HETATM    2  O   UNK N   1      34.931  15.243  11.486  0.00  0.00    -0.394 OA
HETATM    3  C   UNK N   1      35.894  14.768  12.375  0.00  0.00     0.201 C 
ENDBRANCH   1   2
BRANCH   1   4
HETATM    4  C   UNK N   1      34.787  16.786   9.694  0.00  0.00     0.193 C 
BRANCH   4   5
HETATM    5  O   UNK N   1      35.192  18.057   9.296  0.00  0.00    -0.394 OA
HETATM    6  C   UNK N   1      34.442  18.318   8.152  0.00  0.00     0.201 C 
ENDBRANCH   4   5
ENDBRANCH   1   4
TORSDOF 3
ENDMDL
MODEL 8
REMARK VINA RESULT:      -2.5     12.837     13.471
REMARK  3 active torsions:
REMARK  status: ('A' for Active; 'I' for Inactive)
REMARK    1  A    between atoms: O_2  and  C_3 
REMARK    2  A    between atoms: C_3  and  C_4 
REMARK    3  A    between atoms: C_4  and  O_5 
ROOT
HETATM    1  C   UNK N   1      30.126  22.189  -3.866  0.00  0.00     0.193 C 
ENDROOT
BRANCH   1   2
HETATM    2  O   UNK N   1      30.354  21.087  -4.686  0.00  0.00    -0.394 OA
HETATM    3  C   UNK N   1      31.594  20.599  -4.277  0.00  0.00     0.201 C 
ENDBRANCH   1   2
BRANCH   1   4
HETATM    4  C   UNK N   1      31.174  22.221  -2.774  0.00  0.00     0.193 C 
BRANCH   4   5
HETATM    5  O   UNK N   1      30.673  22.922  -1.680  0.00  0.00    -0.394 OA
HETATM    6  C   UNK N   1      29.304  23.012  -1.923  0.00  0.00     0.201 C 
ENDBRANCH   4   5
ENDBRANCH   1   4
TORSDOF 3
ENDMDL
MODEL 9
REMARK VINA RESULT:      -2.4      4.896      6.500
REMARK  3 active torsions:
REMARK  status: ('A' for Active; 'I' for Inactive)
REMARK    1  A    between atoms: O_2  and  C_3 
REMARK    2  A    between atoms: C_3  and  C_4 
REMARK    3  A    between atoms: C_4  and  O_5 
ROOT
HETATM    1  C   UNK N   1      35.870  14.197  13.227  0.00  0.00     0.193 C 
ENDROOT
BRANCH   1   2
HETATM    2  O   UNK N   1      34.677  13.931  12.561  0.00  0.00    -0.394 OA
HETATM    3  C   UNK N   1      34.731  14.731  11.420  0.00  0.00     0.201 C 
ENDBRANCH   1   2
BRANCH   1   4
HETATM    4  C   UNK N   1      35.893  13.431  14.532  0.00  0.00     0.193 C 
BRANCH   4   5
HETATM    5  O   UNK N   1      34.585  13.171  14.932  0.00  0.00    -0.394 OA
HETATM    6  C   UNK N   1      34.669  13.024  16.315  0.00  0.00     0.201 C 
ENDBRANCH   4   5
ENDBRANCH   1   4
TORSDOF 3
ENDMDL
