REMARK  8 active torsions:
REMARK  status: ('A' for Active; 'I' for Inactive)
REMARK    1  A    between atoms: C_3  and  C_8 
REMARK    2  A    between atoms: C_4  and  O_10 
REMARK    3  A    between atoms: C_5  and  O_12 
REMARK    4  A    between atoms: C_6  and  N_16 
REMARK    5  A    between atoms: C_7  and  O_11 
REMARK    6  A    between atoms: O_9  and  C_8 
REMARK    7  A    between atoms: S_13  and  O_12 
REMARK    8  A    between atoms: O_15  and  S_13 
REMARK       I    between atoms: C_17  and  N_16 
ROOT
HETATM    1  O   UNK N   1       8.487  -6.385   0.466  0.00  0.00    -0.349 OA
HETATM    2  C   UNK N   1       7.595  -7.158  -0.298  0.00  0.00     0.181 C 
HETATM    3  C   UNK N   1       8.493  -5.100  -0.101  0.00  0.00     0.282 C 
HETATM    4  C   UNK N   1       6.161  -6.689  -0.017  0.00  0.00     0.206 C 
HETATM    5  C   UNK N   1       7.178  -4.385   0.240  0.00  0.00     0.170 C 
HETATM    6  C   UNK N   1       6.036  -5.208  -0.389  0.00  0.00     0.178 C 
ENDROOT
BRANCH   4   7
HETATM    7  O   UNK N   1       5.247  -7.445  -0.758  0.00  0.00    -0.253 OA
BRANCH   7   8
HETATM    8  S   UNK N   1       4.170  -8.116   0.404  0.00  0.00     0.240 S 
HETATM    9  O   UNK N   1       4.761  -9.266   1.233  0.00  0.00    -0.579 OA
HETATM   10  O   UNK N   1       2.851  -8.607  -0.210  0.00  0.00    -0.579 OA
BRANCH   8  11
HETATM   11  O   UNK N   1       4.645  -9.314  -0.732  0.00  0.00    -0.274 OA
HETATM   12  H   UNK N   1       4.193  -9.884  -1.373  0.00  0.00     0.234 HD
ENDBRANCH   8  11
ENDBRANCH   7   8
ENDBRANCH   4   7
BRANCH   2  13
HETATM   13  C   UNK N   1       7.761  -8.623   0.072  0.00  0.00     0.199 C 
BRANCH  13  14
HETATM   14  O   UNK N   1       9.049  -9.054  -0.243  0.00  0.00    -0.398 OA
HETATM   15  H   UNK N   1       9.237  -9.980  -0.462  0.00  0.00     0.209 HD
ENDBRANCH  13  14
ENDBRANCH   2  13
BRANCH   6  16
HETATM   16  O   UNK N   1       4.788  -4.735   0.016  0.00  0.00    -0.391 OA
HETATM   17  H   UNK N   1       4.639  -3.819   0.298  0.00  0.00     0.210 HD
ENDBRANCH   6  16
BRANCH   5  18
HETATM   18  N   UNK N   1       7.227  -3.038  -0.297  0.00  0.00    -0.349 N 
HETATM   19  C   UNK N   1       6.343  -2.059   0.011  0.00  0.00     0.214 C 
HETATM   20  C   UNK N   1       6.519  -0.702  -0.575  0.00  0.00     0.117 C 
HETATM   21  O   UNK N   1       5.418  -2.264   0.784  0.00  0.00    -0.274 OA
HETATM   22  H   UNK N   1       7.951  -2.822  -0.928  0.00  0.00     0.163 HD
ENDBRANCH   5  18
BRANCH   3  23
HETATM   23  O   UNK N   1       9.583  -4.384   0.395  0.00  0.00    -0.369 OA
HETATM   24  H   UNK N   1      10.393  -4.791   0.740  0.00  0.00     0.212 HD
ENDBRANCH   3  23
TORSDOF 8
