MODEL 1
REMARK VINA RESULT:      -5.8      0.000      0.000
REMARK  15 active torsions:
REMARK  status: ('A' for Active; 'I' for Inactive)
REMARK    1  A    between atoms: C_3  and  C_2 
REMARK    2  A    between atoms: C_10  and  C_2 
REMARK    3  A    between atoms: C_11  and  C_3 
REMARK    4  A    between atoms: C_9  and  C_5 
REMARK    5  A    between atoms: N_15  and  C_5 
REMARK    6  A    between atoms: C_8  and  C_6 
REMARK    7  A    between atoms: O_24  and  C_6 
REMARK    8  A    between atoms: C_13  and  C_10 
REMARK    9  A    between atoms: C_10  and  N_15 
REMARK   10  A    between atoms: O_17  and  C_11 
REMARK   11  A    between atoms: O_18  and  C_12 
REMARK   12  A    between atoms: O_20  and  C_13 
REMARK   13  A    between atoms: P_25  and  O_21 
REMARK   14  A    between atoms: P_25  and  O_22 
REMARK   15  A    between atoms: P_25  and  O_24 
ROOT
HETATM    1  C   UNK N   1      27.818  17.756   8.718  0.00  0.00     0.071 C 
HETATM    2  C   UNK N   1      29.981  17.407   5.702  0.00  0.00     0.098 A 
HETATM    3  C   UNK N   1      29.030  17.560   7.875  0.00  0.00     0.039 A 
HETATM    4  C   UNK N   1      31.260  17.249   6.242  0.00  0.00    -0.008 A 
HETATM    5  C   UNK N   1      31.421  17.239   7.639  0.00  0.00     0.004 A 
HETATM    6  C   UNK N   1      30.294  17.398   8.461  0.00  0.00     0.096 A 
HETATM    7  N   UNK N   1      28.905  17.556   6.519  0.00  0.00    -0.367 N 
HETATM    8  H   UNK N   1      28.012  17.663   6.119  0.00  0.00     0.165 HD
ENDROOT
BRANCH   5   9
HETATM    9  C   UNK N   1      32.794  17.117   8.231  0.00  0.00     0.157 C 
BRANCH   9  10
HETATM   10  N   UNK N   1      32.894  16.012   9.183  0.00  0.00    -0.404 N 
HETATM   11  H   UNK N   1      32.494  15.996  10.121  0.00  0.00     0.154 HD
BRANCH  10  12
HETATM   12  C   UNK N   1      33.669  14.933   8.561  0.00  0.00     0.176 C 
BRANCH  12  13
HETATM   13  C   UNK N   1      34.726  14.447   9.553  0.00  0.00     0.046 C 
BRANCH  13  14
HETATM   14  C   UNK N   1      34.759  15.349  10.783  0.00  0.00     0.112 C 
BRANCH  14  15
HETATM   15  C   UNK N   1      35.831  16.378  10.658  0.00  0.00     0.139 C 
HETATM   16  O   UNK N   1      35.539  17.528  10.376  0.00  0.00    -0.650 OA
BRANCH  15  17
HETATM   17  O   UNK N   1      37.115  16.050  10.893  0.00  0.00    -0.776 OA
HETATM   18  H   UNK N   1      37.557  16.347  11.664  0.00  0.00     0.167 HD
ENDBRANCH  15  17
ENDBRANCH  14  15
ENDBRANCH  13  14
ENDBRANCH  12  13
BRANCH  12  19
HETATM   19  C   UNK N   1      32.745  13.820   8.113  0.00  0.00     0.163 C 
HETATM   20  O   UNK N   1      32.641  12.809   8.789  0.00  0.00    -0.648 OA
BRANCH  19  21
HETATM   21  O   UNK N   1      32.027  13.931   6.978  0.00  0.00    -0.775 OA
HETATM   22  H   UNK N   1      32.063  14.561   6.285  0.00  0.00     0.167 HD
ENDBRANCH  19  21
ENDBRANCH  12  19
ENDBRANCH  10  12
ENDBRANCH   9  10
ENDBRANCH   5   9
BRANCH   4  23
HETATM   23  C   UNK N   1      32.443  17.160   5.334  0.00  0.00     0.221 C 
BRANCH  23  24
HETATM   24  O   UNK N   1      32.724  15.841   4.977  0.00  0.00    -0.292 OA
BRANCH  24  25
HETATM   25  P   UNK N   1      32.390  15.778   3.269  0.00  0.00     0.391 P 
HETATM   26  O   UNK N   1      31.195  14.811   3.048  0.00  0.00    -0.632 OA
BRANCH  25  27
HETATM   27  O   UNK N   1      31.894  17.326   2.661  0.00  0.00    -0.307 OA
HETATM   28  H   UNK N   1      31.164  17.962   2.730  0.00  0.00     0.222 HD
ENDBRANCH  25  27
BRANCH  25  29
HETATM   29  O   UNK N   1      33.737  15.159   2.366  0.00  0.00    -0.307 OA
HETATM   30  H   UNK N   1      34.198  15.281   1.522  0.00  0.00     0.222 HD
ENDBRANCH  25  29
ENDBRANCH  24  25
ENDBRANCH  23  24
ENDBRANCH   4  23
BRANCH   6  31
HETATM   31  O   UNK N   1      30.425  17.413   9.803  0.00  0.00    -0.358 OA
HETATM   32  H   UNK N   1      31.074  17.954  10.208  0.00  0.00     0.217 HD
ENDBRANCH   6  31
TORSDOF 15
ENDMDL
MODEL 2
REMARK VINA RESULT:      -5.7      7.764     10.483
REMARK  15 active torsions:
REMARK  status: ('A' for Active; 'I' for Inactive)
REMARK    1  A    between atoms: C_3  and  C_2 
REMARK    2  A    between atoms: C_10  and  C_2 
REMARK    3  A    between atoms: C_11  and  C_3 
REMARK    4  A    between atoms: C_9  and  C_5 
REMARK    5  A    between atoms: N_15  and  C_5 
REMARK    6  A    between atoms: C_8  and  C_6 
REMARK    7  A    between atoms: O_24  and  C_6 
REMARK    8  A    between atoms: C_13  and  C_10 
REMARK    9  A    between atoms: C_10  and  N_15 
REMARK   10  A    between atoms: O_17  and  C_11 
REMARK   11  A    between atoms: O_18  and  C_12 
REMARK   12  A    between atoms: O_20  and  C_13 
REMARK   13  A    between atoms: P_25  and  O_21 
REMARK   14  A    between atoms: P_25  and  O_22 
REMARK   15  A    between atoms: P_25  and  O_24 
ROOT
HETATM    1  C   UNK N   1      24.336  13.796   6.805  0.00  0.00     0.071 C 
HETATM    2  C   UNK N   1      21.387  15.271   5.067  0.00  0.00     0.098 A 
HETATM    3  C   UNK N   1      23.474  14.778   6.091  0.00  0.00     0.039 A 
HETATM    4  C   UNK N   1      21.795  16.580   4.799  0.00  0.00    -0.008 A 
HETATM    5  C   UNK N   1      23.084  16.991   5.183  0.00  0.00     0.004 A 
HETATM    6  C   UNK N   1      23.928  16.081   5.837  0.00  0.00     0.096 A 
HETATM    7  N   UNK N   1      22.224  14.406   5.698  0.00  0.00    -0.367 N 
HETATM    8  H   UNK N   1      21.919  13.488   5.876  0.00  0.00     0.165 HD
ENDROOT
BRANCH   5   9
HETATM    9  C   UNK N   1      23.517  18.407   4.942  0.00  0.00     0.157 C 
BRANCH   9  10
HETATM   10  N   UNK N   1      24.578  18.502   3.941  0.00  0.00    -0.404 N 
HETATM   11  H   UNK N   1      24.933  17.733   3.373  0.00  0.00     0.154 HD
BRANCH  10  12
HETATM   12  C   UNK N   1      25.046  19.892   3.894  0.00  0.00     0.176 C 
BRANCH  12  13
HETATM   13  C   UNK N   1      26.567  19.896   3.734  0.00  0.00     0.046 C 
BRANCH  13  14
HETATM   14  C   UNK N   1      27.247  19.865   5.099  0.00  0.00     0.112 C 
BRANCH  14  15
HETATM   15  C   UNK N   1      28.083  18.639   5.249  0.00  0.00     0.139 C 
HETATM   16  O   UNK N   1      27.730  17.752   6.008  0.00  0.00    -0.650 OA
BRANCH  15  17
HETATM   17  O   UNK N   1      29.206  18.492   4.521  0.00  0.00    -0.776 OA
HETATM   18  H   UNK N   1      29.654  19.236   4.169  0.00  0.00     0.167 HD
ENDBRANCH  15  17
ENDBRANCH  14  15
ENDBRANCH  13  14
ENDBRANCH  12  13
BRANCH  12  19
HETATM   19  C   UNK N   1      24.349  20.639   2.777  0.00  0.00     0.163 C 
HETATM   20  O   UNK N   1      24.847  20.668   1.663  0.00  0.00    -0.648 OA
BRANCH  19  21
HETATM   21  O   UNK N   1      23.177  21.270   2.992  0.00  0.00    -0.775 OA
HETATM   22  H   UNK N   1      22.573  21.221   3.707  0.00  0.00     0.167 HD
ENDBRANCH  19  21
ENDBRANCH  12  19
ENDBRANCH  10  12
ENDBRANCH   9  10
ENDBRANCH   5   9
BRANCH   4  23
HETATM   23  C   UNK N   1      20.839  17.541   4.170  0.00  0.00     0.221 C 
BRANCH  23  24
HETATM   24  O   UNK N   1      21.010  17.611   2.786  0.00  0.00    -0.292 OA
BRANCH  24  25
HETATM   25  P   UNK N   1      20.140  19.044   2.318  0.00  0.00     0.391 P 
HETATM   26  O   UNK N   1      20.510  20.177   3.314  0.00  0.00    -0.632 OA
BRANCH  25  27
HETATM   27  O   UNK N   1      20.618  19.593   0.743  0.00  0.00    -0.307 OA
HETATM   28  H   UNK N   1      21.055  19.275  -0.063  0.00  0.00     0.222 HD
ENDBRANCH  25  27
BRANCH  25  29
HETATM   29  O   UNK N   1      18.421  18.816   2.401  0.00  0.00    -0.307 OA
HETATM   30  H   UNK N   1      17.672  18.526   1.857  0.00  0.00     0.222 HD
ENDBRANCH  25  29
ENDBRANCH  24  25
ENDBRANCH  23  24
ENDBRANCH   4  23
BRANCH   6  31
HETATM   31  O   UNK N   1      25.161  16.458   6.234  0.00  0.00    -0.358 OA
HETATM   32  H   UNK N   1      25.687  17.004   5.685  0.00  0.00     0.217 HD
ENDBRANCH   6  31
TORSDOF 15
ENDMDL
MODEL 3
REMARK VINA RESULT:      -5.6      2.881      6.934
REMARK  15 active torsions:
REMARK  status: ('A' for Active; 'I' for Inactive)
REMARK    1  A    between atoms: C_3  and  C_2 
REMARK    2  A    between atoms: C_10  and  C_2 
REMARK    3  A    between atoms: C_11  and  C_3 
REMARK    4  A    between atoms: C_9  and  C_5 
REMARK    5  A    between atoms: N_15  and  C_5 
REMARK    6  A    between atoms: C_8  and  C_6 
REMARK    7  A    between atoms: O_24  and  C_6 
REMARK    8  A    between atoms: C_13  and  C_10 
REMARK    9  A    between atoms: C_10  and  N_15 
REMARK   10  A    between atoms: O_17  and  C_11 
REMARK   11  A    between atoms: O_18  and  C_12 
REMARK   12  A    between atoms: O_20  and  C_13 
REMARK   13  A    between atoms: P_25  and  O_21 
REMARK   14  A    between atoms: P_25  and  O_22 
REMARK   15  A    between atoms: P_25  and  O_24 
ROOT
HETATM    1  C   UNK N   1      33.234  16.111   3.220  0.00  0.00     0.071 C 
HETATM    2  C   UNK N   1      34.381  14.965   6.577  0.00  0.00     0.098 A 
HETATM    3  C   UNK N   1      33.323  15.968   4.700  0.00  0.00     0.039 A 
HETATM    4  C   UNK N   1      33.575  15.693   7.456  0.00  0.00    -0.008 A 
HETATM    5  C   UNK N   1      32.611  16.575   6.936  0.00  0.00     0.004 A 
HETATM    6  C   UNK N   1      32.488  16.714   5.544  0.00  0.00     0.096 A 
HETATM    7  N   UNK N   1      34.240  15.114   5.233  0.00  0.00    -0.367 N 
HETATM    8  H   UNK N   1      34.816  14.591   4.631  0.00  0.00     0.165 HD
ENDROOT
BRANCH   5   9
HETATM    9  C   UNK N   1      31.771  17.396   7.868  0.00  0.00     0.157 C 
BRANCH   9  10
HETATM   10  N   UNK N   1      30.368  16.985   7.863  0.00  0.00    -0.404 N 
HETATM   11  H   UNK N   1      30.029  16.024   7.845  0.00  0.00     0.154 HD
BRANCH  10  12
HETATM   12  C   UNK N   1      29.533  18.191   7.885  0.00  0.00     0.176 C 
BRANCH  12  13
HETATM   13  C   UNK N   1      28.549  18.134   6.715  0.00  0.00     0.046 C 
BRANCH  13  14
HETATM   14  C   UNK N   1      28.357  16.694   6.249  0.00  0.00     0.112 C 
BRANCH  14  15
HETATM   15  C   UNK N   1      26.929  16.281   6.374  0.00  0.00     0.139 C 
HETATM   16  O   UNK N   1      26.235  16.183   5.376  0.00  0.00    -0.650 OA
BRANCH  15  17
HETATM   17  O   UNK N   1      26.415  15.981   7.582  0.00  0.00    -0.776 OA
HETATM   18  H   UNK N   1      26.931  16.059   8.360  0.00  0.00     0.167 HD
ENDBRANCH  15  17
ENDBRANCH  14  15
ENDBRANCH  13  14
ENDBRANCH  12  13
BRANCH  12  19
HETATM   19  C   UNK N   1      28.831  18.314   9.220  0.00  0.00     0.163 C 
HETATM   20  O   UNK N   1      29.468  18.630  10.213  0.00  0.00    -0.648 OA
BRANCH  19  21
HETATM   21  O   UNK N   1      27.507  18.085   9.331  0.00  0.00    -0.775 OA
HETATM   22  H   UNK N   1      26.996  17.325   9.136  0.00  0.00     0.167 HD
ENDBRANCH  19  21
ENDBRANCH  12  19
ENDBRANCH  10  12
ENDBRANCH   9  10
ENDBRANCH   5   9
BRANCH   4  23
HETATM   23  C   UNK N   1      33.789  15.574   8.930  0.00  0.00     0.221 C 
BRANCH  23  24
HETATM   24  O   UNK N   1      34.975  14.901   9.229  0.00  0.00    -0.292 OA
BRANCH  24  25
HETATM   25  P   UNK N   1      35.587  15.716  10.640  0.00  0.00     0.391 P 
HETATM   26  O   UNK N   1      35.138  14.912  11.891  0.00  0.00    -0.632 OA
BRANCH  25  27
HETATM   27  O   UNK N   1      37.322  15.736  10.660  0.00  0.00    -0.307 OA
HETATM   28  H   UNK N   1      38.065  15.896  11.264  0.00  0.00     0.222 HD
ENDBRANCH  25  27
BRANCH  25  29
HETATM   29  O   UNK N   1      34.946  17.322  10.792  0.00  0.00    -0.307 OA
HETATM   30  H   UNK N   1      34.116  17.815  10.694  0.00  0.00     0.222 HD
ENDBRANCH  25  29
ENDBRANCH  24  25
ENDBRANCH  23  24
ENDBRANCH   4  23
BRANCH   6  31
HETATM   31  O   UNK N   1      31.586  17.570   5.021  0.00  0.00    -0.358 OA
HETATM   32  H   UNK N   1      31.862  18.246   4.435  0.00  0.00     0.217 HD
ENDBRANCH   6  31
TORSDOF 15
ENDMDL
MODEL 4
REMARK VINA RESULT:      -5.6      3.193      6.590
REMARK  15 active torsions:
REMARK  status: ('A' for Active; 'I' for Inactive)
REMARK    1  A    between atoms: C_3  and  C_2 
REMARK    2  A    between atoms: C_10  and  C_2 
REMARK    3  A    between atoms: C_11  and  C_3 
REMARK    4  A    between atoms: C_9  and  C_5 
REMARK    5  A    between atoms: N_15  and  C_5 
REMARK    6  A    between atoms: C_8  and  C_6 
REMARK    7  A    between atoms: O_24  and  C_6 
REMARK    8  A    between atoms: C_13  and  C_10 
REMARK    9  A    between atoms: C_10  and  N_15 
REMARK   10  A    between atoms: O_17  and  C_11 
REMARK   11  A    between atoms: O_18  and  C_12 
REMARK   12  A    between atoms: O_20  and  C_13 
REMARK   13  A    between atoms: P_25  and  O_21 
REMARK   14  A    between atoms: P_25  and  O_22 
REMARK   15  A    between atoms: P_25  and  O_24 
ROOT
HETATM    1  C   UNK N   1      31.444  13.421   2.760  0.00  0.00     0.071 C 
HETATM    2  C   UNK N   1      33.957  15.480   4.589  0.00  0.00     0.098 A 
HETATM    3  C   UNK N   1      32.023  14.455   3.663  0.00  0.00     0.039 A 
HETATM    4  C   UNK N   1      33.169  16.394   5.294  0.00  0.00    -0.008 A 
HETATM    5  C   UNK N   1      31.769  16.326   5.182  0.00  0.00     0.004 A 
HETATM    6  C   UNK N   1      31.193  15.348   4.357  0.00  0.00     0.096 A 
HETATM    7  N   UNK N   1      33.375  14.539   3.799  0.00  0.00    -0.367 N 
HETATM    8  H   UNK N   1      33.947  13.903   3.313  0.00  0.00     0.165 HD
ENDROOT
BRANCH   5   9
HETATM    9  C   UNK N   1      30.915  17.330   5.897  0.00  0.00     0.157 C 
BRANCH   9  10
HETATM   10  N   UNK N   1      30.193  16.745   7.026  0.00  0.00    -0.404 N 
HETATM   11  H   UNK N   1      30.465  15.905   7.537  0.00  0.00     0.154 HD
BRANCH  10  12
HETATM   12  C   UNK N   1      29.011  17.571   7.298  0.00  0.00     0.176 C 
BRANCH  12  13
HETATM   13  C   UNK N   1      27.810  16.972   6.566  0.00  0.00     0.046 C 
BRANCH  13  14
HETATM   14  C   UNK N   1      27.109  18.038   5.729  0.00  0.00     0.112 C 
BRANCH  14  15
HETATM   15  C   UNK N   1      27.910  18.374   4.517  0.00  0.00     0.139 C 
HETATM   16  O   UNK N   1      28.088  17.532   3.653  0.00  0.00    -0.650 OA
BRANCH  15  17
HETATM   17  O   UNK N   1      28.407  19.615   4.356  0.00  0.00    -0.776 OA
HETATM   18  H   UNK N   1      27.998  20.355   4.760  0.00  0.00     0.167 HD
ENDBRANCH  15  17
ENDBRANCH  14  15
ENDBRANCH  13  14
ENDBRANCH  12  13
BRANCH  12  19
HETATM   19  C   UNK N   1      28.781  17.675   8.791  0.00  0.00     0.163 C 
HETATM   20  O   UNK N   1      29.626  17.255   9.566  0.00  0.00    -0.648 OA
BRANCH  19  21
HETATM   21  O   UNK N   1      27.656  18.232   9.281  0.00  0.00    -0.775 OA
HETATM   22  H   UNK N   1      27.286  19.084   9.158  0.00  0.00     0.167 HD
ENDBRANCH  19  21
ENDBRANCH  12  19
ENDBRANCH  10  12
ENDBRANCH   9  10
ENDBRANCH   5   9
BRANCH   4  23
HETATM   23  C   UNK N   1      33.823  17.469   6.101  0.00  0.00     0.221 C 
BRANCH  23  24
HETATM   24  O   UNK N   1      34.702  16.943   7.048  0.00  0.00    -0.292 OA
BRANCH  24  25
HETATM   25  P   UNK N   1      34.284  17.764   8.525  0.00  0.00     0.391 P 
HETATM   26  O   UNK N   1      34.659  19.262   8.364  0.00  0.00    -0.632 OA
BRANCH  25  27
HETATM   27  O   UNK N   1      32.574  17.709   8.821  0.00  0.00    -0.307 OA
HETATM   28  H   UNK N   1      31.922  17.940   9.501  0.00  0.00     0.222 HD
ENDBRANCH  25  27
BRANCH  25  29
HETATM   29  O   UNK N   1      35.169  17.146   9.884  0.00  0.00    -0.307 OA
HETATM   30  H   UNK N   1      35.650  17.447  10.671  0.00  0.00     0.222 HD
ENDBRANCH  25  29
ENDBRANCH  24  25
ENDBRANCH  23  24
ENDBRANCH   4  23
BRANCH   6  31
HETATM   31  O   UNK N   1      29.853  15.276   4.217  0.00  0.00    -0.358 OA
HETATM   32  H   UNK N   1      29.346  14.744   4.798  0.00  0.00     0.217 HD
ENDBRANCH   6  31
TORSDOF 15
ENDMDL
MODEL 5
REMARK VINA RESULT:      -5.6     12.641     15.519
REMARK  15 active torsions:
REMARK  status: ('A' for Active; 'I' for Inactive)
REMARK    1  A    between atoms: C_3  and  C_2 
REMARK    2  A    between atoms: C_10  and  C_2 
REMARK    3  A    between atoms: C_11  and  C_3 
REMARK    4  A    between atoms: C_9  and  C_5 
REMARK    5  A    between atoms: N_15  and  C_5 
REMARK    6  A    between atoms: C_8  and  C_6 
REMARK    7  A    between atoms: O_24  and  C_6 
REMARK    8  A    between atoms: C_13  and  C_10 
REMARK    9  A    between atoms: C_10  and  N_15 
REMARK   10  A    between atoms: O_17  and  C_11 
REMARK   11  A    between atoms: O_18  and  C_12 
REMARK   12  A    between atoms: O_20  and  C_13 
REMARK   13  A    between atoms: P_25  and  O_21 
REMARK   14  A    between atoms: P_25  and  O_22 
REMARK   15  A    between atoms: P_25  and  O_24 
ROOT
HETATM    1  C   UNK N   1      27.373  28.570  -5.735  0.00  0.00     0.071 C 
HETATM    2  C   UNK N   1      25.620  25.468  -6.831  0.00  0.00     0.098 A 
HETATM    3  C   UNK N   1      26.999  27.132  -5.842  0.00  0.00     0.039 A 
HETATM    4  C   UNK N   1      26.283  24.460  -6.126  0.00  0.00    -0.008 A 
HETATM    5  C   UNK N   1      27.327  24.805  -5.249  0.00  0.00     0.004 A 
HETATM    6  C   UNK N   1      27.688  26.155  -5.110  0.00  0.00     0.096 A 
HETATM    7  N   UNK N   1      25.985  26.768  -6.675  0.00  0.00    -0.367 N 
HETATM    8  H   UNK N   1      25.505  27.463  -7.179  0.00  0.00     0.165 HD
ENDROOT
BRANCH   5   9
HETATM    9  C   UNK N   1      28.077  23.729  -4.522  0.00  0.00     0.157 C 
BRANCH   9  10
HETATM   10  N   UNK N   1      29.451  23.585  -5.001  0.00  0.00    -0.404 N 
HETATM   11  H   UNK N   1      29.824  23.975  -5.866  0.00  0.00     0.154 HD
BRANCH  10  12
HETATM   12  C   UNK N   1      30.199  22.784  -4.026  0.00  0.00     0.176 C 
BRANCH  12  13
HETATM   13  C   UNK N   1      31.502  22.310  -4.672  0.00  0.00     0.046 C 
BRANCH  13  14
HETATM   14  C   UNK N   1      31.874  20.920  -4.165  0.00  0.00     0.112 C 
BRANCH  14  15
HETATM   15  C   UNK N   1      33.032  20.988  -3.228  0.00  0.00     0.139 C 
HETATM   16  O   UNK N   1      34.169  20.906  -3.660  0.00  0.00    -0.650 OA
BRANCH  15  17
HETATM   17  O   UNK N   1      32.827  21.177  -1.911  0.00  0.00    -0.776 OA
HETATM   18  H   UNK N   1      33.425  21.683  -1.396  0.00  0.00     0.167 HD
ENDBRANCH  15  17
ENDBRANCH  14  15
ENDBRANCH  13  14
ENDBRANCH  12  13
BRANCH  12  19
HETATM   19  C   UNK N   1      30.441  23.589  -2.767  0.00  0.00     0.163 C 
HETATM   20  O   UNK N   1      30.426  23.033  -1.680  0.00  0.00    -0.648 OA
BRANCH  19  21
HETATM   21  O   UNK N   1      30.681  24.914  -2.827  0.00  0.00    -0.775 OA
HETATM   22  H   UNK N   1      30.934  25.524  -2.163  0.00  0.00     0.167 HD
ENDBRANCH  19  21
ENDBRANCH  12  19
ENDBRANCH  10  12
ENDBRANCH   9  10
ENDBRANCH   5   9
BRANCH   4  23
HETATM   23  C   UNK N   1      25.921  23.029  -6.360  0.00  0.00     0.221 C 
BRANCH  23  24
HETATM   24  O   UNK N   1      26.642  22.479  -7.421  0.00  0.00    -0.292 OA
BRANCH  24  25
HETATM   25  P   UNK N   1      25.442  21.651  -8.372  0.00  0.00     0.391 P 
HETATM   26  O   UNK N   1      25.567  20.129  -8.084  0.00  0.00    -0.632 OA
BRANCH  25  27
HETATM   27  O   UNK N   1      23.834  22.112  -7.909  0.00  0.00    -0.307 OA
HETATM   28  H   UNK N   1      23.077  22.625  -8.234  0.00  0.00     0.222 HD
ENDBRANCH  25  27
BRANCH  25  29
HETATM   29  O   UNK N   1      25.689  21.883 -10.074  0.00  0.00    -0.307 OA
HETATM   30  H   UNK N   1      25.202  22.106 -10.883  0.00  0.00     0.222 HD
ENDBRANCH  25  29
ENDBRANCH  24  25
ENDBRANCH  23  24
ENDBRANCH   4  23
BRANCH   6  31
HETATM   31  O   UNK N   1      28.700  26.509  -4.291  0.00  0.00    -0.358 OA
HETATM   32  H   UNK N   1      29.457  25.963  -4.213  0.00  0.00     0.217 HD
ENDBRANCH   6  31
TORSDOF 15
ENDMDL
MODEL 6
REMARK VINA RESULT:      -5.5      5.037      8.466
REMARK  15 active torsions:
REMARK  status: ('A' for Active; 'I' for Inactive)
REMARK    1  A    between atoms: C_3  and  C_2 
REMARK    2  A    between atoms: C_10  and  C_2 
REMARK    3  A    between atoms: C_11  and  C_3 
REMARK    4  A    between atoms: C_9  and  C_5 
REMARK    5  A    between atoms: N_15  and  C_5 
REMARK    6  A    between atoms: C_8  and  C_6 
REMARK    7  A    between atoms: O_24  and  C_6 
REMARK    8  A    between atoms: C_13  and  C_10 
REMARK    9  A    between atoms: C_10  and  N_15 
REMARK   10  A    between atoms: O_17  and  C_11 
REMARK   11  A    between atoms: O_18  and  C_12 
REMARK   12  A    between atoms: O_20  and  C_13 
REMARK   13  A    between atoms: P_25  and  O_21 
REMARK   14  A    between atoms: P_25  and  O_22 
REMARK   15  A    between atoms: P_25  and  O_24 
ROOT
HETATM    1  C   UNK N   1      37.319  15.152  15.955  0.00  0.00     0.071 C 
HETATM    2  C   UNK N   1      35.353  12.012  15.547  0.00  0.00     0.098 A 
HETATM    3  C   UNK N   1      36.527  14.065  15.316  0.00  0.00     0.039 A 
HETATM    4  C   UNK N   1      35.002  12.028  14.194  0.00  0.00    -0.008 A 
HETATM    5  C   UNK N   1      35.436  13.091  13.383  0.00  0.00     0.004 A 
HETATM    6  C   UNK N   1      36.204  14.119  13.952  0.00  0.00     0.096 A 
HETATM    7  N   UNK N   1      36.101  13.017  16.073  0.00  0.00    -0.367 N 
HETATM    8  H   UNK N   1      36.340  12.986  17.028  0.00  0.00     0.165 HD
ENDROOT
BRANCH   5   9
HETATM    9  C   UNK N   1      35.028  13.143  11.941  0.00  0.00     0.157 C 
BRANCH   9  10
HETATM   10  N   UNK N   1      36.115  12.765  11.039  0.00  0.00    -0.404 N 
HETATM   11  H   UNK N   1      36.782  12.010  11.195  0.00  0.00     0.154 HD
BRANCH  10  12
HETATM   12  C   UNK N   1      36.083  13.658   9.876  0.00  0.00     0.176 C 
BRANCH  12  13
HETATM   13  C   UNK N   1      34.786  14.468   9.908  0.00  0.00     0.046 C 
BRANCH  13  14
HETATM   14  C   UNK N   1      34.761  15.481   8.768  0.00  0.00     0.112 C 
BRANCH  14  15
HETATM   15  C   UNK N   1      34.379  16.833   9.267  0.00  0.00     0.139 C 
HETATM   16  O   UNK N   1      35.243  17.612   9.632  0.00  0.00    -0.650 OA
BRANCH  15  17
HETATM   17  O   UNK N   1      33.086  17.209   9.281  0.00  0.00    -0.776 OA
HETATM   18  H   UNK N   1      32.401  16.591   9.117  0.00  0.00     0.167 HD
ENDBRANCH  15  17
ENDBRANCH  14  15
ENDBRANCH  13  14
ENDBRANCH  12  13
BRANCH  12  19
HETATM   19  C   UNK N   1      37.312  14.540   9.863  0.00  0.00     0.163 C 
HETATM   20  O   UNK N   1      38.267  14.241   9.163  0.00  0.00    -0.648 OA
BRANCH  19  21
HETATM   21  O   UNK N   1      37.368  15.661  10.610  0.00  0.00    -0.775 OA
HETATM   22  H   UNK N   1      37.588  15.790  11.511  0.00  0.00     0.167 HD
ENDBRANCH  19  21
ENDBRANCH  12  19
ENDBRANCH  10  12
ENDBRANCH   9  10
ENDBRANCH   5   9
BRANCH   4  23
HETATM   23  C   UNK N   1      34.119  10.954  13.644  0.00  0.00     0.221 C 
BRANCH  23  24
HETATM   24  O   UNK N   1      34.822   9.770  13.420  0.00  0.00    -0.292 OA
BRANCH  24  25
HETATM   25  P   UNK N   1      34.541   9.416  11.739  0.00  0.00     0.391 P 
HETATM   26  O   UNK N   1      34.202   7.906  11.616  0.00  0.00    -0.632 OA
BRANCH  25  27
HETATM   27  O   UNK N   1      33.169  10.284  11.126  0.00  0.00    -0.307 OA
HETATM   28  H   UNK N   1      32.735  11.149  11.197  0.00  0.00     0.222 HD
ENDBRANCH  25  27
BRANCH  25  29
HETATM   29  O   UNK N   1      35.949   9.717  10.768  0.00  0.00    -0.307 OA
HETATM   30  H   UNK N   1      36.913   9.790  10.841  0.00  0.00     0.222 HD
ENDBRANCH  25  29
ENDBRANCH  24  25
ENDBRANCH  23  24
ENDBRANCH   4  23
BRANCH   6  31
HETATM   31  O   UNK N   1      36.614  15.161  13.200  0.00  0.00    -0.358 OA
HETATM   32  H   UNK N   1      36.771  15.995  13.594  0.00  0.00     0.217 HD
ENDBRANCH   6  31
TORSDOF 15
ENDMDL
MODEL 7
REMARK VINA RESULT:      -5.5      8.726     11.322
REMARK  15 active torsions:
REMARK  status: ('A' for Active; 'I' for Inactive)
REMARK    1  A    between atoms: C_3  and  C_2 
REMARK    2  A    between atoms: C_10  and  C_2 
REMARK    3  A    between atoms: C_11  and  C_3 
REMARK    4  A    between atoms: C_9  and  C_5 
REMARK    5  A    between atoms: N_15  and  C_5 
REMARK    6  A    between atoms: C_8  and  C_6 
REMARK    7  A    between atoms: O_24  and  C_6 
REMARK    8  A    between atoms: C_13  and  C_10 
REMARK    9  A    between atoms: C_10  and  N_15 
REMARK   10  A    between atoms: O_17  and  C_11 
REMARK   11  A    between atoms: O_18  and  C_12 
REMARK   12  A    between atoms: O_20  and  C_13 
REMARK   13  A    between atoms: P_25  and  O_21 
REMARK   14  A    between atoms: P_25  and  O_22 
REMARK   15  A    between atoms: P_25  and  O_24 
ROOT
HETATM    1  C   UNK N   1      26.693  19.840   3.797  0.00  0.00     0.071 C 
HETATM    2  C   UNK N   1      23.208  20.434   2.615  0.00  0.00     0.098 A 
HETATM    3  C   UNK N   1      25.207  19.770   3.714  0.00  0.00     0.039 A 
HETATM    4  C   UNK N   1      22.439  19.645   3.475  0.00  0.00    -0.008 A 
HETATM    5  C   UNK N   1      23.078  18.908   4.488  0.00  0.00     0.004 A 
HETATM    6  C   UNK N   1      24.476  18.971   4.605  0.00  0.00     0.096 A 
HETATM    7  N   UNK N   1      24.559  20.481   2.751  0.00  0.00    -0.367 N 
HETATM    8  H   UNK N   1      25.082  21.044   2.137  0.00  0.00     0.165 HD
ENDROOT
BRANCH   5   9
HETATM    9  C   UNK N   1      22.270  18.022   5.388  0.00  0.00     0.157 C 
BRANCH   9  10
HETATM   10  N   UNK N   1      22.570  16.605   5.193  0.00  0.00    -0.404 N 
HETATM   11  H   UNK N   1      22.670  16.135   4.293  0.00  0.00     0.154 HD
BRANCH  10  12
HETATM   12  C   UNK N   1      22.702  15.973   6.511  0.00  0.00     0.176 C 
BRANCH  12  13
HETATM   13  C   UNK N   1      21.430  15.178   6.808  0.00  0.00     0.046 C 
BRANCH  13  14
HETATM   14  C   UNK N   1      20.973  15.418   8.243  0.00  0.00     0.112 C 
BRANCH  14  15
HETATM   15  C   UNK N   1      19.979  16.529   8.306  0.00  0.00     0.139 C 
HETATM   16  O   UNK N   1      20.361  17.678   8.451  0.00  0.00    -0.650 OA
BRANCH  15  17
HETATM   17  O   UNK N   1      18.665  16.270   8.168  0.00  0.00    -0.776 OA
HETATM   18  H   UNK N   1      18.047  16.963   8.045  0.00  0.00     0.167 HD
ENDBRANCH  15  17
ENDBRANCH  14  15
ENDBRANCH  13  14
ENDBRANCH  12  13
BRANCH  12  19
HETATM   19  C   UNK N   1      23.943  15.108   6.552  0.00  0.00     0.163 C 
HETATM   20  O   UNK N   1      23.848  13.901   6.397  0.00  0.00    -0.648 OA
BRANCH  19  21
HETATM   21  O   UNK N   1      25.160  15.653   6.752  0.00  0.00    -0.775 OA
HETATM   22  H   UNK N   1      25.960  15.567   6.271  0.00  0.00     0.167 HD
ENDBRANCH  19  21
ENDBRANCH  12  19
ENDBRANCH  10  12
ENDBRANCH   9  10
ENDBRANCH   5   9
BRANCH   4  23
HETATM   23  C   UNK N   1      20.962  19.545   3.270  0.00  0.00     0.221 C 
BRANCH  23  24
HETATM   24  O   UNK N   1      20.646  19.176   1.961  0.00  0.00    -0.292 OA
BRANCH  24  25
HETATM   25  P   UNK N   1      20.002  17.565   2.114  0.00  0.00     0.391 P 
HETATM   26  O   UNK N   1      21.194  16.589   2.314  0.00  0.00    -0.632 OA
BRANCH  25  27
HETATM   27  O   UNK N   1      18.995  17.413   3.519  0.00  0.00    -0.307 OA
HETATM   28  H   UNK N   1      19.041  17.148   4.451  0.00  0.00     0.222 HD
ENDBRANCH  25  27
BRANCH  25  29
HETATM   29  O   UNK N   1      19.153  17.067   0.684  0.00  0.00    -0.307 OA
HETATM   30  H   UNK N   1      19.190  17.149  -0.281  0.00  0.00     0.222 HD
ENDBRANCH  25  29
ENDBRANCH  24  25
ENDBRANCH  23  24
ENDBRANCH   4  23
BRANCH   6  31
HETATM   31  O   UNK N   1      25.114  18.256   5.554  0.00  0.00    -0.358 OA
HETATM   32  H   UNK N   1      25.623  17.506   5.318  0.00  0.00     0.217 HD
ENDBRANCH   6  31
TORSDOF 15
ENDMDL
MODEL 8
REMARK VINA RESULT:      -5.5     11.335     12.830
REMARK  15 active torsions:
REMARK  status: ('A' for Active; 'I' for Inactive)
REMARK    1  A    between atoms: C_3  and  C_2 
REMARK    2  A    between atoms: C_10  and  C_2 
REMARK    3  A    between atoms: C_11  and  C_3 
REMARK    4  A    between atoms: C_9  and  C_5 
REMARK    5  A    between atoms: N_15  and  C_5 
REMARK    6  A    between atoms: C_8  and  C_6 
REMARK    7  A    between atoms: O_24  and  C_6 
REMARK    8  A    between atoms: C_13  and  C_10 
REMARK    9  A    between atoms: C_10  and  N_15 
REMARK   10  A    between atoms: O_17  and  C_11 
REMARK   11  A    between atoms: O_18  and  C_12 
REMARK   12  A    between atoms: O_20  and  C_13 
REMARK   13  A    between atoms: P_25  and  O_21 
REMARK   14  A    between atoms: P_25  and  O_22 
REMARK   15  A    between atoms: P_25  and  O_24 
ROOT
HETATM    1  C   UNK N   1      19.539  13.058   0.871  0.00  0.00     0.071 C 
HETATM    2  C   UNK N   1      20.358  16.687   1.101  0.00  0.00     0.098 A 
HETATM    3  C   UNK N   1      19.764  14.412   1.448  0.00  0.00     0.039 A 
HETATM    4  C   UNK N   1      20.154  16.976   2.453  0.00  0.00    -0.008 A 
HETATM    5  C   UNK N   1      19.751  15.948   3.323  0.00  0.00     0.004 A 
HETATM    6  C   UNK N   1      19.552  14.655   2.813  0.00  0.00     0.096 A 
HETATM    7  N   UNK N   1      20.164  15.426   0.632  0.00  0.00    -0.367 N 
HETATM    8  H   UNK N   1      20.315  15.242  -0.323  0.00  0.00     0.165 HD
ENDROOT
BRANCH   5   9
HETATM    9  C   UNK N   1      19.483  16.255   4.766  0.00  0.00     0.157 C 
BRANCH   9  10
HETATM   10  N   UNK N   1      20.564  15.805   5.642  0.00  0.00    -0.404 N 
HETATM   11  H   UNK N   1      21.242  15.075   5.425  0.00  0.00     0.154 HD
BRANCH  10  12
HETATM   12  C   UNK N   1      20.506  16.581   6.886  0.00  0.00     0.176 C 
BRANCH  12  13
HETATM   13  C   UNK N   1      21.049  15.723   8.030  0.00  0.00     0.046 C 
BRANCH  13  14
HETATM   14  C   UNK N   1      20.872  14.241   7.716  0.00  0.00     0.112 C 
BRANCH  14  15
HETATM   15  C   UNK N   1      20.851  13.432   8.969  0.00  0.00     0.139 C 
HETATM   16  O   UNK N   1      21.629  12.503   9.106  0.00  0.00    -0.650 OA
BRANCH  15  17
HETATM   17  O   UNK N   1      20.000  13.746   9.964  0.00  0.00    -0.776 OA
HETATM   18  H   UNK N   1      20.316  14.020  10.802  0.00  0.00     0.167 HD
ENDBRANCH  15  17
ENDBRANCH  14  15
ENDBRANCH  13  14
ENDBRANCH  12  13
BRANCH  12  19
HETATM   19  C   UNK N   1      21.270  17.878   6.727  0.00  0.00     0.163 C 
HETATM   20  O   UNK N   1      20.863  18.893   7.270  0.00  0.00    -0.648 OA
BRANCH  19  21
HETATM   21  O   UNK N   1      22.402  17.930   5.996  0.00  0.00    -0.775 OA
HETATM   22  H   UNK N   1      22.633  17.515   5.189  0.00  0.00     0.167 HD
ENDBRANCH  19  21
ENDBRANCH  12  19
ENDBRANCH  10  12
ENDBRANCH   9  10
ENDBRANCH   5   9
BRANCH   4  23
HETATM   23  C   UNK N   1      20.300  18.381   2.942  0.00  0.00     0.221 C 
BRANCH  23  24
HETATM   24  O   UNK N   1      21.640  18.732   3.113  0.00  0.00    -0.292 OA
BRANCH  24  25
HETATM   25  P   UNK N   1      21.720  20.389   2.585  0.00  0.00     0.391 P 
HETATM   26  O   UNK N   1      21.490  20.415   1.049  0.00  0.00    -0.632 OA
BRANCH  25  27
HETATM   27  O   UNK N   1      20.456  21.344   3.293  0.00  0.00    -0.307 OA
HETATM   28  H   UNK N   1      20.041  22.218   3.214  0.00  0.00     0.222 HD
ENDBRANCH  25  27
BRANCH  25  29
HETATM   29  O   UNK N   1      23.277  21.093   2.892  0.00  0.00    -0.307 OA
HETATM   30  H   UNK N   1      23.701  21.955   3.027  0.00  0.00     0.222 HD
ENDBRANCH  25  29
ENDBRANCH  24  25
ENDBRANCH  23  24
ENDBRANCH   4  23
BRANCH   6  31
HETATM   31  O   UNK N   1      19.145  13.657   3.624  0.00  0.00    -0.358 OA
HETATM   32  H   UNK N   1      19.585  12.830   3.611  0.00  0.00     0.217 HD
ENDBRANCH   6  31
TORSDOF 15
ENDMDL
MODEL 9
REMARK VINA RESULT:      -5.4     12.707     15.889
REMARK  15 active torsions:
REMARK  status: ('A' for Active; 'I' for Inactive)
REMARK    1  A    between atoms: C_3  and  C_2 
REMARK    2  A    between atoms: C_10  and  C_2 
REMARK    3  A    between atoms: C_11  and  C_3 
REMARK    4  A    between atoms: C_9  and  C_5 
REMARK    5  A    between atoms: N_15  and  C_5 
REMARK    6  A    between atoms: C_8  and  C_6 
REMARK    7  A    between atoms: O_24  and  C_6 
REMARK    8  A    between atoms: C_13  and  C_10 
REMARK    9  A    between atoms: C_10  and  N_15 
REMARK   10  A    between atoms: O_17  and  C_11 
REMARK   11  A    between atoms: O_18  and  C_12 
REMARK   12  A    between atoms: O_20  and  C_13 
REMARK   13  A    between atoms: P_25  and  O_21 
REMARK   14  A    between atoms: P_25  and  O_22 
REMARK   15  A    between atoms: P_25  and  O_24 
ROOT
HETATM    1  C   UNK N   1      25.673  23.818  -8.168  0.00  0.00     0.071 C 
HETATM    2  C   UNK N   1      25.503  26.460  -5.543  0.00  0.00     0.098 A 
HETATM    3  C   UNK N   1      25.914  24.546  -6.890  0.00  0.00     0.039 A 
HETATM    4  C   UNK N   1      26.282  25.934  -4.509  0.00  0.00    -0.008 A 
HETATM    5  C   UNK N   1      26.899  24.682  -4.680  0.00  0.00     0.004 A 
HETATM    6  C   UNK N   1      26.709  23.982  -5.882  0.00  0.00     0.096 A 
HETATM    7  N   UNK N   1      25.338  25.765  -6.699  0.00  0.00    -0.367 N 
HETATM    8  H   UNK N   1      24.788  26.153  -7.416  0.00  0.00     0.165 HD
ENDROOT
BRANCH   5   9
HETATM    9  C   UNK N   1      27.700  24.086  -3.561  0.00  0.00     0.157 C 
BRANCH   9  10
HETATM   10  N   UNK N   1      29.140  24.173  -3.798  0.00  0.00    -0.404 N 
HETATM   11  H   UNK N   1      29.658  25.025  -4.012  0.00  0.00     0.154 HD
BRANCH  10  12
HETATM   12  C   UNK N   1      29.711  22.827  -3.677  0.00  0.00     0.176 C 
BRANCH  12  13
HETATM   13  C   UNK N   1      30.525  22.520  -4.935  0.00  0.00     0.046 C 
BRANCH  13  14
HETATM   14  C   UNK N   1      30.208  21.119  -5.447  0.00  0.00     0.112 C 
BRANCH  14  15
HETATM   15  C   UNK N   1      31.434  20.270  -5.466  0.00  0.00     0.139 C 
HETATM   16  O   UNK N   1      31.936  19.905  -4.417  0.00  0.00    -0.650 OA
BRANCH  15  17
HETATM   17  O   UNK N   1      31.965  19.875  -6.639  0.00  0.00    -0.776 OA
HETATM   18  H   UNK N   1      32.304  20.499  -7.250  0.00  0.00     0.167 HD
ENDBRANCH  15  17
ENDBRANCH  14  15
ENDBRANCH  13  14
ENDBRANCH  12  13
BRANCH  12  19
HETATM   19  C   UNK N   1      30.542  22.725  -2.416  0.00  0.00     0.163 C 
HETATM   20  O   UNK N   1      30.101  23.156  -1.362  0.00  0.00    -0.648 OA
BRANCH  19  21
HETATM   21  O   UNK N   1      31.765  22.159  -2.437  0.00  0.00    -0.775 OA
HETATM   22  H   UNK N   1      32.550  22.370  -1.970  0.00  0.00     0.167 HD
ENDBRANCH  19  21
ENDBRANCH  12  19
ENDBRANCH  10  12
ENDBRANCH   9  10
ENDBRANCH   5   9
BRANCH   4  23
HETATM   23  C   UNK N   1      26.397  26.674  -3.216  0.00  0.00     0.221 C 
BRANCH  23  24
HETATM   24  O   UNK N   1      25.608  27.826  -3.207  0.00  0.00    -0.292 OA
BRANCH  24  25
HETATM   25  P   UNK N   1      26.759  29.133  -3.212  0.00  0.00     0.391 P 
HETATM   26  O   UNK N   1      27.815  28.838  -4.312  0.00  0.00    -0.632 OA
BRANCH  25  27
HETATM   27  O   UNK N   1      26.008  30.639  -3.636  0.00  0.00    -0.307 OA
HETATM   28  H   UNK N   1      25.533  31.382  -3.230  0.00  0.00     0.222 HD
ENDBRANCH  25  27
BRANCH  25  29
HETATM   29  O   UNK N   1      27.601  29.263  -1.700  0.00  0.00    -0.307 OA
HETATM   30  H   UNK N   1      27.434  29.380  -0.752  0.00  0.00     0.222 HD
ENDBRANCH  25  29
ENDBRANCH  24  25
ENDBRANCH  23  24
ENDBRANCH   4  23
BRANCH   6  31
HETATM   31  O   UNK N   1      27.273  22.770  -6.062  0.00  0.00    -0.358 OA
HETATM   32  H   UNK N   1      27.246  22.131  -5.378  0.00  0.00     0.217 HD
ENDBRANCH   6  31
TORSDOF 15
ENDMDL
