MODEL 1
REMARK VINA RESULT:      -8.0      0.000      0.000
REMARK  12 active torsions:
REMARK  status: ('A' for Active; 'I' for Inactive)
REMARK    1  A    between atoms: C_25  and  C_21 
REMARK    2  A    between atoms: N_34  and  C_21 
REMARK    3  A    between atoms: C_26  and  C_22 
REMARK    4  A    between atoms: N_35  and  C_22 
REMARK    5  A    between atoms: C_29  and  C_23 
REMARK    6  A    between atoms: O_39  and  C_23 
REMARK    7  A    between atoms: C_30  and  C_24 
REMARK    8  A    between atoms: O_40  and  C_24 
REMARK    9  A    between atoms: O_39  and  C_27 
REMARK   10  A    between atoms: O_40  and  C_28 
REMARK   11  A    between atoms: C_31  and  O_36 
REMARK   12  A    between atoms: C_32  and  O_37 
ROOT
HETATM    1  C   UNK N   1      33.783  16.113   9.113  0.00  0.00     0.145 C 
HETATM    2  C   UNK N   1      35.511  14.031  10.382  0.00  0.00     0.145 C 
HETATM    3  C   UNK N   1      35.139  16.524   9.717  0.00  0.00     0.174 C 
HETATM    4  C   UNK N   1      36.127  15.368   9.929  0.00  0.00     0.174 C 
HETATM    5  C   UNK N   1      33.981  13.753   8.393  0.00  0.00     0.322 C 
HETATM    6  N   UNK N   1      33.877  15.085   8.094  0.00  0.00    -0.320 N 
HETATM    7  N   UNK N   1      34.875  13.271   9.308  0.00  0.00    -0.320 N 
HETATM    8  O   UNK N   1      33.467  12.946   7.624  0.00  0.00    -0.247 OA
ENDROOT
BRANCH   1   9
HETATM    9  C   UNK N   1      32.994  17.308   8.506  0.00  0.00     0.203 C 
BRANCH   9  10
HETATM   10  O   UNK N   1      31.815  17.582   9.172  0.00  0.00    -0.349 OA
BRANCH  10  11
HETATM   11  C   UNK N   1      30.624  17.734   8.534  0.00  0.00     0.068 A 
HETATM   12  C   UNK N   1      29.604  18.452   9.168  0.00  0.00     0.037 A 
HETATM   13  C   UNK N   1      28.389  18.681   8.516  0.00  0.00     0.003 A 
HETATM   14  C   UNK N   1      28.182  18.188   7.224  0.00  0.00     0.000 A 
HETATM   15  C   UNK N   1      29.189  17.460   6.586  0.00  0.00     0.003 A 
HETATM   16  C   UNK N   1      30.408  17.235   7.234  0.00  0.00     0.037 A 
ENDBRANCH  10  11
ENDBRANCH   9  10
ENDBRANCH   1   9
BRANCH   3  17
HETATM   17  O   UNK N   1      34.878  17.173  10.931  0.00  0.00    -0.391 OA
HETATM   18  H   UNK N   1      34.444  18.026  11.089  0.00  0.00     0.210 HD
ENDBRANCH   3  17
BRANCH   6  19
HETATM   19  C   UNK N   1      34.509  15.484   6.836  0.00  0.00     0.166 C 
BRANCH  19  20
HETATM   20  C   UNK N   1      33.525  15.955   5.827  0.00  0.00    -0.040 A 
HETATM   21  C   UNK N   1      32.652  15.029   5.271  0.00  0.00     0.009 A 
HETATM   22  C   UNK N   1      31.830  15.400   4.210  0.00  0.00     0.001 A 
HETATM   23  C   UNK N   1      31.910  16.691   3.678  0.00  0.00     0.000 A 
HETATM   24  C   UNK N   1      32.787  17.628   4.233  0.00  0.00     0.001 A 
HETATM   25  C   UNK N   1      33.589  17.266   5.317  0.00  0.00     0.009 A 
ENDBRANCH  19  20
ENDBRANCH   6  19
BRANCH   4  26
HETATM   26  O   UNK N   1      37.102  15.782  10.844  0.00  0.00    -0.391 OA
HETATM   27  H   UNK N   1      38.036  15.945  10.636  0.00  0.00     0.210 HD
ENDBRANCH   4  26
BRANCH   2  28
HETATM   28  C   UNK N   1      34.521  14.138  11.540  0.00  0.00     0.203 C 
BRANCH  28  29
HETATM   29  O   UNK N   1      35.161  14.223  12.752  0.00  0.00    -0.349 OA
BRANCH  29  30
HETATM   30  C   UNK N   1      35.540  13.143  13.474  0.00  0.00     0.068 A 
HETATM   31  C   UNK N   1      36.895  12.794  13.636  0.00  0.00     0.037 A 
HETATM   32  C   UNK N   1      37.246  11.678  14.398  0.00  0.00     0.003 A 
HETATM   33  C   UNK N   1      36.250  10.901  14.997  0.00  0.00     0.000 A 
HETATM   34  C   UNK N   1      34.904  11.242  14.832  0.00  0.00     0.003 A 
HETATM   35  C   UNK N   1      34.553  12.360  14.074  0.00  0.00     0.037 A 
ENDBRANCH  29  30
ENDBRANCH  28  29
ENDBRANCH   2  28
BRANCH   7  36
HETATM   36  C   UNK N   1      35.427  11.961   9.006  0.00  0.00     0.166 C 
BRANCH  36  37
HETATM   37  C   UNK N   1      35.172  10.981  10.066  0.00  0.00    -0.040 A 
HETATM   38  C   UNK N   1      33.862  10.662  10.428  0.00  0.00     0.009 A 
HETATM   39  C   UNK N   1      33.635   9.713  11.424  0.00  0.00     0.001 A 
HETATM   40  C   UNK N   1      34.719   9.086  12.049  0.00  0.00     0.000 A 
HETATM   41  C   UNK N   1      36.027   9.401  11.670  0.00  0.00     0.001 A 
HETATM   42  C   UNK N   1      36.254  10.346  10.673  0.00  0.00     0.009 A 
ENDBRANCH  36  37
ENDBRANCH   7  36
TORSDOF 12
ENDMDL
MODEL 2
REMARK VINA RESULT:      -7.7      1.845      2.783
REMARK  12 active torsions:
REMARK  status: ('A' for Active; 'I' for Inactive)
REMARK    1  A    between atoms: C_25  and  C_21 
REMARK    2  A    between atoms: N_34  and  C_21 
REMARK    3  A    between atoms: C_26  and  C_22 
REMARK    4  A    between atoms: N_35  and  C_22 
REMARK    5  A    between atoms: C_29  and  C_23 
REMARK    6  A    between atoms: O_39  and  C_23 
REMARK    7  A    between atoms: C_30  and  C_24 
REMARK    8  A    between atoms: O_40  and  C_24 
REMARK    9  A    between atoms: O_39  and  C_27 
REMARK   10  A    between atoms: O_40  and  C_28 
REMARK   11  A    between atoms: C_31  and  O_36 
REMARK   12  A    between atoms: C_32  and  O_37 
ROOT
HETATM    1  C   UNK N   1      33.868  15.948   8.862  0.00  0.00     0.145 C 
HETATM    2  C   UNK N   1      35.793  13.975  10.019  0.00  0.00     0.145 C 
HETATM    3  C   UNK N   1      35.068  16.457   9.684  0.00  0.00     0.174 C 
HETATM    4  C   UNK N   1      36.213  15.446   9.847  0.00  0.00     0.174 C 
HETATM    5  C   UNK N   1      34.537  13.798   7.835  0.00  0.00     0.322 C 
HETATM    6  N   UNK N   1      34.237  15.129   7.724  0.00  0.00    -0.320 N 
HETATM    7  N   UNK N   1      35.406  13.314   8.774  0.00  0.00    -0.320 N 
HETATM    8  O   UNK N   1      34.248  13.059   6.898  0.00  0.00    -0.247 OA
ENDROOT
BRANCH   1   9
HETATM    9  C   UNK N   1      32.951  17.091   8.343  0.00  0.00     0.203 C 
BRANCH   9  10
HETATM   10  O   UNK N   1      31.604  16.790   8.417  0.00  0.00    -0.349 OA
BRANCH  10  11
HETATM   11  C   UNK N   1      30.849  16.512   7.322  0.00  0.00     0.068 A 
HETATM   12  C   UNK N   1      30.083  17.534   6.751  0.00  0.00     0.037 A 
HETATM   13  C   UNK N   1      29.343  17.299   5.588  0.00  0.00     0.003 A 
HETATM   14  C   UNK N   1      29.359  16.036   4.989  0.00  0.00     0.000 A 
HETATM   15  C   UNK N   1      30.111  15.004   5.557  0.00  0.00     0.003 A 
HETATM   16  C   UNK N   1      30.856  15.239   6.717  0.00  0.00     0.037 A 
ENDBRANCH  10  11
ENDBRANCH   9  10
ENDBRANCH   1   9
BRANCH   3  17
HETATM   17  O   UNK N   1      34.581  16.849  10.938  0.00  0.00    -0.391 OA
HETATM   18  H   UNK N   1      33.677  17.088  11.197  0.00  0.00     0.210 HD
ENDBRANCH   3  17
BRANCH   6  19
HETATM   19  C   UNK N   1      34.913  15.821   6.626  0.00  0.00     0.166 C 
BRANCH  19  20
HETATM   20  C   UNK N   1      34.007  16.099   5.483  0.00  0.00    -0.040 A 
HETATM   21  C   UNK N   1      33.820  15.107   4.529  0.00  0.00     0.009 A 
HETATM   22  C   UNK N   1      33.111  15.388   3.364  0.00  0.00     0.001 A 
HETATM   23  C   UNK N   1      32.619  16.676   3.135  0.00  0.00     0.000 A 
HETATM   24  C   UNK N   1      32.803  17.680   4.091  0.00  0.00     0.001 A 
HETATM   25  C   UNK N   1      33.488  17.391   5.273  0.00  0.00     0.009 A 
ENDBRANCH  19  20
ENDBRANCH   6  19
BRANCH   4  26
HETATM   26  O   UNK N   1      37.007  15.849  10.926  0.00  0.00    -0.391 OA
HETATM   27  H   UNK N   1      37.319  16.753  11.090  0.00  0.00     0.210 HD
ENDBRANCH   4  26
BRANCH   2  28
HETATM   28  C   UNK N   1      34.689  13.737  11.047  0.00  0.00     0.203 C 
BRANCH  28  29
HETATM   29  O   UNK N   1      34.972  14.342  12.247  0.00  0.00    -0.349 OA
BRANCH  29  30
HETATM   30  C   UNK N   1      35.469  13.681  13.318  0.00  0.00     0.068 A 
HETATM   31  C   UNK N   1      36.439  14.255  14.163  0.00  0.00     0.037 A 
HETATM   32  C   UNK N   1      36.920  13.545  15.265  0.00  0.00     0.003 A 
HETATM   33  C   UNK N   1      36.443  12.258  15.527  0.00  0.00     0.000 A 
HETATM   34  C   UNK N   1      35.485  11.683  14.687  0.00  0.00     0.003 A 
HETATM   35  C   UNK N   1      35.001  12.394  13.587  0.00  0.00     0.037 A 
ENDBRANCH  29  30
ENDBRANCH  28  29
ENDBRANCH   2  28
BRANCH   7  36
HETATM   36  C   UNK N   1      36.200  12.172   8.356  0.00  0.00     0.166 C 
BRANCH  36  37
HETATM   37  C   UNK N   1      37.587  12.529   8.045  0.00  0.00    -0.040 A 
HETATM   38  C   UNK N   1      38.636  11.988   8.790  0.00  0.00     0.009 A 
HETATM   39  C   UNK N   1      39.951  12.320   8.471  0.00  0.00     0.001 A 
HETATM   40  C   UNK N   1      40.210  13.190   7.405  0.00  0.00     0.000 A 
HETATM   41  C   UNK N   1      39.155  13.717   6.655  0.00  0.00     0.001 A 
HETATM   42  C   UNK N   1      37.841  13.381   6.972  0.00  0.00     0.009 A 
ENDBRANCH  36  37
ENDBRANCH   7  36
TORSDOF 12
ENDMDL
MODEL 3
REMARK VINA RESULT:      -7.5      8.866     12.898
REMARK  12 active torsions:
REMARK  status: ('A' for Active; 'I' for Inactive)
REMARK    1  A    between atoms: C_25  and  C_21 
REMARK    2  A    between atoms: N_34  and  C_21 
REMARK    3  A    between atoms: C_26  and  C_22 
REMARK    4  A    between atoms: N_35  and  C_22 
REMARK    5  A    between atoms: C_29  and  C_23 
REMARK    6  A    between atoms: O_39  and  C_23 
REMARK    7  A    between atoms: C_30  and  C_24 
REMARK    8  A    between atoms: O_40  and  C_24 
REMARK    9  A    between atoms: O_39  and  C_27 
REMARK   10  A    between atoms: O_40  and  C_28 
REMARK   11  A    between atoms: C_31  and  O_36 
REMARK   12  A    between atoms: C_32  and  O_37 
ROOT
HETATM    1  C   UNK N   1      21.681  16.417   6.629  0.00  0.00     0.145 C 
HETATM    2  C   UNK N   1      23.543  16.366   4.291  0.00  0.00     0.145 C 
HETATM    3  C   UNK N   1      21.100  16.406   5.203  0.00  0.00     0.174 C 
HETATM    4  C   UNK N   1      22.075  15.935   4.113  0.00  0.00     0.174 C 
HETATM    5  C   UNK N   1      23.873  15.270   6.542  0.00  0.00     0.322 C 
HETATM    6  N   UNK N   1      22.557  15.298   6.919  0.00  0.00    -0.320 N 
HETATM    7  N   UNK N   1      24.283  15.578   5.274  0.00  0.00    -0.320 N 
HETATM    8  O   UNK N   1      24.670  14.684   7.268  0.00  0.00    -0.247 OA
ENDROOT
BRANCH   1   9
HETATM    9  C   UNK N   1      20.590  16.460   7.736  0.00  0.00     0.203 C 
BRANCH   9  10
HETATM   10  O   UNK N   1      20.295  17.740   8.167  0.00  0.00    -0.349 OA
BRANCH  10  11
HETATM   11  C   UNK N   1      19.328  18.005   9.084  0.00  0.00     0.068 A 
HETATM   12  C   UNK N   1      19.524  19.056   9.988  0.00  0.00     0.037 A 
HETATM   13  C   UNK N   1      18.524  19.397  10.904  0.00  0.00     0.003 A 
HETATM   14  C   UNK N   1      17.321  18.686  10.926  0.00  0.00     0.000 A 
HETATM   15  C   UNK N   1      17.119  17.627  10.037  0.00  0.00     0.003 A 
HETATM   16  C   UNK N   1      18.116  17.288   9.116  0.00  0.00     0.037 A 
ENDBRANCH  10  11
ENDBRANCH   9  10
ENDBRANCH   1   9
BRANCH   3  17
HETATM   17  O   UNK N   1      20.646  17.702   4.924  0.00  0.00    -0.391 OA
HETATM   18  H   UNK N   1      20.625  18.174   4.077  0.00  0.00     0.210 HD
ENDBRANCH   3  17
BRANCH   6  19
HETATM   19  C   UNK N   1      21.915  13.986   7.008  0.00  0.00     0.166 C 
BRANCH  19  20
HETATM   20  C   UNK N   1      22.312  13.238   8.228  0.00  0.00    -0.040 A 
HETATM   21  C   UNK N   1      22.906  11.991   8.077  0.00  0.00     0.009 A 
HETATM   22  C   UNK N   1      23.141  11.194   9.194  0.00  0.00     0.001 A 
HETATM   23  C   UNK N   1      22.747  11.629  10.462  0.00  0.00     0.000 A 
HETATM   24  C   UNK N   1      22.148  12.882  10.622  0.00  0.00     0.001 A 
HETATM   25  C   UNK N   1      21.939  13.695   9.506  0.00  0.00     0.009 A 
ENDBRANCH  19  20
ENDBRANCH   6  19
BRANCH   4  26
HETATM   26  O   UNK N   1      21.594  16.368   2.872  0.00  0.00    -0.391 OA
HETATM   27  H   UNK N   1      20.666  16.557   2.663  0.00  0.00     0.210 HD
ENDBRANCH   4  26
BRANCH   2  28
HETATM   28  C   UNK N   1      23.744  17.844   4.618  0.00  0.00     0.203 C 
BRANCH  28  29
HETATM   29  O   UNK N   1      24.720  18.411   3.836  0.00  0.00    -0.349 OA
BRANCH  29  30
HETATM   30  C   UNK N   1      25.702  19.203   4.325  0.00  0.00     0.068 A 
HETATM   31  C   UNK N   1      26.681  19.776   3.490  0.00  0.00     0.037 A 
HETATM   32  C   UNK N   1      27.673  20.597   4.031  0.00  0.00     0.003 A 
HETATM   33  C   UNK N   1      27.698  20.846   5.406  0.00  0.00     0.000 A 
HETATM   34  C   UNK N   1      26.731  20.274   6.238  0.00  0.00     0.003 A 
HETATM   35  C   UNK N   1      25.737  19.456   5.697  0.00  0.00     0.037 A 
ENDBRANCH  29  30
ENDBRANCH  28  29
ENDBRANCH   2  28
BRANCH   7  36
HETATM   36  C   UNK N   1      25.430  14.827   4.794  0.00  0.00     0.166 C 
BRANCH  36  37
HETATM   37  C   UNK N   1      26.643  15.645   4.699  0.00  0.00    -0.040 A 
HETATM   38  C   UNK N   1      27.247  16.143   5.855  0.00  0.00     0.009 A 
HETATM   39  C   UNK N   1      28.411  16.902   5.750  0.00  0.00     0.001 A 
HETATM   40  C   UNK N   1      28.967  17.156   4.491  0.00  0.00     0.000 A 
HETATM   41  C   UNK N   1      28.364  16.641   3.339  0.00  0.00     0.001 A 
HETATM   42  C   UNK N   1      27.203  15.880   3.444  0.00  0.00     0.009 A 
ENDBRANCH  36  37
ENDBRANCH   7  36
TORSDOF 12
ENDMDL
MODEL 4
REMARK VINA RESULT:      -7.4      9.558     14.354
REMARK  12 active torsions:
REMARK  status: ('A' for Active; 'I' for Inactive)
REMARK    1  A    between atoms: C_25  and  C_21 
REMARK    2  A    between atoms: N_34  and  C_21 
REMARK    3  A    between atoms: C_26  and  C_22 
REMARK    4  A    between atoms: N_35  and  C_22 
REMARK    5  A    between atoms: C_29  and  C_23 
REMARK    6  A    between atoms: O_39  and  C_23 
REMARK    7  A    between atoms: C_30  and  C_24 
REMARK    8  A    between atoms: O_40  and  C_24 
REMARK    9  A    between atoms: O_39  and  C_27 
REMARK   10  A    between atoms: O_40  and  C_28 
REMARK   11  A    between atoms: C_31  and  O_36 
REMARK   12  A    between atoms: C_32  and  O_37 
ROOT
HETATM    1  C   UNK N   1      22.431  14.334   7.012  0.00  0.00     0.145 C 
HETATM    2  C   UNK N   1      20.573  16.393   5.897  0.00  0.00     0.145 C 
HETATM    3  C   UNK N   1      20.984  13.936   6.666  0.00  0.00     0.174 C 
HETATM    4  C   UNK N   1      20.262  14.897   5.710  0.00  0.00     0.174 C 
HETATM    5  C   UNK N   1      23.062  16.199   5.512  0.00  0.00     0.322 C 
HETATM    6  N   UNK N   1      23.173  14.891   5.897  0.00  0.00    -0.320 N 
HETATM    7  N   UNK N   1      21.853  16.813   5.330  0.00  0.00    -0.320 N 
HETATM    8  O   UNK N   1      24.053  16.752   5.044  0.00  0.00    -0.247 OA
ENDROOT
BRANCH   1   9
HETATM    9  C   UNK N   1      23.268  13.161   7.596  0.00  0.00     0.203 C 
BRANCH   9  10
HETATM   10  O   UNK N   1      22.545  12.336   8.436  0.00  0.00    -0.349 OA
BRANCH  10  11
HETATM   11  C   UNK N   1      22.797  12.234   9.768  0.00  0.00     0.068 A 
HETATM   12  C   UNK N   1      21.719  12.175  10.657  0.00  0.00     0.037 A 
HETATM   13  C   UNK N   1      21.940  12.007  12.028  0.00  0.00     0.003 A 
HETATM   14  C   UNK N   1      23.244  11.902  12.520  0.00  0.00     0.000 A 
HETATM   15  C   UNK N   1      24.329  11.972  11.643  0.00  0.00     0.003 A 
HETATM   16  C   UNK N   1      24.110  12.133  10.271  0.00  0.00     0.037 A 
ENDBRANCH  10  11
ENDBRANCH   9  10
ENDBRANCH   1   9
BRANCH   3  17
HETATM   17  O   UNK N   1      20.279  13.827   7.873  0.00  0.00    -0.391 OA
HETATM   18  H   UNK N   1      20.621  13.778   8.779  0.00  0.00     0.210 HD
ENDBRANCH   3  17
BRANCH   6  19
HETATM   19  C   UNK N   1      23.507  13.959   4.818  0.00  0.00     0.166 C 
BRANCH  19  20
HETATM   20  C   UNK N   1      24.927  14.062   4.394  0.00  0.00    -0.040 A 
HETATM   21  C   UNK N   1      25.203  14.273   3.050  0.00  0.00     0.009 A 
HETATM   22  C   UNK N   1      26.517  14.211   2.593  0.00  0.00     0.001 A 
HETATM   23  C   UNK N   1      27.554  13.900   3.477  0.00  0.00     0.000 A 
HETATM   24  C   UNK N   1      27.283  13.686   4.832  0.00  0.00     0.001 A 
HETATM   25  C   UNK N   1      25.969  13.777   5.297  0.00  0.00     0.009 A 
ENDBRANCH  19  20
ENDBRANCH   6  19
BRANCH   4  26
HETATM   26  O   UNK N   1      18.884  14.675   5.818  0.00  0.00    -0.391 OA
HETATM   27  H   UNK N   1      18.385  14.627   6.649  0.00  0.00     0.210 HD
ENDBRANCH   4  26
BRANCH   2  28
HETATM   28  C   UNK N   1      20.507  16.888   7.340  0.00  0.00     0.203 C 
BRANCH  28  29
HETATM   29  O   UNK N   1      19.252  16.730   7.877  0.00  0.00    -0.349 OA
BRANCH  29  30
HETATM   30  C   UNK N   1      18.770  17.491   8.886  0.00  0.00     0.068 A 
HETATM   31  C   UNK N   1      19.535  18.515   9.478  0.00  0.00     0.037 A 
HETATM   32  C   UNK N   1      18.997  19.286  10.510  0.00  0.00     0.003 A 
HETATM   33  C   UNK N   1      17.699  19.036  10.963  0.00  0.00     0.000 A 
HETATM   34  C   UNK N   1      16.940  18.015  10.383  0.00  0.00     0.003 A 
HETATM   35  C   UNK N   1      17.476  17.247   9.347  0.00  0.00     0.037 A 
ENDBRANCH  29  30
ENDBRANCH  28  29
ENDBRANCH   2  28
BRANCH   7  36
HETATM   36  C   UNK N   1      21.814  17.806   4.270  0.00  0.00     0.166 C 
BRANCH  36  37
HETATM   37  C   UNK N   1      21.276  17.274   3.014  0.00  0.00    -0.040 A 
HETATM   38  C   UNK N   1      21.651  16.004   2.572  0.00  0.00     0.009 A 
HETATM   39  C   UNK N   1      21.116  15.504   1.386  0.00  0.00     0.001 A 
HETATM   40  C   UNK N   1      20.206  16.274   0.652  0.00  0.00     0.000 A 
HETATM   41  C   UNK N   1      19.826  17.539   1.109  0.00  0.00     0.001 A 
HETATM   42  C   UNK N   1      20.358  18.038   2.296  0.00  0.00     0.009 A 
ENDBRANCH  36  37
ENDBRANCH   7  36
TORSDOF 12
ENDMDL
MODEL 5
REMARK VINA RESULT:      -7.3      1.844      8.960
REMARK  12 active torsions:
REMARK  status: ('A' for Active; 'I' for Inactive)
REMARK    1  A    between atoms: C_25  and  C_21 
REMARK    2  A    between atoms: N_34  and  C_21 
REMARK    3  A    between atoms: C_26  and  C_22 
REMARK    4  A    between atoms: N_35  and  C_22 
REMARK    5  A    between atoms: C_29  and  C_23 
REMARK    6  A    between atoms: O_39  and  C_23 
REMARK    7  A    between atoms: C_30  and  C_24 
REMARK    8  A    between atoms: O_40  and  C_24 
REMARK    9  A    between atoms: O_39  and  C_27 
REMARK   10  A    between atoms: O_40  and  C_28 
REMARK   11  A    between atoms: C_31  and  O_36 
REMARK   12  A    between atoms: C_32  and  O_37 
ROOT
HETATM    1  C   UNK N   1      34.822  11.846   9.911  0.00  0.00     0.145 C 
HETATM    2  C   UNK N   1      34.347  13.898   7.790  0.00  0.00     0.145 C 
HETATM    3  C   UNK N   1      35.572  11.732   8.570  0.00  0.00     0.174 C 
HETATM    4  C   UNK N   1      35.616  13.026   7.744  0.00  0.00     0.174 C 
HETATM    5  C   UNK N   1      34.351  14.246  10.291  0.00  0.00     0.322 C 
HETATM    6  N   UNK N   1      35.036  13.103  10.603  0.00  0.00    -0.320 N 
HETATM    7  N   UNK N   1      34.213  14.695   9.007  0.00  0.00    -0.320 N 
HETATM    8  O   UNK N   1      34.100  15.035  11.197  0.00  0.00    -0.247 OA
ENDROOT
BRANCH   1   9
HETATM    9  C   UNK N   1      35.162  10.698  10.904  0.00  0.00     0.203 C 
BRANCH   9  10
HETATM   10  O   UNK N   1      34.152  10.440  11.811  0.00  0.00    -0.349 OA
BRANCH  10  11
HETATM   11  C   UNK N   1      34.391  10.100  13.105  0.00  0.00     0.068 A 
HETATM   12  C   UNK N   1      35.341   9.109  13.378  0.00  0.00     0.037 A 
HETATM   13  C   UNK N   1      35.657   8.777  14.700  0.00  0.00     0.003 A 
HETATM   14  C   UNK N   1      35.021   9.432  15.758  0.00  0.00     0.000 A 
HETATM   15  C   UNK N   1      34.063  10.414  15.497  0.00  0.00     0.003 A 
HETATM   16  C   UNK N   1      33.749  10.752  14.176  0.00  0.00     0.037 A 
ENDBRANCH  10  11
ENDBRANCH   9  10
ENDBRANCH   1   9
BRANCH   3  17
HETATM   17  O   UNK N   1      34.964  10.705   7.835  0.00  0.00    -0.391 OA
HETATM   18  H   UNK N   1      35.041  10.500   6.890  0.00  0.00     0.210 HD
ENDBRANCH   3  17
BRANCH   6  19
HETATM   19  C   UNK N   1      36.380  13.319  11.140  0.00  0.00     0.166 C 
BRANCH  19  20
HETATM   20  C   UNK N   1      36.475  12.993  12.586  0.00  0.00    -0.040 A 
HETATM   21  C   UNK N   1      35.752  13.764  13.488  0.00  0.00     0.009 A 
HETATM   22  C   UNK N   1      35.943  13.593  14.857  0.00  0.00     0.001 A 
HETATM   23  C   UNK N   1      36.887  12.675  15.324  0.00  0.00     0.000 A 
HETATM   24  C   UNK N   1      37.620  11.897  14.423  0.00  0.00     0.001 A 
HETATM   25  C   UNK N   1      37.407  12.046  13.051  0.00  0.00     0.009 A 
ENDBRANCH  19  20
ENDBRANCH   6  19
BRANCH   4  26
HETATM   26  O   UNK N   1      35.925  12.695   6.420  0.00  0.00    -0.391 OA
HETATM   27  H   UNK N   1      35.390  12.925   5.643  0.00  0.00     0.210 HD
ENDBRANCH   4  26
BRANCH   2  28
HETATM   28  C   UNK N   1      33.039  13.140   7.570  0.00  0.00     0.203 C 
BRANCH  28  29
HETATM   29  O   UNK N   1      32.945  12.644   6.293  0.00  0.00    -0.349 OA
BRANCH  29  30
HETATM   30  C   UNK N   1      32.485  13.363   5.244  0.00  0.00     0.068 A 
HETATM   31  C   UNK N   1      33.345  13.853   4.242  0.00  0.00     0.037 A 
HETATM   32  C   UNK N   1      32.830  14.582   3.168  0.00  0.00     0.003 A 
HETATM   33  C   UNK N   1      31.457  14.832   3.091  0.00  0.00     0.000 A 
HETATM   34  C   UNK N   1      30.601  14.352   4.087  0.00  0.00     0.003 A 
HETATM   35  C   UNK N   1      31.116  13.620   5.158  0.00  0.00     0.037 A 
ENDBRANCH  29  30
ENDBRANCH  28  29
ENDBRANCH   2  28
BRANCH   7  36
HETATM   36  C   UNK N   1      34.194  16.140   8.853  0.00  0.00     0.166 C 
BRANCH  36  37
HETATM   37  C   UNK N   1      33.413  16.577   7.692  0.00  0.00    -0.040 A 
HETATM   38  C   UNK N   1      32.018  16.598   7.751  0.00  0.00     0.009 A 
HETATM   39  C   UNK N   1      31.289  17.035   6.646  0.00  0.00     0.001 A 
HETATM   40  C   UNK N   1      31.959  17.453   5.490  0.00  0.00     0.000 A 
HETATM   41  C   UNK N   1      33.356  17.441   5.444  0.00  0.00     0.001 A 
HETATM   42  C   UNK N   1      34.084  17.008   6.550  0.00  0.00     0.009 A 
ENDBRANCH  36  37
ENDBRANCH   7  36
TORSDOF 12
ENDMDL
MODEL 6
REMARK VINA RESULT:      -7.2      1.940      2.851
REMARK  12 active torsions:
REMARK  status: ('A' for Active; 'I' for Inactive)
REMARK    1  A    between atoms: C_25  and  C_21 
REMARK    2  A    between atoms: N_34  and  C_21 
REMARK    3  A    between atoms: C_26  and  C_22 
REMARK    4  A    between atoms: N_35  and  C_22 
REMARK    5  A    between atoms: C_29  and  C_23 
REMARK    6  A    between atoms: O_39  and  C_23 
REMARK    7  A    between atoms: C_30  and  C_24 
REMARK    8  A    between atoms: O_40  and  C_24 
REMARK    9  A    between atoms: O_39  and  C_27 
REMARK   10  A    between atoms: O_40  and  C_28 
REMARK   11  A    between atoms: C_31  and  O_36 
REMARK   12  A    between atoms: C_32  and  O_37 
ROOT
HETATM    1  C   UNK N   1      33.739  14.742   8.844  0.00  0.00     0.145 C 
HETATM    2  C   UNK N   1      36.523  14.126   9.740  0.00  0.00     0.145 C 
HETATM    3  C   UNK N   1      34.333  15.510  10.040  0.00  0.00     0.174 C 
HETATM    4  C   UNK N   1      35.865  15.460  10.141  0.00  0.00     0.174 C 
HETATM    5  C   UNK N   1      35.623  14.081   7.381  0.00  0.00     0.322 C 
HETATM    6  N   UNK N   1      34.518  14.851   7.626  0.00  0.00    -0.320 N 
HETATM    7  N   UNK N   1      36.625  13.919   8.297  0.00  0.00    -0.320 N 
HETATM    8  O   UNK N   1      35.860  13.761   6.220  0.00  0.00    -0.247 OA
ENDROOT
BRANCH   1   9
HETATM    9  C   UNK N   1      32.279  15.162   8.509  0.00  0.00     0.203 C 
BRANCH   9  10
HETATM   10  O   UNK N   1      31.960  16.433   8.947  0.00  0.00    -0.349 OA
BRANCH  10  11
HETATM   11  C   UNK N   1      30.888  17.127   8.480  0.00  0.00     0.068 A 
HETATM   12  C   UNK N   1      30.388  16.823   7.209  0.00  0.00     0.037 A 
HETATM   13  C   UNK N   1      29.249  17.472   6.722  0.00  0.00     0.003 A 
HETATM   14  C   UNK N   1      28.605  18.437   7.502  0.00  0.00     0.000 A 
HETATM   15  C   UNK N   1      29.103  18.758   8.768  0.00  0.00     0.003 A 
HETATM   16  C   UNK N   1      30.238  18.105   9.259  0.00  0.00     0.037 A 
ENDBRANCH  10  11
ENDBRANCH   9  10
ENDBRANCH   1   9
BRANCH   3  17
HETATM   17  O   UNK N   1      33.750  14.991  11.204  0.00  0.00    -0.391 OA
HETATM   18  H   UNK N   1      33.919  15.226  12.130  0.00  0.00     0.210 HD
ENDBRANCH   3  17
BRANCH   6  19
HETATM   19  C   UNK N   1      34.535  16.169   6.990  0.00  0.00     0.166 C 
BRANCH  19  20
HETATM   20  C   UNK N   1      33.701  16.221   5.762  0.00  0.00    -0.040 A 
HETATM   21  C   UNK N   1      33.396  17.463   5.219  0.00  0.00     0.009 A 
HETATM   22  C   UNK N   1      32.487  17.558   4.169  0.00  0.00     0.001 A 
HETATM   23  C   UNK N   1      31.852  16.411   3.684  0.00  0.00     0.000 A 
HETATM   24  C   UNK N   1      32.153  15.157   4.226  0.00  0.00     0.001 A 
HETATM   25  C   UNK N   1      33.088  15.057   5.259  0.00  0.00     0.009 A 
ENDBRANCH  19  20
ENDBRANCH   6  19
BRANCH   4  26
HETATM   26  O   UNK N   1      36.234  15.805  11.446  0.00  0.00    -0.391 OA
HETATM   27  H   UNK N   1      37.040  16.284  11.695  0.00  0.00     0.210 HD
ENDBRANCH   4  26
BRANCH   2  28
HETATM   28  C   UNK N   1      35.883  12.883  10.355  0.00  0.00     0.203 C 
BRANCH  28  29
HETATM   29  O   UNK N   1      36.064  12.836  11.715  0.00  0.00    -0.349 OA
BRANCH  29  30
HETATM   30  C   UNK N   1      35.270  12.128  12.551  0.00  0.00     0.068 A 
HETATM   31  C   UNK N   1      34.624  10.946  12.140  0.00  0.00     0.037 A 
HETATM   32  C   UNK N   1      33.820  10.237  13.036  0.00  0.00     0.003 A 
HETATM   33  C   UNK N   1      33.652  10.705  14.342  0.00  0.00     0.000 A 
HETATM   34  C   UNK N   1      34.287  11.882  14.750  0.00  0.00     0.003 A 
HETATM   35  C   UNK N   1      35.093  12.589  13.856  0.00  0.00     0.037 A 
ENDBRANCH  29  30
ENDBRANCH  28  29
ENDBRANCH   2  28
BRANCH   7  36
HETATM   36  C   UNK N   1      37.961  13.789   7.740  0.00  0.00     0.166 C 
BRANCH  36  37
HETATM   37  C   UNK N   1      38.558  12.476   7.999  0.00  0.00    -0.040 A 
HETATM   38  C   UNK N   1      39.789  12.380   8.651  0.00  0.00     0.009 A 
HETATM   39  C   UNK N   1      40.336  11.124   8.909  0.00  0.00     0.001 A 
HETATM   40  C   UNK N   1      39.646   9.970   8.517  0.00  0.00     0.000 A 
HETATM   41  C   UNK N   1      38.407  10.075   7.877  0.00  0.00     0.001 A 
HETATM   42  C   UNK N   1      37.860  11.330   7.623  0.00  0.00     0.009 A 
ENDBRANCH  36  37
ENDBRANCH   7  36
TORSDOF 12
ENDMDL
MODEL 7
REMARK VINA RESULT:      -7.1      5.727      9.345
REMARK  12 active torsions:
REMARK  status: ('A' for Active; 'I' for Inactive)
REMARK    1  A    between atoms: C_25  and  C_21 
REMARK    2  A    between atoms: N_34  and  C_21 
REMARK    3  A    between atoms: C_26  and  C_22 
REMARK    4  A    between atoms: N_35  and  C_22 
REMARK    5  A    between atoms: C_29  and  C_23 
REMARK    6  A    between atoms: O_39  and  C_23 
REMARK    7  A    between atoms: C_30  and  C_24 
REMARK    8  A    between atoms: O_40  and  C_24 
REMARK    9  A    between atoms: O_39  and  C_27 
REMARK   10  A    between atoms: O_40  and  C_28 
REMARK   11  A    between atoms: C_31  and  O_36 
REMARK   12  A    between atoms: C_32  and  O_37 
ROOT
HETATM    1  C   UNK N   1      26.252  14.888   4.911  0.00  0.00     0.145 C 
HETATM    2  C   UNK N   1      28.525  16.825   5.046  0.00  0.00     0.145 C 
HETATM    3  C   UNK N   1      26.009  16.297   5.485  0.00  0.00     0.174 C 
HETATM    4  C   UNK N   1      27.074  17.338   5.110  0.00  0.00     0.174 C 
HETATM    5  C   UNK N   1      28.109  15.065   3.284  0.00  0.00     0.322 C 
HETATM    6  N   UNK N   1      26.781  14.883   3.561  0.00  0.00    -0.320 N 
HETATM    7  N   UNK N   1      28.843  16.082   3.829  0.00  0.00    -0.320 N 
HETATM    8  O   UNK N   1      28.583  14.482   2.313  0.00  0.00    -0.247 OA
ENDROOT
BRANCH   1   9
HETATM    9  C   UNK N   1      24.981  13.993   4.923  0.00  0.00     0.203 C 
BRANCH   9  10
HETATM   10  O   UNK N   1      23.815  14.697   5.157  0.00  0.00    -0.349 OA
BRANCH  10  11
HETATM   11  C   UNK N   1      22.766  14.696   4.293  0.00  0.00     0.068 A 
HETATM   12  C   UNK N   1      22.330  15.914   3.758  0.00  0.00     0.037 A 
HETATM   13  C   UNK N   1      21.294  15.944   2.819  0.00  0.00     0.003 A 
HETATM   14  C   UNK N   1      20.683  14.755   2.411  0.00  0.00     0.000 A 
HETATM   15  C   UNK N   1      21.102  13.535   2.946  0.00  0.00     0.003 A 
HETATM   16  C   UNK N   1      22.142  13.502   3.882  0.00  0.00     0.037 A 
ENDBRANCH  10  11
ENDBRANCH   9  10
ENDBRANCH   1   9
BRANCH   3  17
HETATM   17  O   UNK N   1      25.918  16.173   6.878  0.00  0.00    -0.391 OA
HETATM   18  H   UNK N   1      25.409  15.536   7.404  0.00  0.00     0.210 HD
ENDBRANCH   3  17
BRANCH   6  19
HETATM   19  C   UNK N   1      25.867  15.339   2.512  0.00  0.00     0.166 C 
BRANCH  19  20
HETATM   20  C   UNK N   1      25.327  14.219   1.700  0.00  0.00    -0.040 A 
HETATM   21  C   UNK N   1      24.237  14.464   0.875  0.00  0.00     0.009 A 
HETATM   22  C   UNK N   1      23.604  13.407   0.227  0.00  0.00     0.001 A 
HETATM   23  C   UNK N   1      24.040  12.095   0.434  0.00  0.00     0.000 A 
HETATM   24  C   UNK N   1      25.137  11.840   1.264  0.00  0.00     0.001 A 
HETATM   25  C   UNK N   1      25.790  12.903   1.890  0.00  0.00     0.009 A 
ENDBRANCH  19  20
ENDBRANCH   6  19
BRANCH   4  26
HETATM   26  O   UNK N   1      26.982  18.408   6.007  0.00  0.00    -0.391 OA
HETATM   27  H   UNK N   1      26.536  19.252   5.832  0.00  0.00     0.210 HD
ENDBRANCH   4  26
BRANCH   2  28
HETATM   28  C   UNK N   1      28.964  15.987   6.245  0.00  0.00     0.203 C 
BRANCH  28  29
HETATM   29  O   UNK N   1      29.526  16.761   7.230  0.00  0.00    -0.349 OA
BRANCH  29  30
HETATM   30  C   UNK N   1      30.821  16.664   7.608  0.00  0.00     0.068 A 
HETATM   31  C   UNK N   1      31.552  17.782   8.054  0.00  0.00     0.037 A 
HETATM   32  C   UNK N   1      32.885  17.639   8.447  0.00  0.00     0.003 A 
HETATM   33  C   UNK N   1      33.498  16.384   8.389  0.00  0.00     0.000 A 
HETATM   34  C   UNK N   1      32.777  15.274   7.940  0.00  0.00     0.003 A 
HETATM   35  C   UNK N   1      31.443  15.415   7.552  0.00  0.00     0.037 A 
ENDBRANCH  29  30
ENDBRANCH  28  29
ENDBRANCH   2  28
BRANCH   7  36
HETATM   36  C   UNK N   1      29.879  16.630   2.970  0.00  0.00     0.166 C 
BRANCH  36  37
HETATM   37  C   UNK N   1      31.218  16.522   3.555  0.00  0.00    -0.040 A 
HETATM   38  C   UNK N   1      31.847  17.651   4.084  0.00  0.00     0.009 A 
HETATM   39  C   UNK N   1      33.112  17.530   4.656  0.00  0.00     0.001 A 
HETATM   40  C   UNK N   1      33.740  16.280   4.699  0.00  0.00     0.000 A 
HETATM   41  C   UNK N   1      33.098  15.152   4.180  0.00  0.00     0.001 A 
HETATM   42  C   UNK N   1      31.832  15.273   3.612  0.00  0.00     0.009 A 
ENDBRANCH  36  37
ENDBRANCH   7  36
TORSDOF 12
ENDMDL
MODEL 8
REMARK VINA RESULT:      -7.1      7.170     11.762
REMARK  12 active torsions:
REMARK  status: ('A' for Active; 'I' for Inactive)
REMARK    1  A    between atoms: C_25  and  C_21 
REMARK    2  A    between atoms: N_34  and  C_21 
REMARK    3  A    between atoms: C_26  and  C_22 
REMARK    4  A    between atoms: N_35  and  C_22 
REMARK    5  A    between atoms: C_29  and  C_23 
REMARK    6  A    between atoms: O_39  and  C_23 
REMARK    7  A    between atoms: C_30  and  C_24 
REMARK    8  A    between atoms: O_40  and  C_24 
REMARK    9  A    between atoms: O_39  and  C_27 
REMARK   10  A    between atoms: O_40  and  C_28 
REMARK   11  A    between atoms: C_31  and  O_36 
REMARK   12  A    between atoms: C_32  and  O_37 
ROOT
HETATM    1  C   UNK N   1      25.298  15.543   6.398  0.00  0.00     0.145 C 
HETATM    2  C   UNK N   1      22.548  14.445   5.993  0.00  0.00     0.145 C 
HETATM    3  C   UNK N   1      25.130  14.096   5.899  0.00  0.00     0.174 C 
HETATM    4  C   UNK N   1      23.751  13.775   5.304  0.00  0.00     0.174 C 
HETATM    5  C   UNK N   1      23.321  16.821   5.632  0.00  0.00     0.322 C 
HETATM    6  N   UNK N   1      24.658  16.536   5.556  0.00  0.00    -0.320 N 
HETATM    7  N   UNK N   1      22.359  15.849   5.635  0.00  0.00    -0.320 N 
HETATM    8  O   UNK N   1      22.961  17.972   5.404  0.00  0.00    -0.247 OA
ENDROOT
BRANCH   1   9
HETATM    9  C   UNK N   1      26.785  15.963   6.575  0.00  0.00     0.203 C 
BRANCH   9  10
HETATM   10  O   UNK N   1      26.990  16.819   7.640  0.00  0.00    -0.349 OA
BRANCH  10  11
HETATM   11  C   UNK N   1      28.218  17.290   7.982  0.00  0.00     0.068 A 
HETATM   12  C   UNK N   1      28.357  18.014   9.171  0.00  0.00     0.037 A 
HETATM   13  C   UNK N   1      29.616  18.460   9.586  0.00  0.00     0.003 A 
HETATM   14  C   UNK N   1      30.747  18.189   8.809  0.00  0.00     0.000 A 
HETATM   15  C   UNK N   1      30.618  17.478   7.614  0.00  0.00     0.003 A 
HETATM   16  C   UNK N   1      29.361  17.026   7.200  0.00  0.00     0.037 A 
ENDBRANCH  10  11
ENDBRANCH   9  10
ENDBRANCH   1   9
BRANCH   3  17
HETATM   17  O   UNK N   1      25.405  13.245   6.979  0.00  0.00    -0.391 OA
HETATM   18  H   UNK N   1      26.199  13.198   7.534  0.00  0.00     0.210 HD
ENDBRANCH   3  17
BRANCH   6  19
HETATM   19  C   UNK N   1      25.256  16.741   4.236  0.00  0.00     0.166 C 
BRANCH  19  20
HETATM   20  C   UNK N   1      25.738  18.132   4.038  0.00  0.00    -0.040 A 
HETATM   21  C   UNK N   1      25.015  18.970   3.198  0.00  0.00     0.009 A 
HETATM   22  C   UNK N   1      25.524  20.222   2.861  0.00  0.00     0.001 A 
HETATM   23  C   UNK N   1      26.776  20.621   3.335  0.00  0.00     0.000 A 
HETATM   24  C   UNK N   1      27.510  19.783   4.180  0.00  0.00     0.001 A 
HETATM   25  C   UNK N   1      26.987  18.540   4.543  0.00  0.00     0.009 A 
ENDBRANCH  19  20
ENDBRANCH   6  19
BRANCH   4  26
HETATM   26  O   UNK N   1      23.586  12.385   5.293  0.00  0.00    -0.391 OA
HETATM   27  H   UNK N   1      23.098  11.871   5.956  0.00  0.00     0.210 HD
ENDBRANCH   4  26
BRANCH   2  28
HETATM   28  C   UNK N   1      22.536  14.336   7.516  0.00  0.00     0.203 C 
BRANCH  28  29
HETATM   29  O   UNK N   1      22.685  13.037   7.936  0.00  0.00    -0.349 OA
BRANCH  29  30
HETATM   30  C   UNK N   1      22.636  12.660   9.234  0.00  0.00     0.068 A 
HETATM   31  C   UNK N   1      21.422  12.599   9.946  0.00  0.00     0.037 A 
HETATM   32  C   UNK N   1      21.411  12.196  11.283  0.00  0.00     0.003 A 
HETATM   33  C   UNK N   1      22.609  11.858  11.918  0.00  0.00     0.000 A 
HETATM   34  C   UNK N   1      23.816  11.924  11.216  0.00  0.00     0.003 A 
HETATM   35  C   UNK N   1      23.827  12.324   9.879  0.00  0.00     0.037 A 
ENDBRANCH  29  30
ENDBRANCH  28  29
ENDBRANCH   2  28
BRANCH   7  36
HETATM   36  C   UNK N   1      21.116  16.203   4.971  0.00  0.00     0.166 C 
BRANCH  36  37
HETATM   37  C   UNK N   1      20.951  15.529   3.681  0.00  0.00    -0.040 A 
HETATM   38  C   UNK N   1      21.899  15.703   2.670  0.00  0.00     0.009 A 
HETATM   39  C   UNK N   1      21.739  15.039   1.455  0.00  0.00     0.001 A 
HETATM   40  C   UNK N   1      20.634  14.202   1.258  0.00  0.00     0.000 A 
HETATM   41  C   UNK N   1      19.697  14.023   2.280  0.00  0.00     0.001 A 
HETATM   42  C   UNK N   1      19.859  14.683   3.495  0.00  0.00     0.009 A 
ENDBRANCH  36  37
ENDBRANCH   7  36
TORSDOF 12
ENDMDL
MODEL 9
REMARK VINA RESULT:      -7.0      2.148      9.334
REMARK  12 active torsions:
REMARK  status: ('A' for Active; 'I' for Inactive)
REMARK    1  A    between atoms: C_25  and  C_21 
REMARK    2  A    between atoms: N_34  and  C_21 
REMARK    3  A    between atoms: C_26  and  C_22 
REMARK    4  A    between atoms: N_35  and  C_22 
REMARK    5  A    between atoms: C_29  and  C_23 
REMARK    6  A    between atoms: O_39  and  C_23 
REMARK    7  A    between atoms: C_30  and  C_24 
REMARK    8  A    between atoms: O_40  and  C_24 
REMARK    9  A    between atoms: O_39  and  C_27 
REMARK   10  A    between atoms: O_40  and  C_28 
REMARK   11  A    between atoms: C_31  and  O_36 
REMARK   12  A    between atoms: C_32  and  O_37 
ROOT
HETATM    1  C   UNK N   1      36.018  11.622  10.765  0.00  0.00     0.145 C 
HETATM    2  C   UNK N   1      36.445  14.143   9.217  0.00  0.00     0.145 C 
HETATM    3  C   UNK N   1      37.394  11.892  10.129  0.00  0.00     0.174 C 
HETATM    4  C   UNK N   1      37.656  13.360   9.757  0.00  0.00     0.174 C 
HETATM    5  C   UNK N   1      34.986  13.819  11.252  0.00  0.00     0.322 C 
HETATM    6  N   UNK N   1      35.575  12.659  11.678  0.00  0.00    -0.320 N 
HETATM    7  N   UNK N   1      35.511  14.587  10.249  0.00  0.00    -0.320 N 
HETATM    8  O   UNK N   1      34.133  14.332  11.970  0.00  0.00    -0.247 OA
ENDROOT
BRANCH   1   9
HETATM    9  C   UNK N   1      35.947  10.266  11.522  0.00  0.00     0.203 C 
BRANCH   9  10
HETATM   10  O   UNK N   1      37.182   9.797  11.925  0.00  0.00    -0.349 OA
BRANCH  10  11
HETATM   11  C   UNK N   1      37.389   9.199  13.128  0.00  0.00     0.068 A 
HETATM   12  C   UNK N   1      38.571   9.473  13.824  0.00  0.00     0.037 A 
HETATM   13  C   UNK N   1      38.789   8.926  15.093  0.00  0.00     0.003 A 
HETATM   14  C   UNK N   1      37.826   8.094  15.672  0.00  0.00     0.000 A 
HETATM   15  C   UNK N   1      36.647   7.804  14.981  0.00  0.00     0.003 A 
HETATM   16  C   UNK N   1      36.425   8.356  13.715  0.00  0.00     0.037 A 
ENDBRANCH  10  11
ENDBRANCH   9  10
ENDBRANCH   1   9
BRANCH   3  17
HETATM   17  O   UNK N   1      37.501  11.075   8.995  0.00  0.00    -0.391 OA
HETATM   18  H   UNK N   1      36.803  10.607   8.510  0.00  0.00     0.210 HD
ENDBRANCH   3  17
BRANCH   6  19
HETATM   19  C   UNK N   1      36.322  12.773  12.931  0.00  0.00     0.166 C 
BRANCH  19  20
HETATM   20  C   UNK N   1      35.622  12.130  14.073  0.00  0.00    -0.040 A 
HETATM   21  C   UNK N   1      36.307  11.983  15.272  0.00  0.00     0.009 A 
HETATM   22  C   UNK N   1      35.743  11.243  16.308  0.00  0.00     0.001 A 
HETATM   23  C   UNK N   1      34.506  10.617  16.130  0.00  0.00     0.000 A 
HETATM   24  C   UNK N   1      33.810  10.760  14.926  0.00  0.00     0.001 A 
HETATM   25  C   UNK N   1      34.362  11.527  13.897  0.00  0.00     0.009 A 
ENDBRANCH  19  20
ENDBRANCH   6  19
BRANCH   4  26
HETATM   26  O   UNK N   1      38.706  13.401   8.832  0.00  0.00    -0.391 OA
HETATM   27  H   UNK N   1      38.685  13.859   7.977  0.00  0.00     0.210 HD
ENDBRANCH   4  26
BRANCH   2  28
HETATM   28  C   UNK N   1      35.648  13.426   8.129  0.00  0.00     0.203 C 
BRANCH  28  29
HETATM   29  O   UNK N   1      35.698  14.097   6.932  0.00  0.00    -0.349 OA
BRANCH  29  30
HETATM   30  C   UNK N   1      34.600  14.439   6.220  0.00  0.00     0.068 A 
HETATM   31  C   UNK N   1      33.395  13.715   6.317  0.00  0.00     0.037 A 
HETATM   32  C   UNK N   1      32.280  14.105   5.573  0.00  0.00     0.003 A 
HETATM   33  C   UNK N   1      32.361  15.213   4.725  0.00  0.00     0.000 A 
HETATM   34  C   UNK N   1      33.557  15.929   4.622  0.00  0.00     0.003 A 
HETATM   35  C   UNK N   1      34.671  15.542   5.368  0.00  0.00     0.037 A 
ENDBRANCH  29  30
ENDBRANCH  28  29
ENDBRANCH   2  28
BRANCH   7  36
HETATM   36  C   UNK N   1      35.318  16.019  10.398  0.00  0.00     0.166 C 
BRANCH  36  37
HETATM   37  C   UNK N   1      34.360  16.566   9.432  0.00  0.00    -0.040 A 
HETATM   38  C   UNK N   1      33.103  15.978   9.279  0.00  0.00     0.009 A 
HETATM   39  C   UNK N   1      32.196  16.521   8.371  0.00  0.00     0.001 A 
HETATM   40  C   UNK N   1      32.548  17.651   7.625  0.00  0.00     0.000 A 
HETATM   41  C   UNK N   1      33.804  18.242   7.794  0.00  0.00     0.001 A 
HETATM   42  C   UNK N   1      34.710  17.701   8.703  0.00  0.00     0.009 A 
ENDBRANCH  36  37
ENDBRANCH   7  36
TORSDOF 12
ENDMDL
