MODEL 1
REMARK VINA RESULT:      -4.9      0.000      0.000
REMARK  4 active torsions:
REMARK  status: ('A' for Active; 'I' for Inactive)
REMARK    1  A    between atoms: O_1  and  Hg_2 
REMARK    2  A    between atoms: Hg_2  and  C_3 
REMARK    3  A    between atoms: C_6  and  C_9 
REMARK    4  A    between atoms: C_9  and  O_10 
ROOT
HETATM    1  C   UNK N   1      25.359  25.419  -5.539  0.00  0.00    -0.048 A 
HETATM    2  C   UNK N   1      26.190  25.265  -4.423  0.00  0.00     0.006 A 
HETATM    3  C   UNK N   1      26.551  26.387  -3.665  0.00  0.00     0.018 A 
HETATM    4  C   UNK N   1      26.084  27.662  -4.022  0.00  0.00     0.037 A 
HETATM    5  C   UNK N   1      25.253  27.801  -5.142  0.00  0.00     0.018 A 
HETATM    6  C   UNK N   1      24.894  26.685  -5.894  0.00  0.00     0.006 A 
ENDROOT
BRANCH   4   7
HETATM    7  C   UNK N   1      26.456  28.853  -3.233  0.00  0.00     0.176 C 
HETATM    8  O   UNK N   1      27.166  28.743  -2.248  0.00  0.00    -0.646 OA
BRANCH   7   9
HETATM    9  O   UNK N   1      26.013  30.073  -3.597  0.00  0.00    -0.773 OA
HETATM   10  H   UNK N   1      25.325  30.486  -3.112  0.00  0.00     0.167 HD
ENDBRANCH   7   9
ENDBRANCH   4   7
BRANCH   1  11
HETATM   11 Hg   UNK N   1      24.772  23.831  -6.716  0.00  0.00     0.237 Hg
BRANCH  11  12
HETATM   12  O   UNK N   1      24.310  22.485  -8.098  0.00  0.00    -0.406 OA
HETATM   13  H   UNK N   1      23.821  21.684  -7.851  0.00  0.00     0.206 HD
ENDBRANCH  11  12
ENDBRANCH   1  11
TORSDOF 4
ENDMDL
MODEL 2
REMARK VINA RESULT:      -4.9     19.192     20.382
REMARK  4 active torsions:
REMARK  status: ('A' for Active; 'I' for Inactive)
REMARK    1  A    between atoms: O_1  and  Hg_2 
REMARK    2  A    between atoms: Hg_2  and  C_3 
REMARK    3  A    between atoms: C_6  and  C_9 
REMARK    4  A    between atoms: C_9  and  O_10 
ROOT
HETATM    1  C   UNK N   1      34.150  14.919  10.823  0.00  0.00    -0.048 A 
HETATM    2  C   UNK N   1      33.323  15.009   9.698  0.00  0.00     0.006 A 
HETATM    3  C   UNK N   1      33.484  16.073   8.800  0.00  0.00     0.018 A 
HETATM    4  C   UNK N   1      34.470  17.045   9.025  0.00  0.00     0.037 A 
HETATM    5  C   UNK N   1      35.292  16.943  10.156  0.00  0.00     0.018 A 
HETATM    6  C   UNK N   1      35.130  15.885  11.048  0.00  0.00     0.006 A 
ENDROOT
BRANCH   4   7
HETATM    7  C   UNK N   1      34.651  18.172   8.088  0.00  0.00     0.176 C 
HETATM    8  O   UNK N   1      34.360  18.047   6.910  0.00  0.00    -0.646 OA
BRANCH   7   9
HETATM    9  O   UNK N   1      35.141  19.349   8.528  0.00  0.00    -0.773 OA
HETATM   10  H   UNK N   1      35.864  19.362   9.124  0.00  0.00     0.167 HD
ENDBRANCH   7   9
ENDBRANCH   4   7
BRANCH   1  11
HETATM   11 Hg   UNK N   1      33.991  13.393  12.201  0.00  0.00     0.237 Hg
BRANCH  11  12
HETATM   12  O   UNK N   1      34.107  12.052  13.658  0.00  0.00    -0.406 OA
HETATM   13  H   UNK N   1      33.587  12.169  14.468  0.00  0.00     0.206 HD
ENDBRANCH  11  12
ENDBRANCH   1  11
TORSDOF 4
ENDMDL
MODEL 3
REMARK VINA RESULT:      -4.7     25.653     27.026
REMARK  4 active torsions:
REMARK  status: ('A' for Active; 'I' for Inactive)
REMARK    1  A    between atoms: O_1  and  Hg_2 
REMARK    2  A    between atoms: Hg_2  and  C_3 
REMARK    3  A    between atoms: C_6  and  C_9 
REMARK    4  A    between atoms: C_9  and  O_10 
ROOT
HETATM    1  C   UNK N   1      35.498  14.155  17.524  0.00  0.00    -0.048 A 
HETATM    2  C   UNK N   1      36.586  14.834  16.964  0.00  0.00     0.006 A 
HETATM    3  C   UNK N   1      36.997  14.532  15.658  0.00  0.00     0.018 A 
HETATM    4  C   UNK N   1      36.321  13.553  14.913  0.00  0.00     0.037 A 
HETATM    5  C   UNK N   1      35.233  12.881  15.487  0.00  0.00     0.018 A 
HETATM    6  C   UNK N   1      34.826  13.182  16.785  0.00  0.00     0.006 A 
ENDROOT
BRANCH   4   7
HETATM    7  C   UNK N   1      36.743  13.224  13.537  0.00  0.00     0.176 C 
HETATM    8  O   UNK N   1      36.948  12.066  13.215  0.00  0.00    -0.646 OA
BRANCH   7   9
HETATM    9  O   UNK N   1      36.905  14.204  12.625  0.00  0.00    -0.773 OA
HETATM   10  H   UNK N   1      36.160  14.673  12.303  0.00  0.00     0.167 HD
ENDBRANCH   7   9
ENDBRANCH   4   7
BRANCH   1  11
HETATM   11 Hg   UNK N   1      34.818  14.528  19.435  0.00  0.00     0.237 Hg
BRANCH  11  12
HETATM   12  O   UNK N   1      34.082  14.572  21.276  0.00  0.00    -0.406 OA
HETATM   13  H   UNK N   1      34.473  15.161  21.941  0.00  0.00     0.206 HD
ENDBRANCH  11  12
ENDBRANCH   1  11
TORSDOF 4
ENDMDL
MODEL 4
REMARK VINA RESULT:      -4.6     15.481     16.803
REMARK  4 active torsions:
REMARK  status: ('A' for Active; 'I' for Inactive)
REMARK    1  A    between atoms: O_1  and  Hg_2 
REMARK    2  A    between atoms: Hg_2  and  C_3 
REMARK    3  A    between atoms: C_6  and  C_9 
REMARK    4  A    between atoms: C_9  and  O_10 
ROOT
HETATM    1  C   UNK N   1      28.161  18.740   8.382  0.00  0.00    -0.048 A 
HETATM    2  C   UNK N   1      28.537  18.198   7.147  0.00  0.00     0.006 A 
HETATM    3  C   UNK N   1      29.701  17.422   7.054  0.00  0.00     0.018 A 
HETATM    4  C   UNK N   1      30.487  17.188   8.192  0.00  0.00     0.037 A 
HETATM    5  C   UNK N   1      30.098  17.737   9.422  0.00  0.00     0.018 A 
HETATM    6  C   UNK N   1      28.942  18.508   9.513  0.00  0.00     0.006 A 
ENDROOT
BRANCH   4   7
HETATM    7  C   UNK N   1      31.715  16.372   8.109  0.00  0.00     0.176 C 
HETATM    8  O   UNK N   1      31.898  15.628   7.161  0.00  0.00    -0.646 OA
BRANCH   7   9
HETATM    9  O   UNK N   1      32.645  16.445   9.083  0.00  0.00    -0.773 OA
HETATM   10  H   UNK N   1      33.282  17.132   9.073  0.00  0.00     0.167 HD
ENDBRANCH   7   9
ENDBRANCH   4   7
BRANCH   1  11
HETATM   11 Hg   UNK N   1      26.469  19.894   8.621  0.00  0.00     0.237 Hg
BRANCH  11  12
HETATM   12  O   UNK N   1      25.047  21.254   8.873  0.00  0.00    -0.406 OA
HETATM   13  H   UNK N   1      24.478  21.221   9.658  0.00  0.00     0.206 HD
ENDBRANCH  11  12
ENDBRANCH   1  11
TORSDOF 4
ENDMDL
MODEL 5
REMARK VINA RESULT:      -4.5     15.575     16.597
REMARK  4 active torsions:
REMARK  status: ('A' for Active; 'I' for Inactive)
REMARK    1  A    between atoms: O_1  and  Hg_2 
REMARK    2  A    between atoms: Hg_2  and  C_3 
REMARK    3  A    between atoms: C_6  and  C_9 
REMARK    4  A    between atoms: C_9  and  O_10 
ROOT
HETATM    1  C   UNK N   1      31.364  17.132   6.136  0.00  0.00    -0.048 A 
HETATM    2  C   UNK N   1      32.643  17.258   5.580  0.00  0.00     0.006 A 
HETATM    3  C   UNK N   1      33.724  17.614   6.397  0.00  0.00     0.018 A 
HETATM    4  C   UNK N   1      33.529  17.842   7.768  0.00  0.00     0.037 A 
HETATM    5  C   UNK N   1      32.244  17.712   8.311  0.00  0.00     0.018 A 
HETATM    6  C   UNK N   1      31.170  17.358   7.498  0.00  0.00     0.006 A 
ENDROOT
BRANCH   4   7
HETATM    7  C   UNK N   1      34.659  18.218   8.641  0.00  0.00     0.176 C 
HETATM    8  O   UNK N   1      35.302  19.229   8.417  0.00  0.00    -0.646 OA
BRANCH   7   9
HETATM    9  O   UNK N   1      34.989  17.443   9.694  0.00  0.00    -0.773 OA
HETATM   10  H   UNK N   1      35.180  16.534   9.566  0.00  0.00     0.167 HD
ENDBRANCH   7   9
ENDBRANCH   4   7
BRANCH   1  11
HETATM   11 Hg   UNK N   1      29.711  16.613   5.018  0.00  0.00     0.237 Hg
BRANCH  11  12
HETATM   12  O   UNK N   1      27.950  16.268   4.172  0.00  0.00    -0.406 OA
HETATM   13  H   UNK N   1      27.788  16.548   3.257  0.00  0.00     0.206 HD
ENDBRANCH  11  12
ENDBRANCH   1  11
TORSDOF 4
ENDMDL
MODEL 6
REMARK VINA RESULT:      -4.5     28.069     29.326
REMARK  4 active torsions:
REMARK  status: ('A' for Active; 'I' for Inactive)
REMARK    1  A    between atoms: O_1  and  Hg_2 
REMARK    2  A    between atoms: Hg_2  and  C_3 
REMARK    3  A    between atoms: C_6  and  C_9 
REMARK    4  A    between atoms: C_9  and  O_10 
ROOT
HETATM    1  C   UNK N   1      35.285  11.482  19.772  0.00  0.00    -0.048 A 
HETATM    2  C   UNK N   1      35.360  10.616  18.675  0.00  0.00     0.006 A 
HETATM    3  C   UNK N   1      35.344  11.139  17.375  0.00  0.00     0.018 A 
HETATM    4  C   UNK N   1      35.253  12.524  17.171  0.00  0.00     0.037 A 
HETATM    5  C   UNK N   1      35.179  13.380  18.279  0.00  0.00     0.018 A 
HETATM    6  C   UNK N   1      35.195  12.859  19.571  0.00  0.00     0.006 A 
ENDROOT
BRANCH   4   7
HETATM    7  C   UNK N   1      35.234  13.089  15.806  0.00  0.00     0.176 C 
HETATM    8  O   UNK N   1      34.292  12.875  15.063  0.00  0.00    -0.646 OA
BRANCH   7   9
HETATM    9  O   UNK N   1      36.262  13.847  15.372  0.00  0.00    -0.773 OA
HETATM   10  H   UNK N   1      36.099  14.698  15.016  0.00  0.00     0.167 HD
ENDBRANCH   7   9
ENDBRANCH   4   7
BRANCH   1  11
HETATM   11 Hg   UNK N   1      35.302  10.811  21.722  0.00  0.00     0.237 Hg
BRANCH  11  12
HETATM   12  O   UNK N   1      35.075   9.973  23.505  0.00  0.00    -0.406 OA
HETATM   13  H   UNK N   1      34.274   9.462  23.703  0.00  0.00     0.206 HD
ENDBRANCH  11  12
ENDBRANCH   1  11
TORSDOF 4
ENDMDL
MODEL 7
REMARK VINA RESULT:      -4.4     19.740     20.638
REMARK  4 active torsions:
REMARK  status: ('A' for Active; 'I' for Inactive)
REMARK    1  A    between atoms: O_1  and  Hg_2 
REMARK    2  A    between atoms: Hg_2  and  C_3 
REMARK    3  A    between atoms: C_6  and  C_9 
REMARK    4  A    between atoms: C_9  and  O_10 
ROOT
HETATM    1  C   UNK N   1      21.242  13.465   8.745  0.00  0.00    -0.048 A 
HETATM    2  C   UNK N   1      22.631  13.419   8.579  0.00  0.00     0.006 A 
HETATM    3  C   UNK N   1      23.441  12.961   9.626  0.00  0.00     0.018 A 
HETATM    4  C   UNK N   1      22.865  12.548  10.837  0.00  0.00     0.037 A 
HETATM    5  C   UNK N   1      21.472  12.599  10.990  0.00  0.00     0.018 A 
HETATM    6  C   UNK N   1      20.668  13.056   9.948  0.00  0.00     0.006 A 
ENDROOT
BRANCH   4   7
HETATM    7  C   UNK N   1      23.706  12.063  11.950  0.00  0.00     0.176 C 
HETATM    8  O   UNK N   1      23.206  11.788  13.027  0.00  0.00    -0.646 OA
BRANCH   7   9
HETATM    9  O   UNK N   1      25.036  11.919  11.781  0.00  0.00    -0.773 OA
HETATM   10  H   UNK N   1      25.378  11.136  11.397  0.00  0.00     0.167 HD
ENDBRANCH   7   9
ENDBRANCH   4   7
BRANCH   1  11
HETATM   11 Hg   UNK N   1      19.966  14.123   7.265  0.00  0.00     0.237 Hg
BRANCH  11  12
HETATM   12  O   UNK N   1      18.995  14.922   5.730  0.00  0.00    -0.406 OA
HETATM   13  H   UNK N   1      19.039  15.878   5.572  0.00  0.00     0.206 HD
ENDBRANCH  11  12
ENDBRANCH   1  11
TORSDOF 4
ENDMDL
MODEL 8
REMARK VINA RESULT:      -4.4     15.363     16.538
REMARK  4 active torsions:
REMARK  status: ('A' for Active; 'I' for Inactive)
REMARK    1  A    between atoms: O_1  and  Hg_2 
REMARK    2  A    between atoms: Hg_2  and  C_3 
REMARK    3  A    between atoms: C_6  and  C_9 
REMARK    4  A    between atoms: C_9  and  O_10 
ROOT
HETATM    1  C   UNK N   1      30.429  17.181   8.924  0.00  0.00    -0.048 A 
HETATM    2  C   UNK N   1      29.485  18.048   9.487  0.00  0.00     0.006 A 
HETATM    3  C   UNK N   1      28.546  18.684   8.663  0.00  0.00     0.018 A 
HETATM    4  C   UNK N   1      28.550  18.453   7.279  0.00  0.00     0.037 A 
HETATM    5  C   UNK N   1      29.501  17.583   6.729  0.00  0.00     0.018 A 
HETATM    6  C   UNK N   1      30.434  16.952   7.549  0.00  0.00     0.006 A 
ENDROOT
BRANCH   4   7
HETATM    7  C   UNK N   1      27.567  19.116   6.399  0.00  0.00     0.176 C 
HETATM    8  O   UNK N   1      27.700  20.290   6.099  0.00  0.00    -0.646 OA
BRANCH   7   9
HETATM    9  O   UNK N   1      26.513  18.425   5.919  0.00  0.00    -0.773 OA
HETATM   10  H   UNK N   1      25.718  18.380   6.412  0.00  0.00     0.167 HD
ENDBRANCH   7   9
ENDBRANCH   4   7
BRANCH   1  11
HETATM   11 Hg   UNK N   1      31.850  16.200  10.052  0.00  0.00     0.237 Hg
BRANCH  11  12
HETATM   12  O   UNK N   1      33.052  14.988  11.062  0.00  0.00    -0.406 OA
HETATM   13  H   UNK N   1      33.338  15.224  11.958  0.00  0.00     0.206 HD
ENDBRANCH  11  12
ENDBRANCH   1  11
TORSDOF 4
ENDMDL
MODEL 9
REMARK VINA RESULT:      -4.3     27.401     28.566
REMARK  4 active torsions:
REMARK  status: ('A' for Active; 'I' for Inactive)
REMARK    1  A    between atoms: O_1  and  Hg_2 
REMARK    2  A    between atoms: Hg_2  and  C_3 
REMARK    3  A    between atoms: C_6  and  C_9 
REMARK    4  A    between atoms: C_9  and  O_10 
ROOT
HETATM    1  C   UNK N   1      34.974  12.533  16.227  0.00  0.00    -0.048 A 
HETATM    2  C   UNK N   1      35.099  11.157  16.450  0.00  0.00     0.006 A 
HETATM    3  C   UNK N   1      35.267  10.677  17.755  0.00  0.00     0.018 A 
HETATM    4  C   UNK N   1      35.309  11.570  18.837  0.00  0.00     0.037 A 
HETATM    5  C   UNK N   1      35.182  12.945  18.599  0.00  0.00     0.018 A 
HETATM    6  C   UNK N   1      35.015  13.421  17.301  0.00  0.00     0.006 A 
ENDROOT
BRANCH   4   7
HETATM    7  C   UNK N   1      35.485  11.078  20.218  0.00  0.00     0.176 C 
HETATM    8  O   UNK N   1      34.646  10.353  20.726  0.00  0.00    -0.646 OA
BRANCH   7   9
HETATM    9  O   UNK N   1      36.576  11.427  20.929  0.00  0.00    -0.773 OA
HETATM   10  H   UNK N   1      37.171  10.769  21.229  0.00  0.00     0.167 HD
ENDBRANCH   7   9
ENDBRANCH   4   7
BRANCH   1  11
HETATM   11 Hg   UNK N   1      34.724  13.338  14.344  0.00  0.00     0.237 Hg
BRANCH  11  12
HETATM   12  O   UNK N   1      34.433  13.805  12.439  0.00  0.00    -0.406 OA
HETATM   13  H   UNK N   1      35.058  14.390  11.981  0.00  0.00     0.206 HD
ENDBRANCH  11  12
ENDBRANCH   1  11
TORSDOF 4
ENDMDL
