REMARK  4 active torsions:
REMARK  status: ('A' for Active; 'I' for Inactive)
REMARK    1  A    between atoms: C_15  and  C_4 
REMARK    2  A    between atoms: C_16  and  C_14 
REMARK    3  A    between atoms: O_19  and  C_15 
REMARK    4  A    between atoms: C_16  and  O_19 
ROOT
HETATM    1  C   UNK N   1      -3.715   3.759  -0.141  0.00  0.00     0.015 C 
HETATM    2  C   UNK N   1      -2.494   7.807  -0.571  0.00  0.00     0.309 C 
HETATM    3  C   UNK N   1      -1.095   4.467  -1.454  0.00  0.00     0.074 C 
HETATM    4  C   UNK N   1      -1.234   5.992  -1.356  0.00  0.00     0.275 C 
HETATM    5  C   UNK N   1      -2.553   5.805   0.644  0.00  0.00     0.279 C 
HETATM    6  C   UNK N   1      -2.484   4.274   0.607  0.00  0.00     0.050 C 
HETATM    7  C   UNK N   1      -1.136   3.835  -0.049  0.00  0.00     0.104 C 
HETATM    8  N   UNK N   1      -2.495   6.362  -0.710  0.00  0.00     0.084 N 
ENDROOT
BRANCH   7   9
HETATM    9  C   UNK N   1      -1.008   2.305  -0.167  0.00  0.00    -0.023 A 
HETATM   10  C   UNK N   1       0.030   1.734  -0.926  0.00  0.00     0.010 A 
HETATM   11  C   UNK N   1       0.143   0.348  -1.064  0.00  0.00     0.001 A 
HETATM   12  C   UNK N   1      -0.790  -0.492  -0.457  0.00  0.00     0.000 A 
HETATM   13  C   UNK N   1      -1.837   0.054   0.287  0.00  0.00     0.001 A 
HETATM   14  C   UNK N   1      -1.946   1.440   0.429  0.00  0.00     0.010 A 
ENDBRANCH   7   9
BRANCH   7  15
HETATM   15  O   UNK N   1      -0.123   4.408   0.727  0.00  0.00    -0.305 OA
BRANCH  15  16
HETATM   16  C   UNK N   1       1.229   4.346   0.568  0.00  0.00     0.259 C 
HETATM   17  O   UNK N   1       1.788   3.292   0.320  0.00  0.00    -0.265 OA
BRANCH  16  18
HETATM   18  C   UNK N   1       2.069   5.571   0.770  0.00  0.00     0.106 C 
HETATM   19  C   UNK N   1       1.229   6.831   0.892  0.00  0.00     0.015 C 
ENDBRANCH  16  18
ENDBRANCH  15  16
ENDBRANCH   7  15
TORSDOF 4
