MODEL 1
REMARK VINA RESULT:      -5.1      0.000      0.000
REMARK  7 active torsions:
REMARK  status: ('A' for Active; 'I' for Inactive)
REMARK    1  A    between atoms: C_5  and  C_3 
REMARK    2  A    between atoms: O_10  and  C_3 
REMARK    3  A    between atoms: S_15  and  C_4 
REMARK    4  A    between atoms: C_6  and  O_11 
REMARK    5  A    between atoms: C_7  and  O_12 
REMARK    6  A    between atoms: C_8  and  O_13 
REMARK    7  A    between atoms: C_9  and  S_15 
ROOT
HETATM    1  C   UNK N   1      35.054  14.843  11.010  0.00  0.00     0.178 C 
HETATM    2  C   UNK N   1      36.489  14.689  10.430  0.00  0.00     0.180 C 
HETATM    3  C   UNK N   1      37.168  13.417  10.998  0.00  0.00     0.181 C 
HETATM    4  C   UNK N   1      36.645  13.134  12.408  0.00  0.00     0.188 C 
HETATM    5  C   UNK N   1      35.105  12.871  12.285  0.00  0.00     0.215 C 
HETATM    6  O   UNK N   1      34.467  13.574  11.212  0.00  0.00    -0.363 OA
ENDROOT
BRANCH   5   7
HETATM    7  S   UNK N   1      34.822  11.088  11.979  0.00  0.00    -0.131 SA
BRANCH   7   8
HETATM    8  C   UNK N   1      34.970  10.628  13.737  0.00  0.00     0.041 C 
HETATM    9  C   UNK N   1      33.657  10.847  14.457  0.00  0.00     0.021 C 
HETATM   10  C   UNK N   1      35.428   9.191  13.872  0.00  0.00     0.021 C 
ENDBRANCH   7   8
ENDBRANCH   5   7
BRANCH   4  11
HETATM   11  O   UNK N   1      36.893  14.239  13.229  0.00  0.00    -0.389 OA
HETATM   12  H   UNK N   1      37.185  14.776  13.982  0.00  0.00     0.210 HD
ENDBRANCH   4  11
BRANCH   3  13
HETATM   13  O   UNK N   1      38.560  13.533  10.971  0.00  0.00    -0.390 OA
HETATM   14  H   UNK N   1      39.115  12.739  11.031  0.00  0.00     0.210 HD
ENDBRANCH   3  13
BRANCH   1  15
HETATM   15  C   UNK N   1      34.163  15.682  10.101  0.00  0.00     0.198 C 
BRANCH  15  16
HETATM   16  O   UNK N   1      34.497  17.035  10.194  0.00  0.00    -0.398 OA
HETATM   17  H   UNK N   1      33.982  17.810   9.922  0.00  0.00     0.209 HD
ENDBRANCH  15  16
ENDBRANCH   1  15
BRANCH   2  18
HETATM   18  O   UNK N   1      37.219  15.837  10.763  0.00  0.00    -0.390 OA
HETATM   19  H   UNK N   1      37.272  16.761  10.473  0.00  0.00     0.210 HD
ENDBRANCH   2  18
TORSDOF 7
ENDMDL
MODEL 2
REMARK VINA RESULT:      -5.0     15.476     17.767
REMARK  7 active torsions:
REMARK  status: ('A' for Active; 'I' for Inactive)
REMARK    1  A    between atoms: C_5  and  C_3 
REMARK    2  A    between atoms: O_10  and  C_3 
REMARK    3  A    between atoms: S_15  and  C_4 
REMARK    4  A    between atoms: C_6  and  O_11 
REMARK    5  A    between atoms: C_7  and  O_12 
REMARK    6  A    between atoms: C_8  and  O_13 
REMARK    7  A    between atoms: C_9  and  S_15 
ROOT
HETATM    1  C   UNK N   1      20.932  19.251   2.081  0.00  0.00     0.178 C 
HETATM    2  C   UNK N   1      19.610  18.671   2.659  0.00  0.00     0.180 C 
HETATM    3  C   UNK N   1      19.914  17.649   3.785  0.00  0.00     0.181 C 
HETATM    4  C   UNK N   1      21.251  16.956   3.510  0.00  0.00     0.188 C 
HETATM    5  C   UNK N   1      22.357  18.066   3.524  0.00  0.00     0.215 C 
HETATM    6  O   UNK N   1      21.907  19.357   3.097  0.00  0.00    -0.363 OA
ENDROOT
BRANCH   5   7
HETATM    7  S   UNK N   1      22.980  18.272   5.234  0.00  0.00    -0.131 SA
BRANCH   7   8
HETATM    8  C   UNK N   1      24.734  18.283   4.733  0.00  0.00     0.041 C 
HETATM    9  C   UNK N   1      25.001  17.206   3.705  0.00  0.00     0.021 C 
HETATM   10  C   UNK N   1      25.124  19.647   4.203  0.00  0.00     0.021 C 
ENDBRANCH   7   8
ENDBRANCH   5   7
BRANCH   4  11
HETATM   11  O   UNK N   1      21.201  16.324   2.263  0.00  0.00    -0.389 OA
HETATM   12  H   UNK N   1      21.454  16.020   1.377  0.00  0.00     0.210 HD
ENDBRANCH   4  11
BRANCH   3  13
HETATM   13  O   UNK N   1      18.870  16.731   3.929  0.00  0.00    -0.390 OA
HETATM   14  H   UNK N   1      18.198  16.864   4.615  0.00  0.00     0.210 HD
ENDBRANCH   3  13
BRANCH   1  15
HETATM   15  C   UNK N   1      20.716  20.612   1.431  0.00  0.00     0.198 C 
BRANCH  15  16
HETATM   16  O   UNK N   1      20.556  20.481   0.050  0.00  0.00    -0.398 OA
HETATM   17  H   UNK N   1      20.584  21.167  -0.636  0.00  0.00     0.209 HD
ENDBRANCH  15  16
ENDBRANCH   1  15
BRANCH   2  18
HETATM   18  O   UNK N   1      18.903  18.066   1.612  0.00  0.00    -0.390 OA
HETATM   19  H   UNK N   1      18.390  17.256   1.469  0.00  0.00     0.210 HD
ENDBRANCH   2  18
TORSDOF 7
ENDMDL
MODEL 3
REMARK VINA RESULT:      -5.0     17.790     19.339
REMARK  7 active torsions:
REMARK  status: ('A' for Active; 'I' for Inactive)
REMARK    1  A    between atoms: C_5  and  C_3 
REMARK    2  A    between atoms: O_10  and  C_3 
REMARK    3  A    between atoms: S_15  and  C_4 
REMARK    4  A    between atoms: C_6  and  O_11 
REMARK    5  A    between atoms: C_7  and  O_12 
REMARK    6  A    between atoms: C_8  and  O_13 
REMARK    7  A    between atoms: C_9  and  S_15 
ROOT
HETATM    1  C   UNK N   1      30.535  21.666  -3.364  0.00  0.00     0.178 C 
HETATM    2  C   UNK N   1      32.065  21.926  -3.264  0.00  0.00     0.180 C 
HETATM    3  C   UNK N   1      32.789  21.387  -4.525  0.00  0.00     0.181 C 
HETATM    4  C   UNK N   1      32.033  20.176  -5.079  0.00  0.00     0.188 C 
HETATM    5  C   UNK N   1      30.605  20.671  -5.491  0.00  0.00     0.215 C 
HETATM    6  O   UNK N   1      30.107  21.762  -4.706  0.00  0.00    -0.363 OA
ENDROOT
BRANCH   5   7
HETATM    7  S   UNK N   1      30.648  21.256  -7.225  0.00  0.00    -0.131 SA
BRANCH   7   8
HETATM    8  C   UNK N   1      29.136  20.357  -7.704  0.00  0.00     0.041 C 
HETATM    9  C   UNK N   1      28.630  20.841  -9.046  0.00  0.00     0.021 C 
HETATM   10  C   UNK N   1      29.392  18.865  -7.729  0.00  0.00     0.021 C 
ENDBRANCH   7   8
ENDBRANCH   5   7
BRANCH   4  11
HETATM   11  O   UNK N   1      31.949  19.188  -4.093  0.00  0.00    -0.389 OA
HETATM   12  H   UNK N   1      31.832  18.325  -3.665  0.00  0.00     0.210 HD
ENDBRANCH   4  11
BRANCH   3  13
HETATM   13  O   UNK N   1      34.126  21.087  -4.251  0.00  0.00    -0.390 OA
HETATM   14  H   UNK N   1      34.725  20.839  -4.972  0.00  0.00     0.210 HD
ENDBRANCH   3  13
BRANCH   1  15
HETATM   15  C   UNK N   1      29.739  22.637  -2.499  0.00  0.00     0.198 C 
BRANCH  15  16
HETATM   16  O   UNK N   1      30.491  23.049  -1.397  0.00  0.00    -0.398 OA
HETATM   17  H   UNK N   1      31.434  23.270  -1.350  0.00  0.00     0.209 HD
ENDBRANCH  15  16
ENDBRANCH   1  15
BRANCH   2  18
HETATM   18  O   UNK N   1      32.541  21.296  -2.107  0.00  0.00    -0.390 OA
HETATM   19  H   UNK N   1      32.592  20.396  -1.752  0.00  0.00     0.210 HD
ENDBRANCH   2  18
TORSDOF 7
ENDMDL
MODEL 4
REMARK VINA RESULT:      -4.8      3.741      5.654
REMARK  7 active torsions:
REMARK  status: ('A' for Active; 'I' for Inactive)
REMARK    1  A    between atoms: C_5  and  C_3 
REMARK    2  A    between atoms: O_10  and  C_3 
REMARK    3  A    between atoms: S_15  and  C_4 
REMARK    4  A    between atoms: C_6  and  O_11 
REMARK    5  A    between atoms: C_7  and  O_12 
REMARK    6  A    between atoms: C_8  and  O_13 
REMARK    7  A    between atoms: C_9  and  S_15 
ROOT
HETATM    1  C   UNK N   1      33.762  17.091   8.823  0.00  0.00     0.178 C 
HETATM    2  C   UNK N   1      35.041  16.635   9.583  0.00  0.00     0.180 C 
HETATM    3  C   UNK N   1      35.058  15.092   9.734  0.00  0.00     0.181 C 
HETATM    4  C   UNK N   1      33.625  14.563   9.821  0.00  0.00     0.188 C 
HETATM    5  C   UNK N   1      32.915  14.928   8.473  0.00  0.00     0.215 C 
HETATM    6  O   UNK N   1      33.396  16.128   7.857  0.00  0.00    -0.363 OA
ENDROOT
BRANCH   5   7
HETATM    7  S   UNK N   1      33.186  13.579   7.265  0.00  0.00    -0.131 SA
BRANCH   7   8
HETATM    8  C   UNK N   1      32.603  14.559   5.842  0.00  0.00     0.041 C 
HETATM    9  C   UNK N   1      33.577  14.452   4.688  0.00  0.00     0.021 C 
HETATM   10  C   UNK N   1      31.218  14.113   5.424  0.00  0.00     0.021 C 
ENDBRANCH   7   8
ENDBRANCH   5   7
BRANCH   4  11
HETATM   11  O   UNK N   1      32.971  15.162  10.903  0.00  0.00    -0.389 OA
HETATM   12  H   UNK N   1      32.278  15.573  11.444  0.00  0.00     0.210 HD
ENDBRANCH   4  11
BRANCH   3  13
HETATM   13  O   UNK N   1      35.827  14.701  10.834  0.00  0.00    -0.390 OA
HETATM   14  H   UNK N   1      35.460  14.085  11.488  0.00  0.00     0.210 HD
ENDBRANCH   3  13
BRANCH   1  15
HETATM   15  C   UNK N   1      33.956  18.446   8.153  0.00  0.00     0.198 C 
BRANCH  15  16
HETATM   16  O   UNK N   1      35.194  18.994   8.493  0.00  0.00    -0.398 OA
HETATM   17  H   UNK N   1      35.685  18.925   9.327  0.00  0.00     0.209 HD
ENDBRANCH  15  16
ENDBRANCH   1  15
BRANCH   2  18
HETATM   18  O   UNK N   1      35.051  17.261  10.836  0.00  0.00    -0.390 OA
HETATM   19  H   UNK N   1      35.327  18.113  11.207  0.00  0.00     0.210 HD
ENDBRANCH   2  18
TORSDOF 7
ENDMDL
MODEL 5
REMARK VINA RESULT:      -4.8      2.824      5.420
REMARK  7 active torsions:
REMARK  status: ('A' for Active; 'I' for Inactive)
REMARK    1  A    between atoms: C_5  and  C_3 
REMARK    2  A    between atoms: O_10  and  C_3 
REMARK    3  A    between atoms: S_15  and  C_4 
REMARK    4  A    between atoms: C_6  and  O_11 
REMARK    5  A    between atoms: C_7  and  O_12 
REMARK    6  A    between atoms: C_8  and  O_13 
REMARK    7  A    between atoms: C_9  and  S_15 
ROOT
HETATM    1  C   UNK N   1      37.044  14.661  10.059  0.00  0.00     0.178 C 
HETATM    2  C   UNK N   1      36.374  13.796  11.165  0.00  0.00     0.180 C 
HETATM    3  C   UNK N   1      34.839  14.015  11.167  0.00  0.00     0.181 C 
HETATM    4  C   UNK N   1      34.517  15.438  10.705  0.00  0.00     0.188 C 
HETATM    5  C   UNK N   1      35.044  15.578   9.236  0.00  0.00     0.215 C 
HETATM    6  O   UNK N   1      36.191  14.772   8.939  0.00  0.00    -0.363 OA
ENDROOT
BRANCH   5   7
HETATM    7  S   UNK N   1      33.728  15.057   8.073  0.00  0.00    -0.131 SA
BRANCH   7   8
HETATM    8  C   UNK N   1      33.261  16.764   7.632  0.00  0.00     0.041 C 
HETATM    9  C   UNK N   1      32.046  17.203   8.420  0.00  0.00     0.021 C 
HETATM   10  C   UNK N   1      34.424  17.707   7.859  0.00  0.00     0.021 C 
ENDBRANCH   7   8
ENDBRANCH   5   7
BRANCH   4  11
HETATM   11  O   UNK N   1      35.152  16.357  11.547  0.00  0.00    -0.389 OA
HETATM   12  H   UNK N   1      35.325  17.155  12.071  0.00  0.00     0.210 HD
ENDBRANCH   4  11
BRANCH   3  13
HETATM   13  O   UNK N   1      34.290  13.737  12.422  0.00  0.00    -0.390 OA
HETATM   14  H   UNK N   1      33.463  13.235  12.489  0.00  0.00     0.210 HD
ENDBRANCH   3  13
BRANCH   1  15
HETATM   15  C   UNK N   1      38.388  14.085   9.628  0.00  0.00     0.198 C 
BRANCH  15  16
HETATM   16  O   UNK N   1      39.040  13.489  10.709  0.00  0.00    -0.398 OA
HETATM   17  H   UNK N   1      39.914  13.687  11.079  0.00  0.00     0.209 HD
ENDBRANCH  15  16
ENDBRANCH   1  15
BRANCH   2  18
HETATM   18  O   UNK N   1      36.932  14.156  12.399  0.00  0.00    -0.390 OA
HETATM   19  H   UNK N   1      37.755  13.997  12.885  0.00  0.00     0.210 HD
ENDBRANCH   2  18
TORSDOF 7
ENDMDL
MODEL 6
REMARK VINA RESULT:      -4.8      3.390      6.347
REMARK  7 active torsions:
REMARK  status: ('A' for Active; 'I' for Inactive)
REMARK    1  A    between atoms: C_5  and  C_3 
REMARK    2  A    between atoms: O_10  and  C_3 
REMARK    3  A    between atoms: S_15  and  C_4 
REMARK    4  A    between atoms: C_6  and  O_11 
REMARK    5  A    between atoms: C_7  and  O_12 
REMARK    6  A    between atoms: C_8  and  O_13 
REMARK    7  A    between atoms: C_9  and  S_15 
ROOT
HETATM    1  C   UNK N   1      35.253  14.742   9.945  0.00  0.00     0.178 C 
HETATM    2  C   UNK N   1      34.624  13.323  10.041  0.00  0.00     0.180 C 
HETATM    3  C   UNK N   1      33.438  13.189   9.051  0.00  0.00     0.181 C 
HETATM    4  C   UNK N   1      32.764  14.550   8.862  0.00  0.00     0.188 C 
HETATM    5  C   UNK N   1      33.833  15.513   8.240  0.00  0.00     0.215 C 
HETATM    6  O   UNK N   1      35.184  15.221   8.618  0.00  0.00    -0.363 OA
ENDROOT
BRANCH   5   7
HETATM    7  S   UNK N   1      33.766  15.387   6.415  0.00  0.00    -0.131 SA
BRANCH   7   8
HETATM    8  C   UNK N   1      33.858  17.190   6.156  0.00  0.00     0.041 C 
HETATM    9  C   UNK N   1      33.055  17.596   4.940  0.00  0.00     0.021 C 
HETATM   10  C   UNK N   1      33.382  17.927   7.390  0.00  0.00     0.021 C 
ENDBRANCH   7   8
ENDBRANCH   5   7
BRANCH   4  11
HETATM   11  O   UNK N   1      32.327  15.030  10.101  0.00  0.00    -0.389 OA
HETATM   12  H   UNK N   1      32.327  15.303  11.032  0.00  0.00     0.210 HD
ENDBRANCH   4  11
BRANCH   3  13
HETATM   13  O   UNK N   1      32.533  12.213   9.476  0.00  0.00    -0.390 OA
HETATM   14  H   UNK N   1      32.606  11.305   9.142  0.00  0.00     0.210 HD
ENDBRANCH   3  13
BRANCH   1  15
HETATM   15  C   UNK N   1      36.702  14.751  10.420  0.00  0.00     0.198 C 
BRANCH  15  16
HETATM   16  O   UNK N   1      37.080  16.031  10.830  0.00  0.00    -0.398 OA
HETATM   17  H   UNK N   1      37.784  16.293  11.443  0.00  0.00     0.209 HD
ENDBRANCH  15  16
ENDBRANCH   1  15
BRANCH   2  18
HETATM   18  O   UNK N   1      34.200  13.121  11.360  0.00  0.00    -0.390 OA
HETATM   19  H   UNK N   1      33.801  13.646  12.071  0.00  0.00     0.210 HD
ENDBRANCH   2  18
TORSDOF 7
ENDMDL
MODEL 7
REMARK VINA RESULT:      -4.7     15.994     17.155
REMARK  7 active torsions:
REMARK  status: ('A' for Active; 'I' for Inactive)
REMARK    1  A    between atoms: C_5  and  C_3 
REMARK    2  A    between atoms: O_10  and  C_3 
REMARK    3  A    between atoms: S_15  and  C_4 
REMARK    4  A    between atoms: C_6  and  O_11 
REMARK    5  A    between atoms: C_7  and  O_12 
REMARK    6  A    between atoms: C_8  and  O_13 
REMARK    7  A    between atoms: C_9  and  S_15 
ROOT
HETATM    1  C   UNK N   1      19.701  17.612   8.354  0.00  0.00     0.178 C 
HETATM    2  C   UNK N   1      19.863  16.168   8.908  0.00  0.00     0.180 C 
HETATM    3  C   UNK N   1      20.560  15.262   7.862  0.00  0.00     0.181 C 
HETATM    4  C   UNK N   1      20.211  15.736   6.449  0.00  0.00     0.188 C 
HETATM    5  C   UNK N   1      20.765  17.195   6.301  0.00  0.00     0.215 C 
HETATM    6  O   UNK N   1      20.794  17.944   7.522  0.00  0.00    -0.363 OA
ENDROOT
BRANCH   5   7
HETATM    7  S   UNK N   1      22.492  17.124   5.695  0.00  0.00    -0.131 SA
BRANCH   7   8
HETATM    8  C   UNK N   1      22.090  17.849   4.071  0.00  0.00     0.041 C 
HETATM    9  C   UNK N   1      21.450  16.816   3.171  0.00  0.00     0.021 C 
HETATM   10  C   UNK N   1      21.190  19.055   4.238  0.00  0.00     0.021 C 
ENDBRANCH   7   8
ENDBRANCH   5   7
BRANCH   4  11
HETATM   11  O   UNK N   1      18.823  15.716   6.279  0.00  0.00    -0.389 OA
HETATM   12  H   UNK N   1      17.940  15.466   5.964  0.00  0.00     0.210 HD
ENDBRANCH   4  11
BRANCH   3  13
HETATM   13  O   UNK N   1      20.230  13.918   8.057  0.00  0.00    -0.390 OA
HETATM   14  H   UNK N   1      19.357  13.590   7.793  0.00  0.00     0.210 HD
ENDBRANCH   3  13
BRANCH   1  15
HETATM   15  C   UNK N   1      19.577  18.638   9.474  0.00  0.00     0.198 C 
BRANCH  15  16
HETATM   16  O   UNK N   1      18.299  18.606  10.035  0.00  0.00    -0.398 OA
HETATM   17  H   UNK N   1      17.970  18.074  10.775  0.00  0.00     0.209 HD
ENDBRANCH  15  16
ENDBRANCH   1  15
BRANCH   2  18
HETATM   18  O   UNK N   1      18.590  15.677   9.226  0.00  0.00    -0.390 OA
HETATM   19  H   UNK N   1      18.193  15.098   9.894  0.00  0.00     0.210 HD
ENDBRANCH   2  18
TORSDOF 7
ENDMDL
MODEL 8
REMARK VINA RESULT:      -4.6      5.132      7.897
REMARK  7 active torsions:
REMARK  status: ('A' for Active; 'I' for Inactive)
REMARK    1  A    between atoms: C_5  and  C_3 
REMARK    2  A    between atoms: O_10  and  C_3 
REMARK    3  A    between atoms: S_15  and  C_4 
REMARK    4  A    between atoms: C_6  and  O_11 
REMARK    5  A    between atoms: C_7  and  O_12 
REMARK    6  A    between atoms: C_8  and  O_13 
REMARK    7  A    between atoms: C_9  and  S_15 
ROOT
HETATM    1  C   UNK N   1      33.019  15.490   8.361  0.00  0.00     0.178 C 
HETATM    2  C   UNK N   1      33.667  16.813   8.862  0.00  0.00     0.180 C 
HETATM    3  C   UNK N   1      33.702  17.863   7.723  0.00  0.00     0.181 C 
HETATM    4  C   UNK N   1      33.833  17.158   6.370  0.00  0.00     0.188 C 
HETATM    5  C   UNK N   1      32.559  16.263   6.191  0.00  0.00     0.215 C 
HETATM    6  O   UNK N   1      32.006  15.767   7.416  0.00  0.00    -0.363 OA
ENDROOT
BRANCH   5   7
HETATM    7  S   UNK N   1      31.241  17.248   5.387  0.00  0.00    -0.131 SA
BRANCH   7   8
HETATM    8  C   UNK N   1      31.347  16.344   3.807  0.00  0.00     0.041 C 
HETATM    9  C   UNK N   1      30.006  16.340   3.105  0.00  0.00     0.021 C 
HETATM   10  C   UNK N   1      32.419  16.946   2.924  0.00  0.00     0.021 C 
ENDBRANCH   7   8
ENDBRANCH   5   7
BRANCH   4  11
HETATM   11  O   UNK N   1      34.992  16.375   6.362  0.00  0.00    -0.389 OA
HETATM   12  H   UNK N   1      35.922  16.111   6.439  0.00  0.00     0.210 HD
ENDBRANCH   4  11
BRANCH   3  13
HETATM   13  O   UNK N   1      34.724  18.795   7.926  0.00  0.00    -0.390 OA
HETATM   14  H   UNK N   1      35.601  18.645   7.540  0.00  0.00     0.210 HD
ENDBRANCH   3  13
BRANCH   1  15
HETATM   15  C   UNK N   1      32.441  14.673   9.510  0.00  0.00     0.198 C 
BRANCH  15  16
HETATM   16  O   UNK N   1      32.884  15.164  10.739  0.00  0.00    -0.398 OA
HETATM   17  H   UNK N   1      32.382  15.309  11.556  0.00  0.00     0.209 HD
ENDBRANCH  15  16
ENDBRANCH   1  15
BRANCH   2  18
HETATM   18  O   UNK N   1      34.960  16.521   9.315  0.00  0.00    -0.390 OA
HETATM   19  H   UNK N   1      35.499  16.697  10.101  0.00  0.00     0.210 HD
ENDBRANCH   2  18
TORSDOF 7
ENDMDL
MODEL 9
REMARK VINA RESULT:      -4.6     16.132     18.503
REMARK  7 active torsions:
REMARK  status: ('A' for Active; 'I' for Inactive)
REMARK    1  A    between atoms: C_5  and  C_3 
REMARK    2  A    between atoms: O_10  and  C_3 
REMARK    3  A    between atoms: S_15  and  C_4 
REMARK    4  A    between atoms: C_6  and  O_11 
REMARK    5  A    between atoms: C_7  and  O_12 
REMARK    6  A    between atoms: C_8  and  O_13 
REMARK    7  A    between atoms: C_9  and  S_15 
ROOT
HETATM    1  C   UNK N   1      19.607  15.950   2.273  0.00  0.00     0.178 C 
HETATM    2  C   UNK N   1      20.016  16.704   0.976  0.00  0.00     0.180 C 
HETATM    3  C   UNK N   1      20.561  18.114   1.319  0.00  0.00     0.181 C 
HETATM    4  C   UNK N   1      19.881  18.640   2.585  0.00  0.00     0.188 C 
HETATM    5  C   UNK N   1      20.252  17.660   3.750  0.00  0.00     0.215 C 
HETATM    6  O   UNK N   1      20.465  16.304   3.338  0.00  0.00    -0.363 OA
ENDROOT
BRANCH   5   7
HETATM    7  S   UNK N   1      21.812  18.216   4.531  0.00  0.00    -0.131 SA
BRANCH   7   8
HETATM    8  C   UNK N   1      22.280  16.546   5.092  0.00  0.00     0.041 C 
HETATM    9  C   UNK N   1      23.738  16.273   4.793  0.00  0.00     0.021 C 
HETATM   10  C   UNK N   1      21.992  16.384   6.570  0.00  0.00     0.021 C 
ENDBRANCH   7   8
ENDBRANCH   5   7
BRANCH   4  11
HETATM   11  O   UNK N   1      18.496  18.675   2.391  0.00  0.00    -0.389 OA
HETATM   12  H   UNK N   1      17.567  18.945   2.455  0.00  0.00     0.210 HD
ENDBRANCH   4  11
BRANCH   3  13
HETATM   13  O   UNK N   1      20.408  18.991   0.242  0.00  0.00    -0.390 OA
HETATM   14  H   UNK N   1      20.817  18.786  -0.613  0.00  0.00     0.210 HD
ENDBRANCH   3  13
BRANCH   1  15
HETATM   15  C   UNK N   1      19.624  14.439   2.079  0.00  0.00     0.198 C 
BRANCH  15  16
HETATM   16  O   UNK N   1      18.458  14.008   1.444  0.00  0.00    -0.398 OA
HETATM   17  H   UNK N   1      17.999  13.157   1.522  0.00  0.00     0.209 HD
ENDBRANCH  15  16
ENDBRANCH   1  15
BRANCH   2  18
HETATM   18  O   UNK N   1      18.890  16.791   0.147  0.00  0.00    -0.390 OA
HETATM   19  H   UNK N   1      18.013  17.203   0.173  0.00  0.00     0.210 HD
ENDBRANCH   2  18
TORSDOF 7
ENDMDL
