MODEL 1
REMARK VINA RESULT:      -5.0      0.000      0.000
REMARK  9 active torsions:
REMARK  status: ('A' for Active; 'I' for Inactive)
REMARK    1  A    between atoms: C_5  and  C_3 
REMARK    2  A    between atoms: O_12  and  C_3 
REMARK    3  A    between atoms: O_13  and  C_4 
REMARK    4  A    between atoms: C_6  and  C_5 
REMARK    5  A    between atoms: C_5  and  N_7 
REMARK    6  A    between atoms: O_9  and  C_6 
REMARK    7  A    between atoms: P_14  and  O_10 
REMARK    8  A    between atoms: P_14  and  O_12 
REMARK    9  A    between atoms: P_14  and  O_13 
ROOT
HETATM    1  C   UNK N   1      35.173  13.958  11.067  0.00  0.00     0.216 C 
ENDROOT
BRANCH   1   2
HETATM    2  C   UNK N   1      34.793  15.148  10.191  0.00  0.00     0.198 C 
BRANCH   2   3
HETATM    3  C   UNK N   1      35.731  16.291  10.505  0.00  0.00     0.165 C 
HETATM    4  O   UNK N   1      35.415  17.445  10.283  0.00  0.00    -0.648 OA
BRANCH   3   5
HETATM    5  O   UNK N   1      36.943  16.027  11.042  0.00  0.00    -0.775 OA
HETATM    6  H   UNK N   1      37.202  16.443  11.841  0.00  0.00     0.167 HD
ENDBRANCH   3   5
ENDBRANCH   2   3
BRANCH   2   7
HETATM    7  N   UNK N   1      33.413  15.536  10.456  0.00  0.00    -0.416 N 
HETATM    8  H   UNK N   1      32.847  15.004  11.117  0.00  0.00     0.150 HD
HETATM    9  H   UNK N   1      33.013  16.343   9.978  0.00  0.00     0.150 HD
ENDBRANCH   2   7
ENDBRANCH   1   2
BRANCH   1  10
HETATM   10  O   UNK N   1      34.732  14.035  12.403  0.00  0.00    -0.294 OA
BRANCH  10  11
HETATM   11  P   UNK N   1      36.177  13.637  13.313  0.00  0.00     0.393 P 
HETATM   12  O   UNK N   1      36.572  14.986  13.971  0.00  0.00    -0.631 OA
BRANCH  11  13
HETATM   13  O   UNK N   1      37.535  13.285  12.287  0.00  0.00    -0.307 OA
HETATM   14  H   UNK N   1      37.417  12.758  11.481  0.00  0.00     0.222 HD
ENDBRANCH  11  13
BRANCH  11  15
HETATM   15  O   UNK N   1      36.077  12.597  14.721  0.00  0.00    -0.292 OA
BRANCH  15  16
HETATM   16  C   UNK N   1      34.808  12.687  15.293  0.00  0.00     0.125 C 
HETATM   17  C   UNK N   1      34.026  11.426  14.964  0.00  0.00     0.040 C 
HETATM   18  C   UNK N   1      34.982  12.741  16.798  0.00  0.00     0.040 C 
ENDBRANCH  15  16
ENDBRANCH  11  15
ENDBRANCH  10  11
ENDBRANCH   1  10
TORSDOF 9
ENDMDL
MODEL 2
REMARK VINA RESULT:      -5.0      2.625      3.670
REMARK  9 active torsions:
REMARK  status: ('A' for Active; 'I' for Inactive)
REMARK    1  A    between atoms: C_5  and  C_3 
REMARK    2  A    between atoms: O_12  and  C_3 
REMARK    3  A    between atoms: O_13  and  C_4 
REMARK    4  A    between atoms: C_6  and  C_5 
REMARK    5  A    between atoms: C_5  and  N_7 
REMARK    6  A    between atoms: O_9  and  C_6 
REMARK    7  A    between atoms: P_14  and  O_10 
REMARK    8  A    between atoms: P_14  and  O_12 
REMARK    9  A    between atoms: P_14  and  O_13 
ROOT
HETATM    1  C   UNK N   1      33.600  15.944   9.074  0.00  0.00     0.216 C 
ENDROOT
BRANCH   1   2
HETATM    2  C   UNK N   1      32.994  16.985   8.138  0.00  0.00     0.198 C 
BRANCH   2   3
HETATM    3  C   UNK N   1      34.103  17.885   7.643  0.00  0.00     0.165 C 
HETATM    4  O   UNK N   1      34.417  17.909   6.467  0.00  0.00    -0.648 OA
BRANCH   3   5
HETATM    5  O   UNK N   1      34.756  18.679   8.520  0.00  0.00    -0.775 OA
HETATM    6  H   UNK N   1      35.645  18.491   8.750  0.00  0.00     0.167 HD
ENDBRANCH   3   5
ENDBRANCH   2   3
BRANCH   2   7
HETATM    7  N   UNK N   1      31.987  17.762   8.849  0.00  0.00    -0.416 N 
HETATM    8  H   UNK N   1      32.184  18.133   9.778  0.00  0.00     0.150 HD
HETATM    9  H   UNK N   1      31.081  17.936   8.414  0.00  0.00     0.150 HD
ENDBRANCH   2   7
ENDBRANCH   1   2
BRANCH   1  10
HETATM   10  O   UNK N   1      34.986  15.739   8.921  0.00  0.00    -0.294 OA
BRANCH  10  11
HETATM   11  P   UNK N   1      35.570  15.779  10.574  0.00  0.00     0.393 P 
HETATM   12  O   UNK N   1      35.207  17.211  11.051  0.00  0.00    -0.631 OA
BRANCH  11  13
HETATM   13  O   UNK N   1      37.305  15.758  10.669  0.00  0.00    -0.307 OA
HETATM   14  H   UNK N   1      37.834  16.354  10.115  0.00  0.00     0.222 HD
ENDBRANCH  11  13
BRANCH  11  15
HETATM   15  O   UNK N   1      34.791  14.810  11.811  0.00  0.00    -0.292 OA
BRANCH  15  16
HETATM   16  C   UNK N   1      35.699  13.898  12.347  0.00  0.00     0.125 C 
HETATM   17  C   UNK N   1      36.263  14.464  13.641  0.00  0.00     0.040 C 
HETATM   18  C   UNK N   1      34.936  12.634  12.692  0.00  0.00     0.040 C 
ENDBRANCH  15  16
ENDBRANCH  11  15
ENDBRANCH  10  11
ENDBRANCH   1  10
TORSDOF 9
ENDMDL
MODEL 3
REMARK VINA RESULT:      -5.0     13.253     14.780
REMARK  9 active torsions:
REMARK  status: ('A' for Active; 'I' for Inactive)
REMARK    1  A    between atoms: C_5  and  C_3 
REMARK    2  A    between atoms: O_12  and  C_3 
REMARK    3  A    between atoms: O_13  and  C_4 
REMARK    4  A    between atoms: C_6  and  C_5 
REMARK    5  A    between atoms: C_5  and  N_7 
REMARK    6  A    between atoms: O_9  and  C_6 
REMARK    7  A    between atoms: P_14  and  O_10 
REMARK    8  A    between atoms: P_14  and  O_12 
REMARK    9  A    between atoms: P_14  and  O_13 
ROOT
HETATM    1  C   UNK N   1      23.010  12.446   9.832  0.00  0.00     0.216 C 
ENDROOT
BRANCH   1   2
HETATM    2  C   UNK N   1      23.983  12.005  10.921  0.00  0.00     0.198 C 
BRANCH   2   3
HETATM    3  C   UNK N   1      23.236  11.947  12.234  0.00  0.00     0.165 C 
HETATM    4  O   UNK N   1      23.813  12.104  13.294  0.00  0.00    -0.648 OA
BRANCH   3   5
HETATM    5  O   UNK N   1      21.904  11.717  12.231  0.00  0.00    -0.775 OA
HETATM    6  H   UNK N   1      21.318  12.363  11.890  0.00  0.00     0.167 HD
ENDBRANCH   3   5
ENDBRANCH   2   3
BRANCH   2   7
HETATM    7  N   UNK N   1      25.090  12.949  11.007  0.00  0.00    -0.416 N 
HETATM    8  H   UNK N   1      25.539  13.294  10.159  0.00  0.00     0.150 HD
HETATM    9  H   UNK N   1      25.416  13.267  11.919  0.00  0.00     0.150 HD
ENDBRANCH   2   7
ENDBRANCH   1   2
BRANCH   1  10
HETATM   10  O   UNK N   1      22.452  13.727  10.014  0.00  0.00    -0.294 OA
BRANCH  10  11
HETATM   11  P   UNK N   1      20.863  13.565   9.290  0.00  0.00     0.393 P 
HETATM   12  O   UNK N   1      20.040  12.835  10.386  0.00  0.00    -0.631 OA
BRANCH  11  13
HETATM   13  O   UNK N   1      20.845  12.439   7.967  0.00  0.00    -0.307 OA
HETATM   14  H   UNK N   1      20.340  12.635   7.162  0.00  0.00     0.222 HD
ENDBRANCH  11  13
BRANCH  11  15
HETATM   15  O   UNK N   1      19.867  14.982   9.016  0.00  0.00    -0.292 OA
BRANCH  15  16
HETATM   16  C   UNK N   1      20.673  16.093   8.771  0.00  0.00     0.125 C 
HETATM   17  C   UNK N   1      21.348  15.927   7.418  0.00  0.00     0.040 C 
HETATM   18  C   UNK N   1      19.773  17.309   8.689  0.00  0.00     0.040 C 
ENDBRANCH  15  16
ENDBRANCH  11  15
ENDBRANCH  10  11
ENDBRANCH   1  10
TORSDOF 9
ENDMDL
MODEL 4
REMARK VINA RESULT:      -4.8      1.206      1.704
REMARK  9 active torsions:
REMARK  status: ('A' for Active; 'I' for Inactive)
REMARK    1  A    between atoms: C_5  and  C_3 
REMARK    2  A    between atoms: O_12  and  C_3 
REMARK    3  A    between atoms: O_13  and  C_4 
REMARK    4  A    between atoms: C_6  and  C_5 
REMARK    5  A    between atoms: C_5  and  N_7 
REMARK    6  A    between atoms: O_9  and  C_6 
REMARK    7  A    between atoms: P_14  and  O_10 
REMARK    8  A    between atoms: P_14  and  O_12 
REMARK    9  A    between atoms: P_14  and  O_13 
ROOT
HETATM    1  C   UNK N   1      35.367  13.897  11.755  0.00  0.00     0.216 C 
ENDROOT
BRANCH   1   2
HETATM    2  C   UNK N   1      34.896  14.862  10.671  0.00  0.00     0.198 C 
BRANCH   2   3
HETATM    3  C   UNK N   1      35.711  16.131  10.775  0.00  0.00     0.165 C 
HETATM    4  O   UNK N   1      35.177  17.224  10.774  0.00  0.00    -0.648 OA
BRANCH   3   5
HETATM    5  O   UNK N   1      37.057  16.050  10.873  0.00  0.00    -0.775 OA
HETATM    6  H   UNK N   1      37.580  16.821  10.778  0.00  0.00     0.167 HD
ENDBRANCH   3   5
ENDBRANCH   2   3
BRANCH   2   7
HETATM    7  N   UNK N   1      33.479  15.151  10.849  0.00  0.00    -0.416 N 
HETATM    8  H   UNK N   1      33.183  15.946  11.416  0.00  0.00     0.150 HD
HETATM    9  H   UNK N   1      32.781  14.557  10.403  0.00  0.00     0.150 HD
ENDBRANCH   2   7
ENDBRANCH   1   2
BRANCH   1  10
HETATM   10  O   UNK N   1      35.758  14.504  12.965  0.00  0.00    -0.294 OA
BRANCH  10  11
HETATM   11  P   UNK N   1      35.648  13.184  14.115  0.00  0.00     0.393 P 
HETATM   12  O   UNK N   1      36.716  12.176  13.612  0.00  0.00    -0.631 OA
BRANCH  11  13
HETATM   13  O   UNK N   1      34.163  12.294  13.966  0.00  0.00    -0.307 OA
HETATM   14  H   UNK N   1      33.319  12.700  14.220  0.00  0.00     0.222 HD
ENDBRANCH  11  13
BRANCH  11  15
HETATM   15  O   UNK N   1      36.163  13.412  15.775  0.00  0.00    -0.292 OA
BRANCH  15  16
HETATM   16  C   UNK N   1      35.179  12.953  16.650  0.00  0.00     0.125 C 
HETATM   17  C   UNK N   1      35.534  11.544  17.098  0.00  0.00     0.040 C 
HETATM   18  C   UNK N   1      35.195  13.844  17.875  0.00  0.00     0.040 C 
ENDBRANCH  15  16
ENDBRANCH  11  15
ENDBRANCH  10  11
ENDBRANCH   1  10
TORSDOF 9
ENDMDL
MODEL 5
REMARK VINA RESULT:      -4.7      3.580      6.912
REMARK  9 active torsions:
REMARK  status: ('A' for Active; 'I' for Inactive)
REMARK    1  A    between atoms: C_5  and  C_3 
REMARK    2  A    between atoms: O_12  and  C_3 
REMARK    3  A    between atoms: O_13  and  C_4 
REMARK    4  A    between atoms: C_6  and  C_5 
REMARK    5  A    between atoms: C_5  and  N_7 
REMARK    6  A    between atoms: O_9  and  C_6 
REMARK    7  A    between atoms: P_14  and  O_10 
REMARK    8  A    between atoms: P_14  and  O_12 
REMARK    9  A    between atoms: P_14  and  O_13 
ROOT
HETATM    1  C   UNK N   1      34.169  15.151   9.642  0.00  0.00     0.216 C 
ENDROOT
BRANCH   1   2
HETATM    2  C   UNK N   1      34.741  14.919  11.037  0.00  0.00     0.198 C 
BRANCH   2   3
HETATM    3  C   UNK N   1      36.246  15.035  10.961  0.00  0.00     0.165 C 
HETATM    4  O   UNK N   1      36.956  14.048  10.992  0.00  0.00    -0.648 OA
BRANCH   3   5
HETATM    5  O   UNK N   1      36.813  16.257  10.854  0.00  0.00    -0.775 OA
HETATM    6  H   UNK N   1      36.828  16.696  10.026  0.00  0.00     0.167 HD
ENDBRANCH   3   5
ENDBRANCH   2   3
BRANCH   2   7
HETATM    7  N   UNK N   1      34.356  13.597  11.515  0.00  0.00    -0.416 N 
HETATM    8  H   UNK N   1      34.806  13.197  12.338  0.00  0.00     0.150 HD
HETATM    9  H   UNK N   1      33.634  13.070  11.024  0.00  0.00     0.150 HD
ENDBRANCH   2   7
ENDBRANCH   1   2
BRANCH   1  10
HETATM   10  O   UNK N   1      35.067  15.716   8.715  0.00  0.00    -0.294 OA
BRANCH  10  11
HETATM   11  P   UNK N   1      34.283  17.224   8.283  0.00  0.00     0.393 P 
HETATM   12  O   UNK N   1      35.165  18.300   8.971  0.00  0.00    -0.631 OA
BRANCH  11  13
HETATM   13  O   UNK N   1      32.742  17.421   9.061  0.00  0.00    -0.307 OA
HETATM   14  H   UNK N   1      32.436  18.302   9.330  0.00  0.00     0.222 HD
ENDBRANCH  11  13
BRANCH  11  15
HETATM   15  O   UNK N   1      34.304  17.788   6.623  0.00  0.00    -0.292 OA
BRANCH  15  16
HETATM   16  C   UNK N   1      33.504  16.968   5.828  0.00  0.00     0.125 C 
HETATM   17  C   UNK N   1      33.056  17.750   4.604  0.00  0.00     0.040 C 
HETATM   18  C   UNK N   1      34.359  15.812   5.348  0.00  0.00     0.040 C 
ENDBRANCH  15  16
ENDBRANCH  11  15
ENDBRANCH  10  11
ENDBRANCH   1  10
TORSDOF 9
ENDMDL
MODEL 6
REMARK VINA RESULT:      -4.7     15.915     17.360
REMARK  9 active torsions:
REMARK  status: ('A' for Active; 'I' for Inactive)
REMARK    1  A    between atoms: C_5  and  C_3 
REMARK    2  A    between atoms: O_12  and  C_3 
REMARK    3  A    between atoms: O_13  and  C_4 
REMARK    4  A    between atoms: C_6  and  C_5 
REMARK    5  A    between atoms: C_5  and  N_7 
REMARK    6  A    between atoms: O_9  and  C_6 
REMARK    7  A    between atoms: P_14  and  O_10 
REMARK    8  A    between atoms: P_14  and  O_12 
REMARK    9  A    between atoms: P_14  and  O_13 
ROOT
HETATM    1  C   UNK N   1      21.419  18.706   3.191  0.00  0.00     0.216 C 
ENDROOT
BRANCH   1   2
HETATM    2  C   UNK N   1      20.558  19.179   2.024  0.00  0.00     0.198 C 
BRANCH   2   3
HETATM    3  C   UNK N   1      21.053  20.539   1.587  0.00  0.00     0.165 C 
HETATM    4  O   UNK N   1      21.195  20.808   0.409  0.00  0.00    -0.648 OA
BRANCH   3   5
HETATM    5  O   UNK N   1      21.342  21.473   2.520  0.00  0.00    -0.775 OA
HETATM    6  H   UNK N   1      20.655  21.845   3.038  0.00  0.00     0.167 HD
ENDBRANCH   3   5
ENDBRANCH   2   3
BRANCH   2   7
HETATM    7  N   UNK N   1      19.163  19.254   2.439  0.00  0.00    -0.416 N 
HETATM    8  H   UNK N   1      18.631  18.402   2.611  0.00  0.00     0.150 HD
HETATM    9  H   UNK N   1      18.718  20.164   2.557  0.00  0.00     0.150 HD
ENDBRANCH   2   7
ENDBRANCH   1   2
BRANCH   1  10
HETATM   10  O   UNK N   1      21.066  19.235   4.448  0.00  0.00    -0.294 OA
BRANCH  10  11
HETATM   11  P   UNK N   1      21.753  18.073   5.567  0.00  0.00     0.393 P 
HETATM   12  O   UNK N   1      21.224  18.546   6.948  0.00  0.00    -0.631 OA
BRANCH  11  13
HETATM   13  O   UNK N   1      23.475  18.239   5.725  0.00  0.00    -0.307 OA
HETATM   14  H   UNK N   1      23.871  19.110   5.889  0.00  0.00     0.222 HD
ENDBRANCH  11  13
BRANCH  11  15
HETATM   15  O   UNK N   1      21.209  16.406   5.556  0.00  0.00    -0.292 OA
BRANCH  15  16
HETATM   16  C   UNK N   1      20.063  16.271   6.338  0.00  0.00     0.125 C 
HETATM   17  C   UNK N   1      18.893  15.896   5.442  0.00  0.00     0.040 C 
HETATM   18  C   UNK N   1      20.292  15.124   7.301  0.00  0.00     0.040 C 
ENDBRANCH  15  16
ENDBRANCH  11  15
ENDBRANCH  10  11
ENDBRANCH   1  10
TORSDOF 9
ENDMDL
MODEL 7
REMARK VINA RESULT:      -4.7      4.260      7.582
REMARK  9 active torsions:
REMARK  status: ('A' for Active; 'I' for Inactive)
REMARK    1  A    between atoms: C_5  and  C_3 
REMARK    2  A    between atoms: O_12  and  C_3 
REMARK    3  A    between atoms: O_13  and  C_4 
REMARK    4  A    between atoms: C_6  and  C_5 
REMARK    5  A    between atoms: C_5  and  N_7 
REMARK    6  A    between atoms: O_9  and  C_6 
REMARK    7  A    between atoms: P_14  and  O_10 
REMARK    8  A    between atoms: P_14  and  O_12 
REMARK    9  A    between atoms: P_14  and  O_13 
ROOT
HETATM    1  C   UNK N   1      34.796  15.554   8.823  0.00  0.00     0.216 C 
ENDROOT
BRANCH   1   2
HETATM    2  C   UNK N   1      35.177  15.763  10.285  0.00  0.00     0.198 C 
BRANCH   2   3
HETATM    3  C   UNK N   1      34.244  14.940  11.143  0.00  0.00     0.165 C 
HETATM    4  O   UNK N   1      34.673  14.200  12.009  0.00  0.00    -0.648 OA
BRANCH   3   5
HETATM    5  O   UNK N   1      32.910  15.029  10.948  0.00  0.00    -0.775 OA
HETATM    6  H   UNK N   1      32.449  15.802  11.208  0.00  0.00     0.167 HD
ENDBRANCH   3   5
ENDBRANCH   2   3
BRANCH   2   7
HETATM    7  N   UNK N   1      35.072  17.175  10.627  0.00  0.00    -0.416 N 
HETATM    8  H   UNK N   1      34.207  17.685  10.446  0.00  0.00     0.150 HD
HETATM    9  H   UNK N   1      35.866  17.655  11.050  0.00  0.00     0.150 HD
ENDBRANCH   2   7
ENDBRANCH   1   2
BRANCH   1  10
HETATM   10  O   UNK N   1      33.536  16.068   8.456  0.00  0.00    -0.294 OA
BRANCH  10  11
HETATM   11  P   UNK N   1      33.932  17.185   7.164  0.00  0.00     0.393 P 
HETATM   12  O   UNK N   1      34.971  16.403   6.317  0.00  0.00    -0.631 OA
BRANCH  11  13
HETATM   13  O   UNK N   1      34.834  18.560   7.725  0.00  0.00    -0.307 OA
HETATM   14  H   UNK N   1      35.580  18.442   8.335  0.00  0.00     0.222 HD
ENDBRANCH  11  13
BRANCH  11  15
HETATM   15  O   UNK N   1      32.739  17.583   5.942  0.00  0.00    -0.292 OA
BRANCH  15  16
HETATM   16  C   UNK N   1      32.673  16.569   4.988  0.00  0.00     0.125 C 
HETATM   17  C   UNK N   1      31.391  15.779   5.192  0.00  0.00     0.040 C 
HETATM   18  C   UNK N   1      32.600  17.222   3.622  0.00  0.00     0.040 C 
ENDBRANCH  15  16
ENDBRANCH  11  15
ENDBRANCH  10  11
ENDBRANCH   1  10
TORSDOF 9
ENDMDL
MODEL 8
REMARK VINA RESULT:      -4.6      2.632      3.968
REMARK  9 active torsions:
REMARK  status: ('A' for Active; 'I' for Inactive)
REMARK    1  A    between atoms: C_5  and  C_3 
REMARK    2  A    between atoms: O_12  and  C_3 
REMARK    3  A    between atoms: O_13  and  C_4 
REMARK    4  A    between atoms: C_6  and  C_5 
REMARK    5  A    between atoms: C_5  and  N_7 
REMARK    6  A    between atoms: O_9  and  C_6 
REMARK    7  A    between atoms: P_14  and  O_10 
REMARK    8  A    between atoms: P_14  and  O_12 
REMARK    9  A    between atoms: P_14  and  O_13 
ROOT
HETATM    1  C   UNK N   1      34.957  16.617   9.772  0.00  0.00     0.216 C 
ENDROOT
BRANCH   1   2
HETATM    2  C   UNK N   1      33.984  16.891   8.630  0.00  0.00     0.198 C 
BRANCH   2   3
HETATM    3  C   UNK N   1      34.508  18.060   7.827  0.00  0.00     0.165 C 
HETATM    4  O   UNK N   1      34.971  19.043   8.374  0.00  0.00    -0.648 OA
BRANCH   3   5
HETATM    5  O   UNK N   1      34.464  18.011   6.477  0.00  0.00    -0.775 OA
HETATM    6  H   UNK N   1      35.234  17.794   5.991  0.00  0.00     0.167 HD
ENDBRANCH   3   5
ENDBRANCH   2   3
BRANCH   2   7
HETATM    7  N   UNK N   1      32.664  17.194   9.168  0.00  0.00    -0.416 N 
HETATM    8  H   UNK N   1      32.504  17.184  10.175  0.00  0.00     0.150 HD
HETATM    9  H   UNK N   1      31.897  17.418   8.534  0.00  0.00     0.150 HD
ENDBRANCH   2   7
ENDBRANCH   1   2
BRANCH   1  10
HETATM   10  O   UNK N   1      35.710  15.433   9.642  0.00  0.00    -0.294 OA
BRANCH  10  11
HETATM   11  P   UNK N   1      34.718  14.247  10.470  0.00  0.00     0.393 P 
HETATM   12  O   UNK N   1      34.069  13.446   9.310  0.00  0.00    -0.631 OA
BRANCH  11  13
HETATM   13  O   UNK N   1      33.351  14.964  11.269  0.00  0.00    -0.307 OA
HETATM   14  H   UNK N   1      33.051  14.626  12.127  0.00  0.00     0.222 HD
ENDBRANCH  11  13
BRANCH  11  15
HETATM   15  O   UNK N   1      35.466  12.955  11.389  0.00  0.00    -0.292 OA
BRANCH  15  16
HETATM   16  C   UNK N   1      36.661  13.399  11.954  0.00  0.00     0.125 C 
HETATM   17  C   UNK N   1      36.766  12.863  13.373  0.00  0.00     0.040 C 
HETATM   18  C   UNK N   1      37.801  12.805  11.152  0.00  0.00     0.040 C 
ENDBRANCH  15  16
ENDBRANCH  11  15
ENDBRANCH  10  11
ENDBRANCH   1  10
TORSDOF 9
ENDMDL
MODEL 9
REMARK VINA RESULT:      -4.6      4.035      7.016
REMARK  9 active torsions:
REMARK  status: ('A' for Active; 'I' for Inactive)
REMARK    1  A    between atoms: C_5  and  C_3 
REMARK    2  A    between atoms: O_12  and  C_3 
REMARK    3  A    between atoms: O_13  and  C_4 
REMARK    4  A    between atoms: C_6  and  C_5 
REMARK    5  A    between atoms: C_5  and  N_7 
REMARK    6  A    between atoms: O_9  and  C_6 
REMARK    7  A    between atoms: P_14  and  O_10 
REMARK    8  A    between atoms: P_14  and  O_12 
REMARK    9  A    between atoms: P_14  and  O_13 
ROOT
HETATM    1  C   UNK N   1      34.053  15.198   9.278  0.00  0.00     0.216 C 
ENDROOT
BRANCH   1   2
HETATM    2  C   UNK N   1      34.472  15.579  10.694  0.00  0.00     0.198 C 
BRANCH   2   3
HETATM    3  C   UNK N   1      35.664  16.504  10.606  0.00  0.00     0.165 C 
HETATM    4  O   UNK N   1      35.529  17.681  10.331  0.00  0.00    -0.648 OA
BRANCH   3   5
HETATM    5  O   UNK N   1      36.903  16.015  10.839  0.00  0.00    -0.775 OA
HETATM    6  H   UNK N   1      37.055  15.458  11.577  0.00  0.00     0.167 HD
ENDBRANCH   3   5
ENDBRANCH   2   3
BRANCH   2   7
HETATM    7  N   UNK N   1      34.812  14.380  11.449  0.00  0.00    -0.416 N 
HETATM    8  H   UNK N   1      35.619  13.816  11.182  0.00  0.00     0.150 HD
HETATM    9  H   UNK N   1      34.241  14.104  12.247  0.00  0.00     0.150 HD
ENDBRANCH   2   7
ENDBRANCH   1   2
BRANCH   1  10
HETATM   10  O   UNK N   1      35.077  15.270   8.312  0.00  0.00    -0.294 OA
BRANCH  10  11
HETATM   11  P   UNK N   1      34.362  16.270   7.061  0.00  0.00     0.393 P 
HETATM   12  O   UNK N   1      35.209  15.936   5.804  0.00  0.00    -0.631 OA
BRANCH  11  13
HETATM   13  O   UNK N   1      34.667  17.963   7.306  0.00  0.00    -0.307 OA
HETATM   14  H   UNK N   1      34.660  18.339   8.200  0.00  0.00     0.222 HD
ENDBRANCH  11  13
BRANCH  11  15
HETATM   15  O   UNK N   1      32.746  15.929   6.473  0.00  0.00    -0.292 OA
BRANCH  15  16
HETATM   16  C   UNK N   1      32.073  17.119   6.203  0.00  0.00     0.125 C 
HETATM   17  C   UNK N   1      32.168  17.417   4.716  0.00  0.00     0.040 C 
HETATM   18  C   UNK N   1      30.609  16.910   6.538  0.00  0.00     0.040 C 
ENDBRANCH  15  16
ENDBRANCH  11  15
ENDBRANCH  10  11
ENDBRANCH   1  10
TORSDOF 9
ENDMDL
