REMARK  7 active torsions:
REMARK  status: ('A' for Active; 'I' for Inactive)
REMARK    1  A    between atoms: C_2  and  C_1 
REMARK    2  A    between atoms: O_13  and  C_1 
REMARK    3  A    between atoms: C_3  and  O_14 
REMARK    4  A    between atoms: C_4  and  O_15 
REMARK    5  A    between atoms: C_5  and  O_16 
REMARK    6  A    between atoms: O_18  and  C_7 
REMARK    7  A    between atoms: N_12  and  N_9 
ROOT
HETATM    1  C   UNK N   1       2.794  -0.737   0.218  0.00  0.00     0.180 C 
HETATM    2  C   UNK N   1       3.748   0.467   0.117  0.00  0.00     0.180 C 
HETATM    3  C   UNK N   1       2.971   1.629  -0.521  0.00  0.00     0.183 C 
HETATM    4  C   UNK N   1       1.696   1.921   0.290  0.00  0.00     0.215 C 
HETATM    5  C   UNK N   1       0.032   0.156  -0.666  0.00  0.00     0.304 A 
HETATM    6  C   UNK N   1      -1.351   0.648   0.965  0.00  0.00     0.244 A 
HETATM    7  C   UNK N   1       0.878   0.620   0.523  0.00  0.00     0.251 A 
HETATM    8  N   UNK N   1      -0.203   0.900   1.478  0.00  0.00    -0.313 N 
ATOM      9  HN  UNK N   1      -0.059   1.249   2.426  1.00  0.00     0.166 HD
HETATM   10  N   UNK N   1      -1.258   0.187  -0.338  0.00  0.00    -0.188 N 
HETATM   11  O   UNK N   1       0.439  -0.201  -1.760  0.00  0.00    -0.265 OA
HETATM   12  O   UNK N   1       1.686  -0.429   1.053  0.00  0.00    -0.340 OA
ENDROOT
BRANCH   4  13
HETATM   13  O   UNK N   1       2.056   2.460   1.530  0.00  0.00    -0.387 OA
HETATM   14  H   UNK N   1       2.504   2.431   2.390  0.00  0.00     0.210 HD
ENDBRANCH   4  13
BRANCH   3  15
HETATM   15  O   UNK N   1       3.775   2.771  -0.594  0.00  0.00    -0.390 OA
HETATM   16  H   UNK N   1       4.739   2.684  -0.645  0.00  0.00     0.210 HD
ENDBRANCH   3  15
BRANCH  10  17
HETATM   17  N   UNK N   1      -2.319  -0.187  -1.152  0.00  0.00    -0.333 N 
HETATM   18  H   UNK N   1      -2.946   0.350  -1.750  0.00  0.00     0.177 HD
HETATM   19  H   UNK N   1      -2.506  -1.190  -1.152  0.00  0.00     0.177 HD
ENDBRANCH  10  17
BRANCH   6  20
HETATM   20  O   UNK N   1      -2.510   0.817   1.629  0.00  0.00    -0.331 OA
HETATM   21  H   UNK N   1      -2.811   1.575   2.092  0.00  0.00     0.221 HD
ENDBRANCH   6  20
BRANCH   1  22
HETATM   22  C   UNK N   1       3.502  -1.959   0.792  0.00  0.00     0.198 C 
BRANCH  22  23
HETATM   23  O   UNK N   1       4.480  -2.419  -0.093  0.00  0.00    -0.398 OA
HETATM   24  H   UNK N   1       4.542  -3.167  -0.707  0.00  0.00     0.209 HD
ENDBRANCH  22  23
ENDBRANCH   1  22
BRANCH   2  25
HETATM   25  O   UNK N   1       4.214   0.816   1.390  0.00  0.00    -0.390 OA
HETATM   26  H   UNK N   1       4.585   0.657   2.272  0.00  0.00     0.210 HD
ENDBRANCH   2  25
TORSDOF 7
