MODEL 1
REMARK VINA RESULT:      -6.7      0.000      0.000
REMARK  10 active torsions:
REMARK  status: ('A' for Active; 'I' for Inactive)
REMARK    1  A    between atoms: C_2  and  N_1 
REMARK    2  A    between atoms: C_3  and  N_8 
REMARK    3  A    between atoms: C_6  and  O_13 
REMARK    4  A    between atoms: C_7  and  C_14 
REMARK    5  A    between atoms: C_11  and  C_15 
REMARK    6  A    between atoms: C_12  and  O_16 
REMARK       I    between atoms: C_14  and  N_17 
REMARK    7  A    between atoms: C_15  and  O_19 
REMARK    8  A    between atoms: O_19  and  P_20 
REMARK    9  A    between atoms: P_20  and  O_21 
REMARK   10  A    between atoms: P_20  and  O_22 
ROOT
HETATM    1  C   UNK N   1      35.838  14.041  12.044  0.00  0.00     0.262 C 
HETATM    2  O   UNK N   1      36.056  15.405  12.233  0.00  0.00    -0.353 OA
HETATM    3  C   UNK N   1      37.039  13.570  11.279  0.00  0.00     0.198 C 
HETATM    4  C   UNK N   1      36.386  15.836  10.935  0.00  0.00     0.180 C 
HETATM    5  C   UNK N   1      37.049  14.652  10.225  0.00  0.00     0.182 C 
ENDROOT
BRANCH   1   6
HETATM    6  N   UNK N   1      35.483  13.378  13.296  0.00  0.00    -0.297 N 
HETATM    7  C   UNK N   1      35.921  13.550  14.558  0.00  0.00     0.137 A 
HETATM    8  C   UNK N   1      35.306  12.616  15.363  0.00  0.00     0.145 A 
HETATM    9  N   UNK N   1      34.475  11.874  14.605  0.00  0.00    -0.345 N 
HETATM   10  C   UNK N   1      34.603  12.357  13.349  0.00  0.00     0.188 A 
ATOM     11  HN  UNK N   1      33.876  11.109  14.914  1.00  0.00     0.167 HD
BRANCH   7  12
HETATM   12  N   UNK N   1      36.872  14.510  14.962  0.00  0.00    -0.383 N 
HETATM   13  H   UNK N   1      37.719  14.223  15.375  0.00  0.00     0.157 HD
HETATM   14  H   UNK N   1      36.688  15.469  14.833  0.00  0.00     0.157 HD
ENDBRANCH   7  12
BRANCH   8  15
HETATM   15  C   UNK N   1      35.497  12.388  16.806  0.00  0.00     0.269 C 
HETATM   16  N   UNK N   1      35.763  11.155  17.278  0.00  0.00    -0.365 N 
HETATM   17  H   UNK N   1      35.897  10.406  16.655  0.00  0.00     0.159 HD
HETATM   18  H   UNK N   1      35.822  11.003  18.249  0.00  0.00     0.159 HD
HETATM   19  O   UNK N   1      35.395  13.323  17.585  0.00  0.00    -0.266 OA
ENDBRANCH   8  15
ENDBRANCH   1   6
BRANCH   3  20
HETATM   20  O   UNK N   1      36.821  12.322  10.694  0.00  0.00    -0.388 OA
HETATM   21  H   UNK N   1      36.551  11.401  10.828  0.00  0.00     0.210 HD
ENDBRANCH   3  20
BRANCH   4  22
HETATM   22  C   UNK N   1      35.098  16.236  10.217  0.00  0.00     0.215 C 
BRANCH  22  23
HETATM   23  O   UNK N   1      35.262  17.527   9.695  0.00  0.00    -0.294 OA
BRANCH  23  24
HETATM   24  P   UNK N   1      34.070  17.712   8.448  0.00  0.00     0.390 P 
HETATM   25  O   UNK N   1      34.802  16.421   7.989  0.00  0.00    -0.632 OA
BRANCH  24  26
HETATM   26  O   UNK N   1      34.564  18.100   6.830  0.00  0.00    -0.307 OA
HETATM   27  H   UNK N   1      35.391  17.828   6.403  0.00  0.00     0.222 HD
ENDBRANCH  24  26
BRANCH  24  28
HETATM   28  O   UNK N   1      35.181  19.048   8.436  0.00  0.00    -0.307 OA
HETATM   29  H   UNK N   1      34.951  19.867   7.968  0.00  0.00     0.222 HD
ENDBRANCH  24  28
ENDBRANCH  23  24
ENDBRANCH  22  23
ENDBRANCH   4  22
BRANCH   5  30
HETATM   30  O   UNK N   1      38.359  14.961   9.859  0.00  0.00    -0.390 OA
HETATM   31  H   UNK N   1      38.779  14.981   8.985  0.00  0.00     0.210 HD
ENDBRANCH   5  30
TORSDOF 10
ENDMDL
MODEL 2
REMARK VINA RESULT:      -6.5     17.211     19.122
REMARK  10 active torsions:
REMARK  status: ('A' for Active; 'I' for Inactive)
REMARK    1  A    between atoms: C_2  and  N_1 
REMARK    2  A    between atoms: C_3  and  N_8 
REMARK    3  A    between atoms: C_6  and  O_13 
REMARK    4  A    between atoms: C_7  and  C_14 
REMARK    5  A    between atoms: C_11  and  C_15 
REMARK    6  A    between atoms: C_12  and  O_16 
REMARK       I    between atoms: C_14  and  N_17 
REMARK    7  A    between atoms: C_15  and  O_19 
REMARK    8  A    between atoms: O_19  and  P_20 
REMARK    9  A    between atoms: P_20  and  O_21 
REMARK   10  A    between atoms: P_20  and  O_22 
ROOT
HETATM    1  C   UNK N   1      19.930  16.117   3.584  0.00  0.00     0.262 C 
HETATM    2  O   UNK N   1      18.996  16.469   4.556  0.00  0.00    -0.353 OA
HETATM    3  C   UNK N   1      19.444  14.801   3.053  0.00  0.00     0.198 C 
HETATM    4  C   UNK N   1      18.906  15.292   5.322  0.00  0.00     0.180 C 
HETATM    5  C   UNK N   1      19.201  14.121   4.380  0.00  0.00     0.182 C 
ENDROOT
BRANCH   1   6
HETATM    6  N   UNK N   1      20.173  17.217   2.653  0.00  0.00    -0.297 N 
HETATM    7  C   UNK N   1      20.607  18.476   2.846  0.00  0.00     0.137 A 
HETATM    8  C   UNK N   1      20.598  19.131   1.633  0.00  0.00     0.145 A 
HETATM    9  N   UNK N   1      20.171  18.274   0.684  0.00  0.00    -0.345 N 
HETATM   10  C   UNK N   1      19.916  17.115   1.332  0.00  0.00     0.188 A 
ATOM     11  HN  UNK N   1      20.064  18.461  -0.312  1.00  0.00     0.167 HD
BRANCH   7  12
HETATM   12  N   UNK N   1      20.978  19.025   4.092  0.00  0.00    -0.383 N 
HETATM   13  H   UNK N   1      20.483  19.792   4.460  0.00  0.00     0.157 HD
HETATM   14  H   UNK N   1      21.733  18.640   4.593  0.00  0.00     0.157 HD
ENDBRANCH   7  12
BRANCH   8  15
HETATM   15  C   UNK N   1      20.950  20.533   1.350  0.00  0.00     0.269 C 
HETATM   16  N   UNK N   1      20.331  21.213   0.366  0.00  0.00    -0.365 N 
HETATM   17  H   UNK N   1      19.590  20.798  -0.131  0.00  0.00     0.159 HD
HETATM   18  H   UNK N   1      20.621  22.127   0.142  0.00  0.00     0.159 HD
HETATM   19  O   UNK N   1      21.826  21.080   2.002  0.00  0.00    -0.266 OA
ENDBRANCH   8  15
ENDBRANCH   1   6
BRANCH   3  20
HETATM   20  O   UNK N   1      20.439  14.134   2.338  0.00  0.00    -0.388 OA
HETATM   21  H   UNK N   1      21.239  13.588   2.381  0.00  0.00     0.210 HD
ENDBRANCH   3  20
BRANCH   4  22
HETATM   22  C   UNK N   1      19.952  15.359   6.433  0.00  0.00     0.215 C 
BRANCH  22  23
HETATM   23  O   UNK N   1      19.320  15.774   7.615  0.00  0.00    -0.294 OA
BRANCH  23  24
HETATM   24  P   UNK N   1      20.253  15.131   8.929  0.00  0.00     0.390 P 
HETATM   25  O   UNK N   1      20.216  13.923   7.953  0.00  0.00    -0.632 OA
BRANCH  24  26
HETATM   26  O   UNK N   1      19.601  13.858   9.911  0.00  0.00    -0.307 OA
HETATM   27  H   UNK N   1      18.715  13.836  10.306  0.00  0.00     0.222 HD
ENDBRANCH  24  26
BRANCH  24  28
HETATM   28  O   UNK N   1      18.640  15.509   9.451  0.00  0.00    -0.307 OA
HETATM   29  H   UNK N   1      17.907  15.496   8.814  0.00  0.00     0.222 HD
ENDBRANCH  24  28
ENDBRANCH  23  24
ENDBRANCH  22  23
ENDBRANCH   4  22
BRANCH   5  30
HETATM   30  O   UNK N   1      18.105  13.264   4.292  0.00  0.00    -0.390 OA
HETATM   31  H   UNK N   1      18.064  12.309   4.134  0.00  0.00     0.210 HD
ENDBRANCH   5  30
TORSDOF 10
ENDMDL
MODEL 3
REMARK VINA RESULT:      -6.4      3.589      5.113
REMARK  10 active torsions:
REMARK  status: ('A' for Active; 'I' for Inactive)
REMARK    1  A    between atoms: C_2  and  N_1 
REMARK    2  A    between atoms: C_3  and  N_8 
REMARK    3  A    between atoms: C_6  and  O_13 
REMARK    4  A    between atoms: C_7  and  C_14 
REMARK    5  A    between atoms: C_11  and  C_15 
REMARK    6  A    between atoms: C_12  and  O_16 
REMARK       I    between atoms: C_14  and  N_17 
REMARK    7  A    between atoms: C_15  and  O_19 
REMARK    8  A    between atoms: O_19  and  P_20 
REMARK    9  A    between atoms: P_20  and  O_21 
REMARK   10  A    between atoms: P_20  and  O_22 
ROOT
HETATM    1  C   UNK N   1      33.955  16.259   8.879  0.00  0.00     0.262 C 
HETATM    2  O   UNK N   1      33.464  17.549   9.067  0.00  0.00    -0.353 OA
HETATM    3  C   UNK N   1      34.672  16.317   7.562  0.00  0.00     0.198 C 
HETATM    4  C   UNK N   1      32.835  17.810   7.836  0.00  0.00     0.180 C 
HETATM    5  C   UNK N   1      33.589  17.010   6.770  0.00  0.00     0.182 C 
ENDROOT
BRANCH   1   6
HETATM    6  N   UNK N   1      34.670  15.782  10.061  0.00  0.00    -0.297 N 
HETATM    7  C   UNK N   1      34.601  14.626  10.746  0.00  0.00     0.137 A 
HETATM    8  C   UNK N   1      35.448  14.710  11.830  0.00  0.00     0.145 A 
HETATM    9  N   UNK N   1      36.054  15.913  11.811  0.00  0.00    -0.345 N 
HETATM   10  C   UNK N   1      35.562  16.549  10.724  0.00  0.00     0.188 A 
ATOM     11  HN  UNK N   1      36.741  16.269  12.475  1.00  0.00     0.167 HD
BRANCH   7  12
HETATM   12  N   UNK N   1      33.773  13.533  10.411  0.00  0.00    -0.383 N 
HETATM   13  H   UNK N   1      33.421  13.442   9.496  0.00  0.00     0.157 HD
HETATM   14  H   UNK N   1      33.547  12.861  11.094  0.00  0.00     0.157 HD
ENDBRANCH   7  12
BRANCH   8  15
HETATM   15  C   UNK N   1      35.680  13.710  12.886  0.00  0.00     0.269 C 
HETATM   16  N   UNK N   1      36.932  13.388  13.266  0.00  0.00    -0.365 N 
HETATM   17  H   UNK N   1      37.702  13.867  12.886  0.00  0.00     0.159 HD
HETATM   18  H   UNK N   1      37.076  12.670  13.925  0.00  0.00     0.159 HD
HETATM   19  O   UNK N   1      34.729  13.152  13.410  0.00  0.00    -0.266 OA
ENDBRANCH   8  15
ENDBRANCH   1   6
BRANCH   3  20
HETATM   20  O   UNK N   1      34.911  15.042   7.049  0.00  0.00    -0.388 OA
HETATM   21  H   UNK N   1      35.575  14.384   6.792  0.00  0.00     0.210 HD
ENDBRANCH   3  20
BRANCH   4  22
HETATM   22  C   UNK N   1      31.384  17.343   7.927  0.00  0.00     0.215 C 
BRANCH  22  23
HETATM   23  O   UNK N   1      30.689  18.209   8.783  0.00  0.00    -0.294 OA
BRANCH  23  24
HETATM   24  P   UNK N   1      29.164  17.456   9.122  0.00  0.00     0.390 P 
HETATM   25  O   UNK N   1      28.880  18.129   7.751  0.00  0.00    -0.632 OA
BRANCH  24  26
HETATM   26  O   UNK N   1      27.769  18.434   9.451  0.00  0.00    -0.307 OA
HETATM   27  H   UNK N   1      27.436  18.679  10.328  0.00  0.00     0.222 HD
ENDBRANCH  24  26
BRANCH  24  28
HETATM   28  O   UNK N   1      29.521  18.673  10.308  0.00  0.00    -0.307 OA
HETATM   29  H   UNK N   1      30.262  18.550  10.923  0.00  0.00     0.222 HD
ENDBRANCH  24  28
ENDBRANCH  23  24
ENDBRANCH  22  23
ENDBRANCH   4  22
BRANCH   5  30
HETATM   30  O   UNK N   1      34.153  17.858   5.817  0.00  0.00    -0.390 OA
HETATM   31  H   UNK N   1      34.937  18.425   5.865  0.00  0.00     0.210 HD
ENDBRANCH   5  30
TORSDOF 10
ENDMDL
MODEL 4
REMARK VINA RESULT:      -6.4      7.488      9.979
REMARK  10 active torsions:
REMARK  status: ('A' for Active; 'I' for Inactive)
REMARK    1  A    between atoms: C_2  and  N_1 
REMARK    2  A    between atoms: C_3  and  N_8 
REMARK    3  A    between atoms: C_6  and  O_13 
REMARK    4  A    between atoms: C_7  and  C_14 
REMARK    5  A    between atoms: C_11  and  C_15 
REMARK    6  A    between atoms: C_12  and  O_16 
REMARK       I    between atoms: C_14  and  N_17 
REMARK    7  A    between atoms: C_15  and  O_19 
REMARK    8  A    between atoms: O_19  and  P_20 
REMARK    9  A    between atoms: P_20  and  O_21 
REMARK   10  A    between atoms: P_20  and  O_22 
ROOT
HETATM    1  C   UNK N   1      30.072  16.927   6.520  0.00  0.00     0.262 C 
HETATM    2  O   UNK N   1      30.715  16.352   7.614  0.00  0.00    -0.353 OA
HETATM    3  C   UNK N   1      29.660  15.762   5.670  0.00  0.00     0.198 C 
HETATM    4  C   UNK N   1      31.616  15.466   6.997  0.00  0.00     0.180 C 
HETATM    5  C   UNK N   1      30.979  15.027   5.675  0.00  0.00     0.182 C 
ENDROOT
BRANCH   1   6
HETATM    6  N   UNK N   1      29.062  17.896   6.942  0.00  0.00    -0.297 N 
HETATM    7  C   UNK N   1      28.404  18.857   6.269  0.00  0.00     0.137 A 
HETATM    8  C   UNK N   1      27.600  19.539   7.157  0.00  0.00     0.145 A 
HETATM    9  N   UNK N   1      27.748  18.992   8.380  0.00  0.00    -0.345 N 
HETATM   10  C   UNK N   1      28.647  17.993   8.223  0.00  0.00     0.188 A 
ATOM     11  HN  UNK N   1      27.281  19.271   9.242  1.00  0.00     0.167 HD
BRANCH   7  12
HETATM   12  N   UNK N   1      28.547  19.126   4.892  0.00  0.00    -0.383 N 
HETATM   13  H   UNK N   1      28.068  19.883   4.483  0.00  0.00     0.157 HD
HETATM   14  H   UNK N   1      29.127  18.555   4.337  0.00  0.00     0.157 HD
ENDBRANCH   7  12
BRANCH   8  15
HETATM   15  C   UNK N   1      26.727  20.696   6.895  0.00  0.00     0.269 C 
HETATM   16  N   UNK N   1      25.945  21.202   7.868  0.00  0.00    -0.365 N 
HETATM   17  H   UNK N   1      25.999  20.843   8.782  0.00  0.00     0.159 HD
HETATM   18  H   UNK N   1      25.316  21.932   7.663  0.00  0.00     0.159 HD
HETATM   19  O   UNK N   1      26.696  21.190   5.779  0.00  0.00    -0.266 OA
ENDBRANCH   8  15
ENDBRANCH   1   6
BRANCH   3  20
HETATM   20  O   UNK N   1      29.329  16.160   4.374  0.00  0.00    -0.388 OA
HETATM   21  H   UNK N   1      29.572  16.148   3.436  0.00  0.00     0.210 HD
ENDBRANCH   3  20
BRANCH   4  22
HETATM   22  C   UNK N   1      32.924  16.212   6.736  0.00  0.00     0.215 C 
BRANCH  22  23
HETATM   23  O   UNK N   1      33.519  16.512   7.970  0.00  0.00    -0.294 OA
BRANCH  23  24
HETATM   24  P   UNK N   1      33.660  18.240   8.046  0.00  0.00     0.390 P 
HETATM   25  O   UNK N   1      34.567  17.907   6.829  0.00  0.00    -0.632 OA
BRANCH  24  26
HETATM   26  O   UNK N   1      35.175  18.966   8.479  0.00  0.00    -0.307 OA
HETATM   27  H   UNK N   1      36.038  18.524   8.496  0.00  0.00     0.222 HD
ENDBRANCH  24  26
BRANCH  24  28
HETATM   28  O   UNK N   1      34.315  17.509   9.479  0.00  0.00    -0.307 OA
HETATM   29  H   UNK N   1      34.042  17.828  10.355  0.00  0.00     0.222 HD
ENDBRANCH  24  28
ENDBRANCH  23  24
ENDBRANCH  22  23
ENDBRANCH   4  22
BRANCH   5  30
HETATM   30  O   UNK N   1      30.767  13.649   5.658  0.00  0.00    -0.390 OA
HETATM   31  H   UNK N   1      30.142  13.115   5.144  0.00  0.00     0.210 HD
ENDBRANCH   5  30
TORSDOF 10
ENDMDL
MODEL 5
REMARK VINA RESULT:      -6.1      3.788      7.153
REMARK  10 active torsions:
REMARK  status: ('A' for Active; 'I' for Inactive)
REMARK    1  A    between atoms: C_2  and  N_1 
REMARK    2  A    between atoms: C_3  and  N_8 
REMARK    3  A    between atoms: C_6  and  O_13 
REMARK    4  A    between atoms: C_7  and  C_14 
REMARK    5  A    between atoms: C_11  and  C_15 
REMARK    6  A    between atoms: C_12  and  O_16 
REMARK       I    between atoms: C_14  and  N_17 
REMARK    7  A    between atoms: C_15  and  O_19 
REMARK    8  A    between atoms: O_19  and  P_20 
REMARK    9  A    between atoms: P_20  and  O_21 
REMARK   10  A    between atoms: P_20  and  O_22 
ROOT
HETATM    1  C   UNK N   1      35.877  14.551  10.361  0.00  0.00     0.262 C 
HETATM    2  O   UNK N   1      35.093  13.400  10.398  0.00  0.00    -0.353 OA
HETATM    3  C   UNK N   1      37.229  14.073   9.921  0.00  0.00     0.198 C 
HETATM    4  C   UNK N   1      35.898  12.516  11.138  0.00  0.00     0.180 C 
HETATM    5  C   UNK N   1      37.354  12.908  10.875  0.00  0.00     0.182 C 
ENDROOT
BRANCH   1   6
HETATM    6  N   UNK N   1      35.220  15.621   9.614  0.00  0.00    -0.297 N 
HETATM    7  C   UNK N   1      34.613  15.635   8.413  0.00  0.00     0.137 A 
HETATM    8  C   UNK N   1      34.214  16.926   8.141  0.00  0.00     0.145 A 
HETATM    9  N   UNK N   1      34.561  17.712   9.179  0.00  0.00    -0.345 N 
HETATM   10  C   UNK N   1      35.175  16.893  10.063  0.00  0.00     0.188 A 
ATOM     11  HN  UNK N   1      34.394  18.713   9.278  1.00  0.00     0.167 HD
BRANCH   7  12
HETATM   12  N   UNK N   1      34.448  14.513   7.574  0.00  0.00    -0.383 N 
HETATM   13  H   UNK N   1      35.212  13.922   7.383  0.00  0.00     0.157 HD
HETATM   14  H   UNK N   1      33.567  14.320   7.179  0.00  0.00     0.157 HD
ENDBRANCH   7  12
BRANCH   8  15
HETATM   15  C   UNK N   1      33.547  17.439   6.932  0.00  0.00     0.269 C 
HETATM   16  N   UNK N   1      32.212  17.335   6.786  0.00  0.00    -0.365 N 
HETATM   17  H   UNK N   1      31.662  16.973   7.517  0.00  0.00     0.159 HD
HETATM   18  H   UNK N   1      31.785  17.620   5.946  0.00  0.00     0.159 HD
HETATM   19  O   UNK N   1      34.212  17.948   6.043  0.00  0.00    -0.266 OA
ENDBRANCH   8  15
ENDBRANCH   1   6
BRANCH   3  20
HETATM   20  O   UNK N   1      38.220  15.021  10.177  0.00  0.00    -0.388 OA
HETATM   21  H   UNK N   1      39.170  15.213  10.203  0.00  0.00     0.210 HD
ENDBRANCH   3  20
BRANCH   4  22
HETATM   22  C   UNK N   1      35.560  12.681  12.619  0.00  0.00     0.215 C 
BRANCH  22  23
HETATM   23  O   UNK N   1      36.759  12.762  13.342  0.00  0.00    -0.294 OA
BRANCH  23  24
HETATM   24  P   UNK N   1      36.393  13.599  14.818  0.00  0.00     0.390 P 
HETATM   25  O   UNK N   1      36.461  14.773  13.803  0.00  0.00    -0.632 OA
BRANCH  24  26
HETATM   26  O   UNK N   1      37.570  14.657  15.528  0.00  0.00    -0.307 OA
HETATM   27  H   UNK N   1      38.398  14.388  15.956  0.00  0.00     0.222 HD
ENDBRANCH  24  26
BRANCH  24  28
HETATM   28  O   UNK N   1      37.945  12.826  14.922  0.00  0.00    -0.307 OA
HETATM   29  H   UNK N   1      38.020  11.936  15.302  0.00  0.00     0.222 HD
ENDBRANCH  24  28
ENDBRANCH  23  24
ENDBRANCH  22  23
ENDBRANCH   4  22
BRANCH   5  30
HETATM   30  O   UNK N   1      38.051  11.861  10.272  0.00  0.00    -0.390 OA
HETATM   31  H   UNK N   1      37.881  11.386   9.444  0.00  0.00     0.210 HD
ENDBRANCH   5  30
TORSDOF 10
ENDMDL
MODEL 6
REMARK VINA RESULT:      -6.1      4.459      7.508
REMARK  10 active torsions:
REMARK  status: ('A' for Active; 'I' for Inactive)
REMARK    1  A    between atoms: C_2  and  N_1 
REMARK    2  A    between atoms: C_3  and  N_8 
REMARK    3  A    between atoms: C_6  and  O_13 
REMARK    4  A    between atoms: C_7  and  C_14 
REMARK    5  A    between atoms: C_11  and  C_15 
REMARK    6  A    between atoms: C_12  and  O_16 
REMARK       I    between atoms: C_14  and  N_17 
REMARK    7  A    between atoms: C_15  and  O_19 
REMARK    8  A    between atoms: O_19  and  P_20 
REMARK    9  A    between atoms: P_20  and  O_21 
REMARK   10  A    between atoms: P_20  and  O_22 
ROOT
HETATM    1  C   UNK N   1      34.051  14.971   9.626  0.00  0.00     0.262 C 
HETATM    2  O   UNK N   1      34.805  13.799   9.600  0.00  0.00    -0.353 OA
HETATM    3  C   UNK N   1      35.064  16.069   9.760  0.00  0.00     0.198 C 
HETATM    4  C   UNK N   1      35.649  13.965  10.713  0.00  0.00     0.180 C 
HETATM    5  C   UNK N   1      35.866  15.470  10.891  0.00  0.00     0.182 C 
ENDROOT
BRANCH   1   6
HETATM    6  N   UNK N   1      33.093  15.014   8.523  0.00  0.00    -0.297 N 
HETATM    7  C   UNK N   1      32.128  15.897   8.206  0.00  0.00     0.137 A 
HETATM    8  C   UNK N   1      31.461  15.432   7.093  0.00  0.00     0.145 A 
HETATM    9  N   UNK N   1      32.021  14.268   6.710  0.00  0.00    -0.345 N 
HETATM   10  C   UNK N   1      33.012  14.033   7.598  0.00  0.00     0.188 A 
ATOM     11  HN  UNK N   1      31.753  13.687   5.916  1.00  0.00     0.167 HD
BRANCH   7  12
HETATM   12  N   UNK N   1      31.843  17.078   8.922  0.00  0.00    -0.383 N 
HETATM   13  H   UNK N   1      32.493  17.817   8.935  0.00  0.00     0.157 HD
HETATM   14  H   UNK N   1      30.992  17.164   9.411  0.00  0.00     0.157 HD
ENDBRANCH   7  12
BRANCH   8  15
HETATM   15  C   UNK N   1      30.306  16.035   6.404  0.00  0.00     0.269 C 
HETATM   16  N   UNK N   1      29.524  15.293   5.596  0.00  0.00    -0.365 N 
HETATM   17  H   UNK N   1      29.679  14.325   5.510  0.00  0.00     0.159 HD
HETATM   18  H   UNK N   1      28.796  15.721   5.089  0.00  0.00     0.159 HD
HETATM   19  O   UNK N   1      30.066  17.222   6.552  0.00  0.00    -0.266 OA
ENDBRANCH   8  15
ENDBRANCH   1   6
BRANCH   3  20
HETATM   20  O   UNK N   1      34.474  17.268  10.162  0.00  0.00    -0.388 OA
HETATM   21  H   UNK N   1      34.356  18.213   9.982  0.00  0.00     0.210 HD
ENDBRANCH   3  20
BRANCH   4  22
HETATM   22  C   UNK N   1      34.950  13.378  11.939  0.00  0.00     0.215 C 
BRANCH  22  23
HETATM   23  O   UNK N   1      35.214  14.206  13.040  0.00  0.00    -0.294 OA
BRANCH  23  24
HETATM   24  P   UNK N   1      36.189  13.279  14.135  0.00  0.00     0.390 P 
HETATM   25  O   UNK N   1      34.840  13.346  14.902  0.00  0.00    -0.632 OA
BRANCH  24  26
HETATM   26  O   UNK N   1      36.646  13.950  15.668  0.00  0.00    -0.307 OA
HETATM   27  H   UNK N   1      36.194  13.807  16.514  0.00  0.00     0.222 HD
ENDBRANCH  24  26
BRANCH  24  28
HETATM   28  O   UNK N   1      36.835  14.880  13.948  0.00  0.00    -0.307 OA
HETATM   29  H   UNK N   1      37.008  15.428  14.730  0.00  0.00     0.222 HD
ENDBRANCH  24  28
ENDBRANCH  23  24
ENDBRANCH  22  23
ENDBRANCH   4  22
BRANCH   5  30
HETATM   30  O   UNK N   1      37.215  15.798  10.755  0.00  0.00    -0.390 OA
HETATM   31  H   UNK N   1      37.916  15.866  11.421  0.00  0.00     0.210 HD
ENDBRANCH   5  30
TORSDOF 10
ENDMDL
MODEL 7
REMARK VINA RESULT:      -6.1      5.382      8.141
REMARK  10 active torsions:
REMARK  status: ('A' for Active; 'I' for Inactive)
REMARK    1  A    between atoms: C_2  and  N_1 
REMARK    2  A    between atoms: C_3  and  N_8 
REMARK    3  A    between atoms: C_6  and  O_13 
REMARK    4  A    between atoms: C_7  and  C_14 
REMARK    5  A    between atoms: C_11  and  C_15 
REMARK    6  A    between atoms: C_12  and  O_16 
REMARK       I    between atoms: C_14  and  N_17 
REMARK    7  A    between atoms: C_15  and  O_19 
REMARK    8  A    between atoms: O_19  and  P_20 
REMARK    9  A    between atoms: P_20  and  O_21 
REMARK   10  A    between atoms: P_20  and  O_22 
ROOT
HETATM    1  C   UNK N   1      32.713  16.430   7.631  0.00  0.00     0.262 C 
HETATM    2  O   UNK N   1      32.669  15.037   7.638  0.00  0.00    -0.353 OA
HETATM    3  C   UNK N   1      33.855  16.767   6.718  0.00  0.00     0.198 C 
HETATM    4  C   UNK N   1      34.011  14.699   7.892  0.00  0.00     0.180 C 
HETATM    5  C   UNK N   1      34.874  15.820   7.306  0.00  0.00     0.182 C 
ENDROOT
BRANCH   1   6
HETATM    6  N   UNK N   1      31.396  17.005   7.369  0.00  0.00    -0.297 N 
HETATM    7  C   UNK N   1      30.580  17.762   8.127  0.00  0.00     0.137 A 
HETATM    8  C   UNK N   1      29.415  17.983   7.425  0.00  0.00     0.145 A 
HETATM    9  N   UNK N   1      29.512  17.375   6.226  0.00  0.00    -0.345 N 
HETATM   10  C   UNK N   1      30.727  16.784   6.218  0.00  0.00     0.188 A 
ATOM     11  HN  UNK N   1      28.815  17.364   5.482  1.00  0.00     0.167 HD
BRANCH   7  12
HETATM   12  N   UNK N   1      30.875  18.219   9.428  0.00  0.00    -0.383 N 
HETATM   13  H   UNK N   1      31.802  18.437   9.678  0.00  0.00     0.157 HD
HETATM   14  H   UNK N   1      30.152  18.318  10.090  0.00  0.00     0.157 HD
ENDBRANCH   7  12
BRANCH   8  15
HETATM   15  C   UNK N   1      28.215  18.720   7.858  0.00  0.00     0.269 C 
HETATM   16  N   UNK N   1      27.559  18.368   8.981  0.00  0.00    -0.365 N 
HETATM   17  H   UNK N   1      27.915  17.654   9.557  0.00  0.00     0.159 HD
HETATM   18  H   UNK N   1      26.722  18.824   9.224  0.00  0.00     0.159 HD
HETATM   19  O   UNK N   1      27.799  19.649   7.184  0.00  0.00    -0.266 OA
ENDBRANCH   8  15
ENDBRANCH   1   6
BRANCH   3  20
HETATM   20  O   UNK N   1      34.269  18.090   6.876  0.00  0.00    -0.388 OA
HETATM   21  H   UNK N   1      35.003  18.721   6.818  0.00  0.00     0.210 HD
ENDBRANCH   3  20
BRANCH   4  22
HETATM   22  C   UNK N   1      34.209  14.609   9.404  0.00  0.00     0.215 C 
BRANCH  22  23
HETATM   23  O   UNK N   1      35.360  15.333   9.747  0.00  0.00    -0.294 OA
BRANCH  23  24
HETATM   24  P   UNK N   1      36.066  14.526  11.110  0.00  0.00     0.390 P 
HETATM   25  O   UNK N   1      34.619  14.779  11.615  0.00  0.00    -0.632 OA
BRANCH  24  26
HETATM   26  O   UNK N   1      36.318  15.390  12.593  0.00  0.00    -0.307 OA
HETATM   27  H   UNK N   1      36.093  16.319  12.760  0.00  0.00     0.222 HD
ENDBRANCH  24  26
BRANCH  24  28
HETATM   28  O   UNK N   1      36.858  16.044  10.821  0.00  0.00    -0.307 OA
HETATM   29  H   UNK N   1      36.410  16.736  10.309  0.00  0.00     0.222 HD
ENDBRANCH  24  28
ENDBRANCH  23  24
ENDBRANCH  22  23
ENDBRANCH   4  22
BRANCH   5  30
HETATM   30  O   UNK N   1      35.715  15.331   6.307  0.00  0.00    -0.390 OA
HETATM   31  H   UNK N   1      35.906  15.676   5.421  0.00  0.00     0.210 HD
ENDBRANCH   5  30
TORSDOF 10
ENDMDL
MODEL 8
REMARK VINA RESULT:      -6.0     15.622     17.860
REMARK  10 active torsions:
REMARK  status: ('A' for Active; 'I' for Inactive)
REMARK    1  A    between atoms: C_2  and  N_1 
REMARK    2  A    between atoms: C_3  and  N_8 
REMARK    3  A    between atoms: C_6  and  O_13 
REMARK    4  A    between atoms: C_7  and  C_14 
REMARK    5  A    between atoms: C_11  and  C_15 
REMARK    6  A    between atoms: C_12  and  O_16 
REMARK       I    between atoms: C_14  and  N_17 
REMARK    7  A    between atoms: C_15  and  O_19 
REMARK    8  A    between atoms: O_19  and  P_20 
REMARK    9  A    between atoms: P_20  and  O_21 
REMARK   10  A    between atoms: P_20  and  O_22 
ROOT
HETATM    1  C   UNK N   1      21.387  16.471   4.672  0.00  0.00     0.262 C 
HETATM    2  O   UNK N   1      20.317  15.632   4.978  0.00  0.00    -0.353 OA
HETATM    3  C   UNK N   1      22.492  15.540   4.267  0.00  0.00     0.198 C 
HETATM    4  C   UNK N   1      20.914  14.692   5.837  0.00  0.00     0.180 C 
HETATM    5  C   UNK N   1      22.385  14.578   5.426  0.00  0.00     0.182 C 
ENDROOT
BRANCH   1   6
HETATM    6  N   UNK N   1      20.983  17.540   3.761  0.00  0.00    -0.297 N 
HETATM    7  C   UNK N   1      21.599  18.674   3.380  0.00  0.00     0.137 A 
HETATM    8  C   UNK N   1      20.751  19.371   2.546  0.00  0.00     0.145 A 
HETATM    9  N   UNK N   1      19.614  18.663   2.398  0.00  0.00    -0.345 N 
HETATM   10  C   UNK N   1      19.780  17.552   3.150  0.00  0.00     0.188 A 
ATOM     11  HN  UNK N   1      18.801  18.912   1.836  1.00  0.00     0.167 HD
BRANCH   7  12
HETATM   12  N   UNK N   1      22.884  19.079   3.798  0.00  0.00    -0.383 N 
HETATM   13  H   UNK N   1      23.108  19.101   4.756  0.00  0.00     0.157 HD
HETATM   14  H   UNK N   1      23.558  19.342   3.129  0.00  0.00     0.157 HD
ENDBRANCH   7  12
BRANCH   8  15
HETATM   15  C   UNK N   1      20.968  20.684   1.914  0.00  0.00     0.269 C 
HETATM   16  N   UNK N   1      20.398  20.980   0.730  0.00  0.00    -0.365 N 
HETATM   17  H   UNK N   1      19.777  20.345   0.308  0.00  0.00     0.159 HD
HETATM   18  H   UNK N   1      20.604  21.834   0.286  0.00  0.00     0.159 HD
HETATM   19  O   UNK N   1      21.688  21.506   2.459  0.00  0.00    -0.266 OA
ENDBRANCH   8  15
ENDBRANCH   1   6
BRANCH   3  20
HETATM   20  O   UNK N   1      23.733  16.178   4.276  0.00  0.00    -0.388 OA
HETATM   21  H   UNK N   1      24.465  16.533   3.749  0.00  0.00     0.210 HD
ENDBRANCH   3  20
BRANCH   4  22
HETATM   22  C   UNK N   1      20.800  15.208   7.271  0.00  0.00     0.215 C 
BRANCH  22  23
HETATM   23  O   UNK N   1      20.010  14.312   8.006  0.00  0.00    -0.294 OA
BRANCH  23  24
HETATM   24  P   UNK N   1      20.862  13.996   9.484  0.00  0.00     0.390 P 
HETATM   25  O   UNK N   1      20.967  12.623   8.765  0.00  0.00    -0.632 OA
BRANCH  24  26
HETATM   26  O   UNK N   1      20.195  12.896  10.648  0.00  0.00    -0.307 OA
HETATM   27  H   UNK N   1      20.287  12.957  11.612  0.00  0.00     0.222 HD
ENDBRANCH  24  26
BRANCH  24  28
HETATM   28  O   UNK N   1      19.194  14.360   9.805  0.00  0.00    -0.307 OA
HETATM   29  H   UNK N   1      18.523  14.211   9.119  0.00  0.00     0.222 HD
ENDBRANCH  24  28
ENDBRANCH  23  24
ENDBRANCH  22  23
ENDBRANCH   4  22
BRANCH   5  30
HETATM   30  O   UNK N   1      22.686  13.282   5.009  0.00  0.00    -0.390 OA
HETATM   31  H   UNK N   1      22.149  12.635   4.525  0.00  0.00     0.210 HD
ENDBRANCH   5  30
TORSDOF 10
ENDMDL
MODEL 9
REMARK VINA RESULT:      -6.0      6.040      8.348
REMARK  10 active torsions:
REMARK  status: ('A' for Active; 'I' for Inactive)
REMARK    1  A    between atoms: C_2  and  N_1 
REMARK    2  A    between atoms: C_3  and  N_8 
REMARK    3  A    between atoms: C_6  and  O_13 
REMARK    4  A    between atoms: C_7  and  C_14 
REMARK    5  A    between atoms: C_11  and  C_15 
REMARK    6  A    between atoms: C_12  and  O_16 
REMARK       I    between atoms: C_14  and  N_17 
REMARK    7  A    between atoms: C_15  and  O_19 
REMARK    8  A    between atoms: O_19  and  P_20 
REMARK    9  A    between atoms: P_20  and  O_21 
REMARK   10  A    between atoms: P_20  and  O_22 
ROOT
HETATM    1  C   UNK N   1      30.723  17.620   8.216  0.00  0.00     0.262 C 
HETATM    2  O   UNK N   1      30.175  16.631   7.400  0.00  0.00    -0.353 OA
HETATM    3  C   UNK N   1      29.789  17.702   9.387  0.00  0.00     0.198 C 
HETATM    4  C   UNK N   1      28.829  17.031   7.312  0.00  0.00     0.180 C 
HETATM    5  C   UNK N   1      28.494  17.766   8.612  0.00  0.00     0.182 C 
ENDROOT
BRANCH   1   6
HETATM    6  N   UNK N   1      32.146  17.390   8.452  0.00  0.00    -0.297 N 
HETATM    7  C   UNK N   1      32.800  16.416   9.112  0.00  0.00     0.137 A 
HETATM    8  C   UNK N   1      34.148  16.706   9.092  0.00  0.00     0.145 A 
HETATM    9  N   UNK N   1      34.332  17.852   8.407  0.00  0.00    -0.345 N 
HETATM   10  C   UNK N   1      33.097  18.250   8.029  0.00  0.00     0.188 A 
ATOM     11  HN  UNK N   1      35.217  18.319   8.214  1.00  0.00     0.167 HD
BRANCH   7  12
HETATM   12  N   UNK N   1      32.190  15.310   9.738  0.00  0.00    -0.383 N 
HETATM   13  H   UNK N   1      32.218  15.219  10.718  0.00  0.00     0.157 HD
HETATM   14  H   UNK N   1      31.735  14.626   9.194  0.00  0.00     0.157 HD
ENDBRANCH   7  12
BRANCH   8  15
HETATM   15  C   UNK N   1      35.251  15.956   9.717  0.00  0.00     0.269 C 
HETATM   16  N   UNK N   1      35.492  14.676   9.375  0.00  0.00    -0.365 N 
HETATM   17  H   UNK N   1      34.974  14.250   8.655  0.00  0.00     0.159 HD
HETATM   18  H   UNK N   1      36.189  14.164   9.846  0.00  0.00     0.159 HD
HETATM   19  O   UNK N   1      35.943  16.493  10.567  0.00  0.00    -0.266 OA
ENDBRANCH   8  15
ENDBRANCH   1   6
BRANCH   3  20
HETATM   20  O   UNK N   1      29.979  18.877  10.116  0.00  0.00    -0.388 OA
HETATM   21  H   UNK N   1      30.073  19.279  10.993  0.00  0.00     0.210 HD
ENDBRANCH   3  20
BRANCH   4  22
HETATM   22  C   UNK N   1      28.682  17.970   6.115  0.00  0.00     0.215 C 
BRANCH  22  23
HETATM   23  O   UNK N   1      28.017  19.129   6.538  0.00  0.00    -0.294 OA
BRANCH  23  24
HETATM   24  P   UNK N   1      27.458  19.932   5.105  0.00  0.00     0.390 P 
HETATM   25  O   UNK N   1      27.736  21.136   6.047  0.00  0.00    -0.632 OA
BRANCH  24  26
HETATM   26  O   UNK N   1      25.941  20.772   5.120  0.00  0.00    -0.307 OA
HETATM   27  H   UNK N   1      25.477  21.104   5.905  0.00  0.00     0.222 HD
ENDBRANCH  24  26
BRANCH  24  28
HETATM   28  O   UNK N   1      26.201  18.941   5.780  0.00  0.00    -0.307 OA
HETATM   29  H   UNK N   1      25.590  18.466   5.194  0.00  0.00     0.222 HD
ENDBRANCH  24  28
ENDBRANCH  23  24
ENDBRANCH  22  23
ENDBRANCH   4  22
BRANCH   5  30
HETATM   30  O   UNK N   1      27.480  17.109   9.308  0.00  0.00    -0.390 OA
HETATM   31  H   UNK N   1      27.412  16.187   9.599  0.00  0.00     0.210 HD
ENDBRANCH   5  30
TORSDOF 10
ENDMDL
