MODEL 1
REMARK VINA RESULT:      -5.5      0.000      0.000
REMARK  7 active torsions:
REMARK  status: ('A' for Active; 'I' for Inactive)
REMARK    1  A    between atoms: C_3  and  O_4 
REMARK    2  A    between atoms: C_5  and  C_6 
REMARK    3  A    between atoms: C_8  and  C_9 
REMARK    4  A    between atoms: C_9  and  O_10 
REMARK    5  A    between atoms: O_10  and  P_11 
REMARK    6  A    between atoms: P_11  and  O_12 
REMARK    7  A    between atoms: P_11  and  O_13 
ROOT
HETATM    1  C   UNK N   1      25.296  22.456  -7.830  0.00  0.00     0.071 C 
HETATM    2  C   UNK N   1      26.461  22.784  -6.947  0.00  0.00     0.041 A 
HETATM    3  C   UNK N   1      26.293  23.698  -5.895  0.00  0.00     0.101 A 
HETATM    4  C   UNK N   1      27.373  24.005  -5.054  0.00  0.00     0.046 A 
HETATM    5  C   UNK N   1      28.615  23.370  -5.277  0.00  0.00    -0.002 A 
HETATM    6  C   UNK N   1      28.738  22.473  -6.342  0.00  0.00     0.100 A 
HETATM    7  N   UNK N   1      27.684  22.201  -7.155  0.00  0.00    -0.362 N 
HETATM    8  C   UNK N   1      27.882  21.255  -8.245  0.00  0.00     0.155 C 
ENDROOT
BRANCH   5   9
HETATM    9  C   UNK N   1      29.775  23.558  -4.352  0.00  0.00     0.221 C 
BRANCH   9  10
HETATM   10  O   UNK N   1      29.905  22.515  -3.430  0.00  0.00    -0.292 OA
BRANCH  10  11
HETATM   11  P   UNK N   1      31.628  22.276  -3.334  0.00  0.00     0.391 P 
HETATM   12  O   UNK N   1      31.143  20.835  -3.655  0.00  0.00    -0.632 OA
BRANCH  11  13
HETATM   13  O   UNK N   1      32.364  21.344  -2.070  0.00  0.00    -0.307 OA
HETATM   14  H   UNK N   1      32.809  21.663  -1.269  0.00  0.00     0.222 HD
ENDBRANCH  11  13
BRANCH  11  15
HETATM   15  O   UNK N   1      31.009  22.743  -1.782  0.00  0.00    -0.307 OA
HETATM   16  H   UNK N   1      30.558  22.218  -1.102  0.00  0.00     0.222 HD
ENDBRANCH  11  15
ENDBRANCH  10  11
ENDBRANCH   9  10
ENDBRANCH   5   9
BRANCH   4  17
HETATM   17  C   UNK N   1      27.156  24.986  -3.961  0.00  0.00     0.273 C 
HETATM   18  O   UNK N   1      26.341  24.803  -3.070  0.00  0.00    -0.301 OA
ENDBRANCH   4  17
BRANCH   3  19
HETATM   19  O   UNK N   1      25.091  24.274  -5.691  0.00  0.00    -0.358 OA
HETATM   20  H   UNK N   1      24.828  24.532  -4.829  0.00  0.00     0.217 HD
ENDBRANCH   3  19
TORSDOF 7
ENDMDL
MODEL 2
REMARK VINA RESULT:      -5.5      1.948      3.309
REMARK  7 active torsions:
REMARK  status: ('A' for Active; 'I' for Inactive)
REMARK    1  A    between atoms: C_3  and  O_4 
REMARK    2  A    between atoms: C_5  and  C_6 
REMARK    3  A    between atoms: C_8  and  C_9 
REMARK    4  A    between atoms: C_9  and  O_10 
REMARK    5  A    between atoms: O_10  and  P_11 
REMARK    6  A    between atoms: P_11  and  O_12 
REMARK    7  A    between atoms: P_11  and  O_13 
ROOT
HETATM    1  C   UNK N   1      24.831  26.939  -5.572  0.00  0.00     0.071 C 
HETATM    2  C   UNK N   1      25.913  25.940  -5.296  0.00  0.00     0.041 A 
HETATM    3  C   UNK N   1      26.108  24.872  -6.185  0.00  0.00     0.101 A 
HETATM    4  C   UNK N   1      27.125  23.936  -5.944  0.00  0.00     0.046 A 
HETATM    5  C   UNK N   1      27.949  24.100  -4.807  0.00  0.00    -0.002 A 
HETATM    6  C   UNK N   1      27.712  25.174  -3.945  0.00  0.00     0.100 A 
HETATM    7  N   UNK N   1      26.711  26.061  -4.188  0.00  0.00    -0.362 N 
HETATM    8  C   UNK N   1      26.522  27.158  -3.249  0.00  0.00     0.155 C 
ENDROOT
BRANCH   5   9
HETATM    9  C   UNK N   1      29.125  23.211  -4.551  0.00  0.00     0.221 C 
BRANCH   9  10
HETATM   10  O   UNK N   1      29.441  23.113  -3.193  0.00  0.00    -0.292 OA
BRANCH  10  11
HETATM   11  P   UNK N   1      31.146  22.756  -3.203  0.00  0.00     0.391 P 
HETATM   12  O   UNK N   1      30.559  21.424  -3.746  0.00  0.00    -0.632 OA
BRANCH  11  13
HETATM   13  O   UNK N   1      31.851  21.577  -2.144  0.00  0.00    -0.307 OA
HETATM   14  H   UNK N   1      32.196  20.699  -2.367  0.00  0.00     0.222 HD
ENDBRANCH  11  13
BRANCH  11  15
HETATM   15  O   UNK N   1      30.600  22.986  -1.572  0.00  0.00    -0.307 OA
HETATM   16  H   UNK N   1      30.977  23.516  -0.852  0.00  0.00     0.222 HD
ENDBRANCH  11  15
ENDBRANCH  10  11
ENDBRANCH   9  10
ENDBRANCH   5   9
BRANCH   4  17
HETATM   17  C   UNK N   1      27.290  22.814  -6.903  0.00  0.00     0.273 C 
HETATM   18  O   UNK N   1      26.360  22.099  -7.239  0.00  0.00    -0.301 OA
ENDBRANCH   4  17
BRANCH   3  19
HETATM   19  O   UNK N   1      25.321  24.752  -7.274  0.00  0.00    -0.358 OA
HETATM   20  H   UNK N   1      25.652  24.355  -8.056  0.00  0.00     0.217 HD
ENDBRANCH   3  19
TORSDOF 7
ENDMDL
MODEL 3
REMARK VINA RESULT:      -5.5     12.486     13.823
REMARK  7 active torsions:
REMARK  status: ('A' for Active; 'I' for Inactive)
REMARK    1  A    between atoms: C_3  and  O_4 
REMARK    2  A    between atoms: C_5  and  C_6 
REMARK    3  A    between atoms: C_8  and  C_9 
REMARK    4  A    between atoms: C_9  and  O_10 
REMARK    5  A    between atoms: O_10  and  P_11 
REMARK    6  A    between atoms: P_11  and  O_12 
REMARK    7  A    between atoms: P_11  and  O_13 
ROOT
HETATM    1  C   UNK N   1      27.859  18.019   4.937  0.00  0.00     0.071 C 
HETATM    2  C   UNK N   1      28.970  17.647   5.871  0.00  0.00     0.041 A 
HETATM    3  C   UNK N   1      28.813  17.862   7.248  0.00  0.00     0.101 A 
HETATM    4  C   UNK N   1      29.842  17.508   8.134  0.00  0.00     0.046 A 
HETATM    5  C   UNK N   1      31.020  16.923   7.616  0.00  0.00    -0.002 A 
HETATM    6  C   UNK N   1      31.134  16.736   6.236  0.00  0.00     0.100 A 
HETATM    7  N   UNK N   1      30.132  17.100   5.393  0.00  0.00    -0.362 N 
HETATM    8  C   UNK N   1      30.318  16.874   3.966  0.00  0.00     0.155 C 
ENDROOT
BRANCH   5   9
HETATM    9  C   UNK N   1      32.106  16.413   8.509  0.00  0.00     0.221 C 
BRANCH   9  10
HETATM   10  O   UNK N   1      33.380  16.586   7.961  0.00  0.00    -0.292 OA
BRANCH  10  11
HETATM   11  P   UNK N   1      33.650  18.301   8.107  0.00  0.00     0.391 P 
HETATM   12  O   UNK N   1      34.521  17.967   6.865  0.00  0.00    -0.632 OA
BRANCH  11  13
HETATM   13  O   UNK N   1      35.193  18.962   8.544  0.00  0.00    -0.307 OA
HETATM   14  H   UNK N   1      35.945  19.166   7.966  0.00  0.00     0.222 HD
ENDBRANCH  11  13
BRANCH  11  15
HETATM   15  O   UNK N   1      34.305  17.480   9.488  0.00  0.00    -0.307 OA
HETATM   16  H   UNK N   1      35.071  17.697  10.043  0.00  0.00     0.222 HD
ENDBRANCH  11  15
ENDBRANCH  10  11
ENDBRANCH   9  10
ENDBRANCH   5   9
BRANCH   4  17
HETATM   17  C   UNK N   1      29.642  17.764   9.583  0.00  0.00     0.273 C 
HETATM   18  O   UNK N   1      29.610  18.891  10.051  0.00  0.00    -0.301 OA
ENDBRANCH   4  17
BRANCH   3  19
HETATM   19  O   UNK N   1      27.671  18.403   7.719  0.00  0.00    -0.358 OA
HETATM   20  H   UNK N   1      27.578  18.593   8.632  0.00  0.00     0.217 HD
ENDBRANCH   3  19
TORSDOF 7
ENDMDL
MODEL 4
REMARK VINA RESULT:      -5.4     23.665     25.547
REMARK  7 active torsions:
REMARK  status: ('A' for Active; 'I' for Inactive)
REMARK    1  A    between atoms: C_3  and  O_4 
REMARK    2  A    between atoms: C_5  and  C_6 
REMARK    3  A    between atoms: C_8  and  C_9 
REMARK    4  A    between atoms: C_9  and  O_10 
REMARK    5  A    between atoms: O_10  and  P_11 
REMARK    6  A    between atoms: P_11  and  O_12 
REMARK    7  A    between atoms: P_11  and  O_13 
ROOT
HETATM    1  C   UNK N   1      35.305  10.219  20.431  0.00  0.00     0.071 C 
HETATM    2  C   UNK N   1      35.233  10.977  19.141  0.00  0.00     0.041 A 
HETATM    3  C   UNK N   1      35.282  12.379  19.162  0.00  0.00     0.101 A 
HETATM    4  C   UNK N   1      35.227  13.100  17.960  0.00  0.00     0.046 A 
HETATM    5  C   UNK N   1      35.139  12.391  16.741  0.00  0.00    -0.002 A 
HETATM    6  C   UNK N   1      35.085  10.995  16.769  0.00  0.00     0.100 A 
HETATM    7  N   UNK N   1      35.123  10.315  17.945  0.00  0.00    -0.362 N 
HETATM    8  C   UNK N   1      35.065   8.861  17.901  0.00  0.00     0.155 C 
ENDROOT
BRANCH   5   9
HETATM    9  C   UNK N   1      35.196  13.087  15.418  0.00  0.00     0.221 C 
BRANCH   9  10
HETATM   10  O   UNK N   1      34.286  12.565  14.494  0.00  0.00    -0.292 OA
BRANCH  10  11
HETATM   11  P   UNK N   1      35.240  12.391  13.046  0.00  0.00     0.391 P 
HETATM   12  O   UNK N   1      34.617  13.798  12.827  0.00  0.00    -0.632 OA
BRANCH  11  13
HETATM   13  O   UNK N   1      34.519  12.239  11.476  0.00  0.00    -0.307 OA
HETATM   14  H   UNK N   1      33.578  12.248  11.243  0.00  0.00     0.222 HD
ENDBRANCH  11  13
BRANCH  11  15
HETATM   15  O   UNK N   1      33.968  11.211  13.061  0.00  0.00    -0.307 OA
HETATM   16  H   UNK N   1      33.022  11.305  12.870  0.00  0.00     0.222 HD
ENDBRANCH  11  15
ENDBRANCH  10  11
ENDBRANCH   9  10
ENDBRANCH   5   9
BRANCH   4  17
HETATM   17  C   UNK N   1      35.269  14.583  18.027  0.00  0.00     0.273 C 
HETATM   18  O   UNK N   1      36.267  15.194  18.377  0.00  0.00    -0.301 OA
ENDBRANCH   4  17
BRANCH   3  19
HETATM   19  O   UNK N   1      35.388  13.030  20.339  0.00  0.00    -0.358 OA
HETATM   20  H   UNK N   1      34.674  13.545  20.662  0.00  0.00     0.217 HD
ENDBRANCH   3  19
TORSDOF 7
ENDMDL
MODEL 5
REMARK VINA RESULT:      -5.3     13.595     15.664
REMARK  7 active torsions:
REMARK  status: ('A' for Active; 'I' for Inactive)
REMARK    1  A    between atoms: C_3  and  O_4 
REMARK    2  A    between atoms: C_5  and  C_6 
REMARK    3  A    between atoms: C_8  and  C_9 
REMARK    4  A    between atoms: C_9  and  O_10 
REMARK    5  A    between atoms: O_10  and  P_11 
REMARK    6  A    between atoms: P_11  and  O_12 
REMARK    7  A    between atoms: P_11  and  O_13 
ROOT
HETATM    1  C   UNK N   1      34.594  14.528  10.911  0.00  0.00     0.071 C 
HETATM    2  C   UNK N   1      34.313  15.179   9.591  0.00  0.00     0.041 A 
HETATM    3  C   UNK N   1      34.479  16.566   9.458  0.00  0.00     0.101 A 
HETATM    4  C   UNK N   1      34.230  17.186   8.225  0.00  0.00     0.046 A 
HETATM    5  C   UNK N   1      33.828  16.389   7.128  0.00  0.00    -0.002 A 
HETATM    6  C   UNK N   1      33.668  15.013   7.310  0.00  0.00     0.100 A 
HETATM    7  N   UNK N   1      33.900  14.434   8.518  0.00  0.00    -0.362 N 
HETATM    8  C   UNK N   1      33.715  12.994   8.636  0.00  0.00     0.155 C 
ENDROOT
BRANCH   5   9
HETATM    9  C   UNK N   1      33.660  16.963   5.756  0.00  0.00     0.221 C 
BRANCH   9  10
HETATM   10  O   UNK N   1      32.357  17.406   5.513  0.00  0.00    -0.292 OA
BRANCH  10  11
HETATM   11  P   UNK N   1      31.901  16.539   4.072  0.00  0.00     0.391 P 
HETATM   12  O   UNK N   1      33.395  16.849   3.775  0.00  0.00    -0.632 OA
BRANCH  11  13
HETATM   13  O   UNK N   1      31.822  17.305   2.518  0.00  0.00    -0.307 OA
HETATM   14  H   UNK N   1      31.186  17.149   1.802  0.00  0.00     0.222 HD
ENDBRANCH  11  13
BRANCH  11  15
HETATM   15  O   UNK N   1      31.026  18.035   4.164  0.00  0.00    -0.307 OA
HETATM   16  H   UNK N   1      30.190  18.247   4.607  0.00  0.00     0.222 HD
ENDBRANCH  11  15
ENDBRANCH  10  11
ENDBRANCH   9  10
ENDBRANCH   5   9
BRANCH   4  17
HETATM   17  C   UNK N   1      34.405  18.657   8.129  0.00  0.00     0.273 C 
HETATM   18  O   UNK N   1      35.406  19.225   8.537  0.00  0.00    -0.301 OA
ENDBRANCH   4  17
BRANCH   3  19
HETATM   19  O   UNK N   1      34.883  17.299  10.515  0.00  0.00    -0.358 OA
HETATM   20  H   UNK N   1      35.191  16.879  11.294  0.00  0.00     0.217 HD
ENDBRANCH   3  19
TORSDOF 7
ENDMDL
MODEL 6
REMARK VINA RESULT:      -5.3     20.073     22.061
REMARK  7 active torsions:
REMARK  status: ('A' for Active; 'I' for Inactive)
REMARK    1  A    between atoms: C_3  and  O_4 
REMARK    2  A    between atoms: C_5  and  C_6 
REMARK    3  A    between atoms: C_8  and  C_9 
REMARK    4  A    between atoms: C_9  and  O_10 
REMARK    5  A    between atoms: O_10  and  P_11 
REMARK    6  A    between atoms: P_11  and  O_12 
REMARK    7  A    between atoms: P_11  and  O_13 
ROOT
HETATM    1  C   UNK N   1      34.570  10.252  15.554  0.00  0.00     0.071 C 
HETATM    2  C   UNK N   1      34.931  11.408  14.671  0.00  0.00     0.041 A 
HETATM    3  C   UNK N   1      35.608  12.508  15.219  0.00  0.00     0.101 A 
HETATM    4  C   UNK N   1      35.961  13.591  14.400  0.00  0.00     0.046 A 
HETATM    5  C   UNK N   1      35.638  13.544  13.025  0.00  0.00    -0.002 A 
HETATM    6  C   UNK N   1      34.955  12.431  12.526  0.00  0.00     0.100 A 
HETATM    7  N   UNK N   1      34.608  11.399  13.339  0.00  0.00    -0.362 N 
HETATM    8  C   UNK N   1      33.899  10.270  12.752  0.00  0.00     0.155 C 
ENDROOT
BRANCH   5   9
HETATM    9  C   UNK N   1      36.086  14.606  12.072  0.00  0.00     0.221 C 
BRANCH   9  10
HETATM   10  O   UNK N   1      35.156  15.640  11.940  0.00  0.00    -0.292 OA
BRANCH  10  11
HETATM   11  P   UNK N   1      34.851  15.690  10.225  0.00  0.00     0.391 P 
HETATM   12  O   UNK N   1      35.166  17.183  10.516  0.00  0.00    -0.632 OA
BRANCH  11  13
HETATM   13  O   UNK N   1      33.473  16.500   9.553  0.00  0.00    -0.307 OA
HETATM   14  H   UNK N   1      33.042  16.344   8.698  0.00  0.00     0.222 HD
ENDBRANCH  11  13
BRANCH  11  15
HETATM   15  O   UNK N   1      33.402  15.247  11.070  0.00  0.00    -0.307 OA
HETATM   16  H   UNK N   1      33.229  15.166  12.021  0.00  0.00     0.222 HD
ENDBRANCH  11  15
ENDBRANCH  10  11
ENDBRANCH   9  10
ENDBRANCH   5   9
BRANCH   4  17
HETATM   17  C   UNK N   1      36.667  14.741  15.021  0.00  0.00     0.273 C 
HETATM   18  O   UNK N   1      37.636  14.598  15.750  0.00  0.00    -0.301 OA
ENDBRANCH   4  17
BRANCH   3  19
HETATM   19  O   UNK N   1      35.924  12.519  16.530  0.00  0.00    -0.358 OA
HETATM   20  H   UNK N   1      36.607  13.076  16.848  0.00  0.00     0.217 HD
ENDBRANCH   3  19
TORSDOF 7
ENDMDL
MODEL 7
REMARK VINA RESULT:      -5.1      2.769      5.471
REMARK  7 active torsions:
REMARK  status: ('A' for Active; 'I' for Inactive)
REMARK    1  A    between atoms: C_3  and  O_4 
REMARK    2  A    between atoms: C_5  and  C_6 
REMARK    3  A    between atoms: C_8  and  C_9 
REMARK    4  A    between atoms: C_9  and  O_10 
REMARK    5  A    between atoms: O_10  and  P_11 
REMARK    6  A    between atoms: P_11  and  O_12 
REMARK    7  A    between atoms: P_11  and  O_13 
ROOT
HETATM    1  C   UNK N   1      32.873  19.529  -4.447  0.00  0.00     0.071 C 
HETATM    2  C   UNK N   1      31.838  20.608  -4.555  0.00  0.00     0.041 A 
HETATM    3  C   UNK N   1      31.649  21.491  -3.482  0.00  0.00     0.101 A 
HETATM    4  C   UNK N   1      30.691  22.512  -3.575  0.00  0.00     0.046 A 
HETATM    5  C   UNK N   1      29.940  22.638  -4.766  0.00  0.00    -0.002 A 
HETATM    6  C   UNK N   1      30.156  21.729  -5.805  0.00  0.00     0.100 A 
HETATM    7  N   UNK N   1      31.078  20.737  -5.689  0.00  0.00    -0.362 N 
HETATM    8  C   UNK N   1      31.253  19.827  -6.812  0.00  0.00     0.155 C 
ENDROOT
BRANCH   5   9
HETATM    9  C   UNK N   1      28.987  23.771  -4.982  0.00  0.00     0.221 C 
BRANCH   9  10
HETATM   10  O   UNK N   1      27.797  23.619  -4.267  0.00  0.00    -0.292 OA
BRANCH  10  11
HETATM   11  P   UNK N   1      26.775  24.871  -4.917  0.00  0.00     0.391 P 
HETATM   12  O   UNK N   1      26.089  24.606  -3.549  0.00  0.00    -0.632 OA
BRANCH  11  13
HETATM   13  O   UNK N   1      25.128  24.576  -5.376  0.00  0.00    -0.307 OA
HETATM   14  H   UNK N   1      24.792  23.973  -6.057  0.00  0.00     0.222 HD
ENDBRANCH  11  13
BRANCH  11  15
HETATM   15  O   UNK N   1      26.651  23.441  -5.892  0.00  0.00    -0.307 OA
HETATM   16  H   UNK N   1      26.722  22.505  -5.646  0.00  0.00     0.222 HD
ENDBRANCH  11  15
ENDBRANCH  10  11
ENDBRANCH   9  10
ENDBRANCH   5   9
BRANCH   4  17
HETATM   17  C   UNK N   1      30.514  23.419  -2.413  0.00  0.00     0.273 C 
HETATM   18  O   UNK N   1      30.235  23.007  -1.298  0.00  0.00    -0.301 OA
ENDBRANCH   4  17
BRANCH   3  19
HETATM   19  O   UNK N   1      32.394  21.362  -2.366  0.00  0.00    -0.358 OA
HETATM   20  H   UNK N   1      33.193  20.872  -2.383  0.00  0.00     0.217 HD
ENDBRANCH   3  19
TORSDOF 7
ENDMDL
MODEL 8
REMARK VINA RESULT:      -5.1      2.665      5.411
REMARK  7 active torsions:
REMARK  status: ('A' for Active; 'I' for Inactive)
REMARK    1  A    between atoms: C_3  and  O_4 
REMARK    2  A    between atoms: C_5  and  C_6 
REMARK    3  A    between atoms: C_8  and  C_9 
REMARK    4  A    between atoms: C_9  and  O_10 
REMARK    5  A    between atoms: O_10  and  P_11 
REMARK    6  A    between atoms: P_11  and  O_12 
REMARK    7  A    between atoms: P_11  and  O_13 
ROOT
HETATM    1  C   UNK N   1      31.617  21.775  -3.221  0.00  0.00     0.071 C 
HETATM    2  C   UNK N   1      30.438  22.243  -4.020  0.00  0.00     0.041 A 
HETATM    3  C   UNK N   1      29.538  23.156  -3.450  0.00  0.00     0.101 A 
HETATM    4  C   UNK N   1      28.438  23.611  -4.192  0.00  0.00     0.046 A 
HETATM    5  C   UNK N   1      28.267  23.146  -5.516  0.00  0.00    -0.002 A 
HETATM    6  C   UNK N   1      29.184  22.230  -6.039  0.00  0.00     0.100 A 
HETATM    7  N   UNK N   1      30.235  21.790  -5.298  0.00  0.00    -0.362 N 
HETATM    8  C   UNK N   1      31.153  20.838  -5.906  0.00  0.00     0.155 C 
ENDROOT
BRANCH   5   9
HETATM    9  C   UNK N   1      27.186  23.676  -6.405  0.00  0.00     0.221 C 
BRANCH   9  10
HETATM   10  O   UNK N   1      25.957  23.046  -6.194  0.00  0.00    -0.292 OA
BRANCH  10  11
HETATM   11  P   UNK N   1      25.584  22.361  -7.752  0.00  0.00     0.391 P 
HETATM   12  O   UNK N   1      25.198  23.849  -7.979  0.00  0.00    -0.632 OA
BRANCH  11  13
HETATM   13  O   UNK N   1      23.959  22.238  -8.344  0.00  0.00    -0.307 OA
HETATM   14  H   UNK N   1      23.134  22.206  -7.835  0.00  0.00     0.222 HD
ENDBRANCH  11  13
BRANCH  11  15
HETATM   15  O   UNK N   1      24.536  21.688  -6.544  0.00  0.00    -0.307 OA
HETATM   16  H   UNK N   1      24.182  20.789  -6.450  0.00  0.00     0.222 HD
ENDBRANCH  11  15
ENDBRANCH  10  11
ENDBRANCH   9  10
ENDBRANCH   5   9
BRANCH   4  17
HETATM   17  C   UNK N   1      27.502  24.567  -3.548  0.00  0.00     0.273 C 
HETATM   18  O   UNK N   1      26.771  24.246  -2.625  0.00  0.00    -0.301 OA
ENDBRANCH   4  17
BRANCH   3  19
HETATM   19  O   UNK N   1      29.737  23.600  -2.192  0.00  0.00    -0.358 OA
HETATM   20  H   UNK N   1      30.001  23.007  -1.516  0.00  0.00     0.217 HD
ENDBRANCH   3  19
TORSDOF 7
ENDMDL
MODEL 9
REMARK VINA RESULT:      -5.0     12.942     14.347
REMARK  7 active torsions:
REMARK  status: ('A' for Active; 'I' for Inactive)
REMARK    1  A    between atoms: C_3  and  O_4 
REMARK    2  A    between atoms: C_5  and  C_6 
REMARK    3  A    between atoms: C_8  and  C_9 
REMARK    4  A    between atoms: C_9  and  O_10 
REMARK    5  A    between atoms: O_10  and  P_11 
REMARK    6  A    between atoms: P_11  and  O_12 
REMARK    7  A    between atoms: P_11  and  O_13 
ROOT
HETATM    1  C   UNK N   1      33.787  14.921   3.581  0.00  0.00     0.071 C 
HETATM    2  C   UNK N   1      33.065  15.613   4.697  0.00  0.00     0.041 A 
HETATM    3  C   UNK N   1      33.803  16.198   5.737  0.00  0.00     0.101 A 
HETATM    4  C   UNK N   1      33.139  16.858   6.782  0.00  0.00     0.046 A 
HETATM    5  C   UNK N   1      31.727  16.933   6.755  0.00  0.00    -0.002 A 
HETATM    6  C   UNK N   1      31.034  16.328   5.704  0.00  0.00     0.100 A 
HETATM    7  N   UNK N   1      31.696  15.679   4.709  0.00  0.00    -0.362 N 
HETATM    8  C   UNK N   1      30.911  15.073   3.643  0.00  0.00     0.155 C 
ENDROOT
BRANCH   5   9
HETATM    9  C   UNK N   1      30.960  17.721   7.770  0.00  0.00     0.221 C 
BRANCH   9  10
HETATM   10  O   UNK N   1      29.724  17.146   8.077  0.00  0.00    -0.292 OA
BRANCH  10  11
HETATM   11  P   UNK N   1      28.713  18.524   8.412  0.00  0.00     0.391 P 
HETATM   12  O   UNK N   1      29.299  18.234   9.821  0.00  0.00    -0.632 OA
BRANCH  11  13
HETATM   13  O   UNK N   1      27.287  18.410   9.393  0.00  0.00    -0.307 OA
HETATM   14  H   UNK N   1      26.637  17.690   9.428  0.00  0.00     0.222 HD
ENDBRANCH  11  13
BRANCH  11  15
HETATM   15  O   UNK N   1      27.733  17.178   7.924  0.00  0.00    -0.307 OA
HETATM   16  H   UNK N   1      26.900  17.155   7.428  0.00  0.00     0.222 HD
ENDBRANCH  11  15
ENDBRANCH  10  11
ENDBRANCH   9  10
ENDBRANCH   5   9
BRANCH   4  17
HETATM   17  C   UNK N   1      33.956  17.454   7.869  0.00  0.00     0.273 C 
HETATM   18  O   UNK N   1      34.708  18.396   7.681  0.00  0.00    -0.301 OA
ENDBRANCH   4  17
BRANCH   3  19
HETATM   19  O   UNK N   1      35.149  16.130   5.727  0.00  0.00    -0.358 OA
HETATM   20  H   UNK N   1      35.582  15.329   5.502  0.00  0.00     0.217 HD
ENDBRANCH   3  19
TORSDOF 7
ENDMDL
