MODEL 1
REMARK VINA RESULT:      -5.8      0.000      0.000
REMARK  12 active torsions:
REMARK  status: ('A' for Active; 'I' for Inactive)
REMARK    1  A    between atoms: O_1  and  C_2 
REMARK    2  A    between atoms: C_2  and  C_4 
REMARK    3  A    between atoms: C_5  and  C_6 
REMARK    4  A    between atoms: C_6  and  O_7 
REMARK    5  A    between atoms: C_9  and  C_10 
REMARK    6  A    between atoms: C_10  and  O_11 
REMARK    7  A    between atoms: C_13  and  C_14 
REMARK    8  A    between atoms: C_14  and  O_15 
REMARK    9  A    between atoms: C_17  and  C_18 
REMARK   10  A    between atoms: C_18  and  O_19 
REMARK   11  A    between atoms: C_21  and  C_22 
REMARK   12  A    between atoms: C_22  and  O_23 
ROOT
HETATM    1  C   UNK N   1      30.531  17.385   7.766  0.00  0.00     0.073 A 
HETATM    2  C   UNK N   1      29.525  17.474   6.626  0.00  0.00     0.073 A 
HETATM    3  C   UNK N   1      29.945  17.138   5.198  0.00  0.00     0.073 A 
HETATM    4  C   UNK N   1      31.391  16.708   4.925  0.00  0.00     0.073 A 
HETATM    5  C   UNK N   1      32.401  16.618   6.068  0.00  0.00     0.073 A 
HETATM    6  C   UNK N   1      31.971  16.958   7.499  0.00  0.00     0.073 A 
ENDROOT
BRANCH   1   7
HETATM    7  C   UNK N   1      30.075  17.744   9.276  0.00  0.00     0.178 C 
HETATM    8  O   UNK N   1      30.019  18.848   9.690  0.00  0.00    -0.646 OA
BRANCH   7   9
HETATM    9  O   UNK N   1      29.716  16.910  10.218  0.00  0.00    -0.773 OA
HETATM   10  H   UNK N   1      28.841  16.576  10.239  0.00  0.00     0.167 HD
ENDBRANCH   7   9
ENDBRANCH   1   7
BRANCH   2  11
HETATM   11  C   UNK N   1      28.000  17.928   6.921  0.00  0.00     0.178 C 
HETATM   12  O   UNK N   1      27.579  18.999   6.659  0.00  0.00    -0.646 OA
BRANCH  11  13
HETATM   13  O   UNK N   1      27.051  17.214   7.468  0.00  0.00    -0.773 OA
HETATM   14  H   UNK N   1      26.234  17.613   7.691  0.00  0.00     0.167 HD
ENDBRANCH  11  13
ENDBRANCH   2  11
BRANCH   6  15
HETATM   15  C   UNK N   1      33.059  16.862   8.738  0.00  0.00     0.178 C 
HETATM   16  O   UNK N   1      33.825  17.726   9.011  0.00  0.00    -0.646 OA
BRANCH  15  17
HETATM   17  O   UNK N   1      33.238  15.862   9.574  0.00  0.00    -0.773 OA
HETATM   18  H   UNK N   1      32.764  15.062   9.456  0.00  0.00     0.167 HD
ENDBRANCH  15  17
ENDBRANCH   6  15
BRANCH   3  19
HETATM   19  C   UNK N   1      28.856  17.234   3.961  0.00  0.00     0.178 C 
HETATM   20  O   UNK N   1      28.542  16.311   3.283  0.00  0.00    -0.646 OA
BRANCH  19  21
HETATM   21  O   UNK N   1      28.196  18.298   3.553  0.00  0.00    -0.773 OA
HETATM   22  H   UNK N   1      28.370  19.133   3.938  0.00  0.00     0.167 HD
ENDBRANCH  19  21
ENDBRANCH   3  19
BRANCH   5  23
HETATM   23  C   UNK N   1      33.940  16.160   5.769  0.00  0.00     0.178 C 
HETATM   24  O   UNK N   1      34.892  16.797   6.076  0.00  0.00    -0.646 OA
BRANCH  23  25
HETATM   25  O   UNK N   1      34.336  15.067   5.171  0.00  0.00    -0.773 OA
HETATM   26  H   UNK N   1      34.610  15.096   4.276  0.00  0.00     0.167 HD
ENDBRANCH  23  25
ENDBRANCH   5  23
BRANCH   4  27
HETATM   27  C   UNK N   1      31.852  16.347   3.407  0.00  0.00     0.178 C 
HETATM   28  O   UNK N   1      32.117  15.251   3.037  0.00  0.00    -0.646 OA
BRANCH  27  29
HETATM   29  O   UNK N   1      31.992  17.178   2.411  0.00  0.00    -0.773 OA
HETATM   30  H   UNK N   1      31.324  17.811   2.232  0.00  0.00     0.167 HD
ENDBRANCH  27  29
ENDBRANCH   4  27
TORSDOF 12
ENDMDL
MODEL 2
REMARK VINA RESULT:      -5.8      0.099      3.348
REMARK  12 active torsions:
REMARK  status: ('A' for Active; 'I' for Inactive)
REMARK    1  A    between atoms: O_1  and  C_2 
REMARK    2  A    between atoms: C_2  and  C_4 
REMARK    3  A    between atoms: C_5  and  C_6 
REMARK    4  A    between atoms: C_6  and  O_7 
REMARK    5  A    between atoms: C_9  and  C_10 
REMARK    6  A    between atoms: C_10  and  O_11 
REMARK    7  A    between atoms: C_13  and  C_14 
REMARK    8  A    between atoms: C_14  and  O_15 
REMARK    9  A    between atoms: C_17  and  C_18 
REMARK   10  A    between atoms: C_18  and  O_19 
REMARK   11  A    between atoms: C_21  and  C_22 
REMARK   12  A    between atoms: C_22  and  O_23 
ROOT
HETATM    1  C   UNK N   1      29.533  17.475   6.634  0.00  0.00     0.073 A 
HETATM    2  C   UNK N   1      29.942  17.162   5.200  0.00  0.00     0.073 A 
HETATM    3  C   UNK N   1      31.371  16.735   4.881  0.00  0.00     0.073 A 
HETATM    4  C   UNK N   1      32.391  16.625   6.019  0.00  0.00     0.073 A 
HETATM    5  C   UNK N   1      31.983  16.939   7.458  0.00  0.00     0.073 A 
HETATM    6  C   UNK N   1      30.545  17.367   7.770  0.00  0.00     0.073 A 
ENDROOT
BRANCH   1   7
HETATM    7  C   UNK N   1      28.015  17.927   6.961  0.00  0.00     0.178 C 
HETATM    8  O   UNK N   1      27.589  18.998   6.707  0.00  0.00    -0.646 OA
BRANCH   7   9
HETATM    9  O   UNK N   1      27.077  17.212   7.527  0.00  0.00    -0.773 OA
HETATM   10  H   UNK N   1      26.797  17.414   8.398  0.00  0.00     0.167 HD
ENDBRANCH   7   9
ENDBRANCH   1   7
BRANCH   2  11
HETATM   11  C   UNK N   1      28.859  17.280   4.003  0.00  0.00     0.178 C 
HETATM   12  O   UNK N   1      28.505  16.359   3.354  0.00  0.00    -0.646 OA
BRANCH  11  13
HETATM   13  O   UNK N   1      28.243  18.359   3.593  0.00  0.00    -0.773 OA
HETATM   14  H   UNK N   1      28.474  18.746   2.771  0.00  0.00     0.167 HD
ENDBRANCH  11  13
ENDBRANCH   2  11
BRANCH   6  15
HETATM   15  C   UNK N   1      30.099  17.708   9.323  0.00  0.00     0.178 C 
HETATM   16  O   UNK N   1      29.971  18.809   9.747  0.00  0.00    -0.646 OA
BRANCH  15  17
HETATM   17  O   UNK N   1      29.828  16.853  10.287  0.00  0.00    -0.773 OA
HETATM   18  H   UNK N   1      30.406  16.134  10.451  0.00  0.00     0.167 HD
ENDBRANCH  15  17
ENDBRANCH   6  15
BRANCH   3  19
HETATM   19  C   UNK N   1      31.815  16.395   3.327  0.00  0.00     0.178 C 
HETATM   20  O   UNK N   1      32.069  15.303   2.936  0.00  0.00    -0.646 OA
BRANCH  19  21
HETATM   21  O   UNK N   1      31.950  17.240   2.327  0.00  0.00    -0.773 OA
HETATM   22  H   UNK N   1      31.423  18.014   2.293  0.00  0.00     0.167 HD
ENDBRANCH  19  21
ENDBRANCH   3  19
BRANCH   5  23
HETATM   23  C   UNK N   1      33.076  16.819   8.666  0.00  0.00     0.178 C 
HETATM   24  O   UNK N   1      33.177  15.875   9.376  0.00  0.00    -0.646 OA
BRANCH  23  25
HETATM   25  O   UNK N   1      33.965  17.711   9.016  0.00  0.00    -0.773 OA
HETATM   26  H   UNK N   1      33.757  18.349   9.670  0.00  0.00     0.167 HD
ENDBRANCH  23  25
ENDBRANCH   5  23
BRANCH   4  27
HETATM   27  C   UNK N   1      33.919  16.170   5.692  0.00  0.00     0.178 C 
HETATM   28  O   UNK N   1      34.880  16.738   6.092  0.00  0.00    -0.646 OA
BRANCH  27  29
HETATM   29  O   UNK N   1      34.296  15.152   4.969  0.00  0.00    -0.773 OA
HETATM   30  H   UNK N   1      34.227  14.283   5.312  0.00  0.00     0.167 HD
ENDBRANCH  27  29
ENDBRANCH   4  27
TORSDOF 12
ENDMDL
MODEL 3
REMARK VINA RESULT:      -5.8     11.124     14.036
REMARK  12 active torsions:
REMARK  status: ('A' for Active; 'I' for Inactive)
REMARK    1  A    between atoms: O_1  and  C_2 
REMARK    2  A    between atoms: C_2  and  C_4 
REMARK    3  A    between atoms: C_5  and  C_6 
REMARK    4  A    between atoms: C_6  and  O_7 
REMARK    5  A    between atoms: C_9  and  C_10 
REMARK    6  A    between atoms: C_10  and  O_11 
REMARK    7  A    between atoms: C_13  and  C_14 
REMARK    8  A    between atoms: C_14  and  O_15 
REMARK    9  A    between atoms: C_17  and  C_18 
REMARK   10  A    between atoms: C_18  and  O_19 
REMARK   11  A    between atoms: C_21  and  C_22 
REMARK   12  A    between atoms: C_22  and  O_23 
ROOT
HETATM    1  C   UNK N   1      27.516  23.427  -5.982  0.00  0.00     0.073 A 
HETATM    2  C   UNK N   1      28.075  22.265  -6.792  0.00  0.00     0.073 A 
HETATM    3  C   UNK N   1      29.336  21.540  -6.333  0.00  0.00     0.073 A 
HETATM    4  C   UNK N   1      30.035  21.994  -5.046  0.00  0.00     0.073 A 
HETATM    5  C   UNK N   1      29.475  23.160  -4.232  0.00  0.00     0.073 A 
HETATM    6  C   UNK N   1      28.208  23.883  -4.700  0.00  0.00     0.073 A 
ENDROOT
BRANCH   1   7
HETATM    7  C   UNK N   1      26.179  24.189  -6.477  0.00  0.00     0.178 C 
HETATM    8  O   UNK N   1      25.189  24.245  -5.836  0.00  0.00    -0.646 OA
BRANCH   7   9
HETATM    9  O   UNK N   1      25.999  24.827  -7.606  0.00  0.00    -0.773 OA
HETATM   10  H   UNK N   1      25.406  25.551  -7.644  0.00  0.00     0.167 HD
ENDBRANCH   7   9
ENDBRANCH   1   7
BRANCH   2  11
HETATM   11  C   UNK N   1      27.333  21.791  -8.150  0.00  0.00     0.178 C 
HETATM   12  O   UNK N   1      27.334  22.425  -9.146  0.00  0.00    -0.646 OA
BRANCH  11  13
HETATM   13  O   UNK N   1      26.653  20.690  -8.340  0.00  0.00    -0.773 OA
HETATM   14  H   UNK N   1      26.265  20.247  -7.612  0.00  0.00     0.167 HD
ENDBRANCH  11  13
ENDBRANCH   2  11
BRANCH   6  15
HETATM   15  C   UNK N   1      27.600  25.143  -3.823  0.00  0.00     0.178 C 
HETATM   16  O   UNK N   1      28.066  26.235  -3.826  0.00  0.00    -0.646 OA
BRANCH  15  17
HETATM   17  O   UNK N   1      26.555  25.135  -3.024  0.00  0.00    -0.773 OA
HETATM   18  H   UNK N   1      26.418  25.842  -2.424  0.00  0.00     0.167 HD
ENDBRANCH  15  17
ENDBRANCH   6  15
BRANCH   3  19
HETATM   19  C   UNK N   1      29.943  20.280  -7.211  0.00  0.00     0.178 C 
HETATM   20  O   UNK N   1      29.352  19.270  -7.412  0.00  0.00    -0.646 OA
BRANCH  19  21
HETATM   21  O   UNK N   1      31.119  20.202  -7.797  0.00  0.00    -0.773 OA
HETATM   22  H   UNK N   1      31.788  20.824  -7.590  0.00  0.00     0.167 HD
ENDBRANCH  19  21
ENDBRANCH   3  19
BRANCH   5  23
HETATM   23  C   UNK N   1      30.225  23.638  -2.862  0.00  0.00     0.178 C 
HETATM   24  O   UNK N   1      30.786  24.676  -2.742  0.00  0.00    -0.646 OA
BRANCH  23  25
HETATM   25  O   UNK N   1      30.315  22.975  -1.739  0.00  0.00    -0.773 OA
HETATM   26  H   UNK N   1      29.541  22.640  -1.330  0.00  0.00     0.167 HD
ENDBRANCH  23  25
ENDBRANCH   5  23
BRANCH   4  27
HETATM   27  C   UNK N   1      31.380  21.229  -4.546  0.00  0.00     0.178 C 
HETATM   28  O   UNK N   1      32.409  21.241  -5.136  0.00  0.00    -0.646 OA
BRANCH  27  29
HETATM   29  O   UNK N   1      31.519  20.516  -3.462  0.00  0.00    -0.773 OA
HETATM   30  H   UNK N   1      32.317  20.559  -2.973  0.00  0.00     0.167 HD
ENDBRANCH  27  29
ENDBRANCH   4  27
TORSDOF 12
ENDMDL
MODEL 4
REMARK VINA RESULT:      -5.7      0.172      4.657
REMARK  12 active torsions:
REMARK  status: ('A' for Active; 'I' for Inactive)
REMARK    1  A    between atoms: O_1  and  C_2 
REMARK    2  A    between atoms: C_2  and  C_4 
REMARK    3  A    between atoms: C_5  and  C_6 
REMARK    4  A    between atoms: C_6  and  O_7 
REMARK    5  A    between atoms: C_9  and  C_10 
REMARK    6  A    between atoms: C_10  and  O_11 
REMARK    7  A    between atoms: C_13  and  C_14 
REMARK    8  A    between atoms: C_14  and  O_15 
REMARK    9  A    between atoms: C_17  and  C_18 
REMARK   10  A    between atoms: C_18  and  O_19 
REMARK   11  A    between atoms: C_21  and  C_22 
REMARK   12  A    between atoms: C_22  and  O_23 
ROOT
HETATM    1  C   UNK N   1      31.982  17.000   7.450  0.00  0.00     0.073 A 
HETATM    2  C   UNK N   1      32.384  16.678   6.016  0.00  0.00     0.073 A 
HETATM    3  C   UNK N   1      31.365  16.783   4.886  0.00  0.00     0.073 A 
HETATM    4  C   UNK N   1      29.930  17.216   5.210  0.00  0.00     0.073 A 
HETATM    5  C   UNK N   1      29.525  17.540   6.648  0.00  0.00     0.073 A 
HETATM    6  C   UNK N   1      30.556  17.432   7.777  0.00  0.00     0.073 A 
ENDROOT
BRANCH   1   7
HETATM    7  C   UNK N   1      33.071  16.886   8.640  0.00  0.00     0.178 C 
HETATM    8  O   UNK N   1      33.169  15.941   9.339  0.00  0.00    -0.646 OA
BRANCH   7   9
HETATM    9  O   UNK N   1      33.963  17.777   8.990  0.00  0.00    -0.773 OA
HETATM   10  H   UNK N   1      34.676  17.532   9.547  0.00  0.00     0.167 HD
ENDBRANCH   7   9
ENDBRANCH   1   7
BRANCH   2  11
HETATM   11  C   UNK N   1      33.900  16.221   5.681  0.00  0.00     0.178 C 
HETATM   12  O   UNK N   1      34.853  16.777   6.102  0.00  0.00    -0.646 OA
BRANCH  11  13
HETATM   13  O   UNK N   1      34.280  15.219   4.933  0.00  0.00    -0.773 OA
HETATM   14  H   UNK N   1      33.655  14.582   4.650  0.00  0.00     0.167 HD
ENDBRANCH  11  13
ENDBRANCH   2  11
BRANCH   6  15
HETATM   15  C   UNK N   1      30.123  17.781   9.332  0.00  0.00     0.178 C 
HETATM   16  O   UNK N   1      30.023  18.884   9.758  0.00  0.00    -0.646 OA
BRANCH  15  17
HETATM   17  O   UNK N   1      29.834  16.932  10.295  0.00  0.00    -0.773 OA
HETATM   18  H   UNK N   1      30.188  17.059  11.153  0.00  0.00     0.167 HD
ENDBRANCH  15  17
ENDBRANCH   6  15
BRANCH   3  19
HETATM   19  C   UNK N   1      31.800  16.434   3.332  0.00  0.00     0.178 C 
HETATM   20  O   UNK N   1      32.053  15.340   2.947  0.00  0.00    -0.646 OA
BRANCH  19  21
HETATM   21  O   UNK N   1      31.927  17.273   2.326  0.00  0.00    -0.773 OA
HETATM   22  H   UNK N   1      31.759  18.186   2.453  0.00  0.00     0.167 HD
ENDBRANCH  19  21
ENDBRANCH   3  19
BRANCH   5  23
HETATM   23  C   UNK N   1      27.995  18.001   6.985  0.00  0.00     0.178 C 
HETATM   24  O   UNK N   1      27.649  19.131   7.078  0.00  0.00    -0.646 OA
BRANCH  23  25
HETATM   25  O   UNK N   1      26.965  17.223   7.195  0.00  0.00    -0.773 OA
HETATM   26  H   UNK N   1      26.126  17.453   6.847  0.00  0.00     0.167 HD
ENDBRANCH  23  25
ENDBRANCH   5  23
BRANCH   4  27
HETATM   27  C   UNK N   1      28.833  17.332   4.014  0.00  0.00     0.178 C 
HETATM   28  O   UNK N   1      28.376  16.400   3.441  0.00  0.00    -0.646 OA
BRANCH  27  29
HETATM   29  O   UNK N   1      28.315  18.427   3.529  0.00  0.00    -0.773 OA
HETATM   30  H   UNK N   1      27.863  19.022   4.095  0.00  0.00     0.167 HD
ENDBRANCH  27  29
ENDBRANCH   4  27
TORSDOF 12
ENDMDL
MODEL 5
REMARK VINA RESULT:      -5.7      0.202      4.724
REMARK  12 active torsions:
REMARK  status: ('A' for Active; 'I' for Inactive)
REMARK    1  A    between atoms: O_1  and  C_2 
REMARK    2  A    between atoms: C_2  and  C_4 
REMARK    3  A    between atoms: C_5  and  C_6 
REMARK    4  A    between atoms: C_6  and  O_7 
REMARK    5  A    between atoms: C_9  and  C_10 
REMARK    6  A    between atoms: C_10  and  O_11 
REMARK    7  A    between atoms: C_13  and  C_14 
REMARK    8  A    between atoms: C_14  and  O_15 
REMARK    9  A    between atoms: C_17  and  C_18 
REMARK   10  A    between atoms: C_18  and  O_19 
REMARK   11  A    between atoms: C_21  and  C_22 
REMARK   12  A    between atoms: C_22  and  O_23 
ROOT
HETATM    1  C   UNK N   1      29.552  17.518   6.652  0.00  0.00     0.073 A 
HETATM    2  C   UNK N   1      30.526  17.330   7.807  0.00  0.00     0.073 A 
HETATM    3  C   UNK N   1      31.951  16.851   7.547  0.00  0.00     0.073 A 
HETATM    4  C   UNK N   1      32.391  16.561   6.107  0.00  0.00     0.073 A 
HETATM    5  C   UNK N   1      31.415  16.750   4.946  0.00  0.00     0.073 A 
HETATM    6  C   UNK N   1      29.985  17.231   5.218  0.00  0.00     0.073 A 
ENDROOT
BRANCH   1   7
HETATM    7  C   UNK N   1      28.044  18.026   6.941  0.00  0.00     0.178 C 
HETATM    8  O   UNK N   1      27.703  19.148   6.813  0.00  0.00    -0.646 OA
BRANCH   7   9
HETATM    9  O   UNK N   1      27.025  17.307   7.339  0.00  0.00    -0.773 OA
HETATM   10  H   UNK N   1      26.298  17.170   6.765  0.00  0.00     0.167 HD
ENDBRANCH   7   9
ENDBRANCH   1   7
BRANCH   2  11
HETATM   11  C   UNK N   1      30.055  17.638   9.325  0.00  0.00     0.178 C 
HETATM   12  O   UNK N   1      29.934  18.729   9.758  0.00  0.00    -0.646 OA
BRANCH  11  13
HETATM   13  O   UNK N   1      29.752  16.769  10.254  0.00  0.00    -0.773 OA
HETATM   14  H   UNK N   1      28.958  16.275  10.193  0.00  0.00     0.167 HD
ENDBRANCH  11  13
ENDBRANCH   2  11
BRANCH   6  15
HETATM   15  C   UNK N   1      28.927  17.435   3.967  0.00  0.00     0.178 C 
HETATM   16  O   UNK N   1      28.739  16.624   3.122  0.00  0.00    -0.646 OA
BRANCH  15  17
HETATM   17  O   UNK N   1      28.164  18.480   3.722  0.00  0.00    -0.773 OA
HETATM   18  H   UNK N   1      28.488  19.344   3.883  0.00  0.00     0.167 HD
ENDBRANCH  15  17
ENDBRANCH   6  15
BRANCH   3  19
HETATM   19  C   UNK N   1      33.008  16.647   8.799  0.00  0.00     0.178 C 
HETATM   20  O   UNK N   1      33.196  15.608   9.342  0.00  0.00    -0.646 OA
BRANCH  19  21
HETATM   21  O   UNK N   1      33.769  17.560   9.364  0.00  0.00    -0.773 OA
HETATM   22  H   UNK N   1      34.534  17.871   8.921  0.00  0.00     0.167 HD
ENDBRANCH  19  21
ENDBRANCH   3  19
BRANCH   5  23
HETATM   23  C   UNK N   1      31.891  16.439   3.415  0.00  0.00     0.178 C 
HETATM   24  O   UNK N   1      32.304  15.389   3.050  0.00  0.00    -0.646 OA
BRANCH  23  25
HETATM   25  O   UNK N   1      31.888  17.268   2.405  0.00  0.00    -0.773 OA
HETATM   26  H   UNK N   1      32.055  18.179   2.546  0.00  0.00     0.167 HD
ENDBRANCH  23  25
ENDBRANCH   5  23
BRANCH   4  27
HETATM   27  C   UNK N   1      33.908  16.050   5.815  0.00  0.00     0.178 C 
HETATM   28  O   UNK N   1      34.877  16.707   6.004  0.00  0.00    -0.646 OA
BRANCH  27  29
HETATM   29  O   UNK N   1      34.266  14.886   5.346  0.00  0.00    -0.773 OA
HETATM   30  H   UNK N   1      33.900  14.103   5.707  0.00  0.00     0.167 HD
ENDBRANCH  27  29
ENDBRANCH   4  27
TORSDOF 12
ENDMDL
MODEL 6
REMARK VINA RESULT:      -5.7      0.112      6.612
REMARK  12 active torsions:
REMARK  status: ('A' for Active; 'I' for Inactive)
REMARK    1  A    between atoms: O_1  and  C_2 
REMARK    2  A    between atoms: C_2  and  C_4 
REMARK    3  A    between atoms: C_5  and  C_6 
REMARK    4  A    between atoms: C_6  and  O_7 
REMARK    5  A    between atoms: C_9  and  C_10 
REMARK    6  A    between atoms: C_10  and  O_11 
REMARK    7  A    between atoms: C_13  and  C_14 
REMARK    8  A    between atoms: C_14  and  O_15 
REMARK    9  A    between atoms: C_17  and  C_18 
REMARK   10  A    between atoms: C_18  and  O_19 
REMARK   11  A    between atoms: C_21  and  C_22 
REMARK   12  A    between atoms: C_22  and  O_23 
ROOT
HETATM    1  C   UNK N   1      31.375  16.734   4.868  0.00  0.00     0.073 A 
HETATM    2  C   UNK N   1      32.401  16.626   5.988  0.00  0.00     0.073 A 
HETATM    3  C   UNK N   1      32.009  16.942   7.427  0.00  0.00     0.073 A 
HETATM    4  C   UNK N   1      30.570  17.370   7.735  0.00  0.00     0.073 A 
HETATM    5  C   UNK N   1      29.538  17.478   6.612  0.00  0.00     0.073 A 
HETATM    6  C   UNK N   1      29.940  17.159   5.168  0.00  0.00     0.073 A 
ENDROOT
BRANCH   1   7
HETATM    7  C   UNK N   1      31.801  16.396   3.345  0.00  0.00     0.178 C 
HETATM    8  O   UNK N   1      32.016  15.301   2.959  0.00  0.00    -0.646 OA
BRANCH   7   9
HETATM    9  O   UNK N   1      31.966  17.240   2.359  0.00  0.00    -0.773 OA
HETATM   10  H   UNK N   1      32.796  17.657   2.233  0.00  0.00     0.167 HD
ENDBRANCH   7   9
ENDBRANCH   1   7
BRANCH   2  11
HETATM   11  C   UNK N   1      33.920  16.174   5.656  0.00  0.00     0.178 C 
HETATM   12  O   UNK N   1      34.870  16.745   6.063  0.00  0.00    -0.646 OA
BRANCH  11  13
HETATM   13  O   UNK N   1      34.305  15.160   4.926  0.00  0.00    -0.773 OA
HETATM   14  H   UNK N   1      34.547  14.353   5.335  0.00  0.00     0.167 HD
ENDBRANCH  11  13
ENDBRANCH   2  11
BRANCH   6  15
HETATM   15  C   UNK N   1      28.829  17.275   3.952  0.00  0.00     0.178 C 
HETATM   16  O   UNK N   1      28.495  16.360   3.274  0.00  0.00    -0.646 OA
BRANCH  15  17
HETATM   17  O   UNK N   1      28.173  18.347   3.564  0.00  0.00    -0.773 OA
HETATM   18  H   UNK N   1      27.574  18.295   2.844  0.00  0.00     0.167 HD
ENDBRANCH  15  17
ENDBRANCH   6  15
BRANCH   3  19
HETATM   19  C   UNK N   1      33.122  16.826   8.642  0.00  0.00     0.178 C 
HETATM   20  O   UNK N   1      33.225  15.882   9.355  0.00  0.00    -0.646 OA
BRANCH  19  21
HETATM   21  O   UNK N   1      34.024  17.718   8.993  0.00  0.00    -0.773 OA
HETATM   22  H   UNK N   1      34.902  17.448   9.177  0.00  0.00     0.167 HD
ENDBRANCH  19  21
ENDBRANCH   3  19
BRANCH   5  23
HETATM   23  C   UNK N   1      28.006  17.935   6.947  0.00  0.00     0.178 C 
HETATM   24  O   UNK N   1      27.554  18.994   6.664  0.00  0.00    -0.646 OA
BRANCH  23  25
HETATM   25  O   UNK N   1      27.087  17.229   7.552  0.00  0.00    -0.773 OA
HETATM   26  H   UNK N   1      26.508  16.687   7.052  0.00  0.00     0.167 HD
ENDBRANCH  23  25
ENDBRANCH   5  23
BRANCH   4  27
HETATM   27  C   UNK N   1      30.139  17.710   9.266  0.00  0.00     0.178 C 
HETATM   28  O   UNK N   1      30.025  18.810   9.695  0.00  0.00    -0.646 OA
BRANCH  27  29
HETATM   29  O   UNK N   1      29.864  16.854  10.212  0.00  0.00    -0.773 OA
HETATM   30  H   UNK N   1      29.499  16.018   9.995  0.00  0.00     0.167 HD
ENDBRANCH  27  29
ENDBRANCH   4  27
TORSDOF 12
ENDMDL
MODEL 7
REMARK VINA RESULT:      -5.7      0.206      4.711
REMARK  12 active torsions:
REMARK  status: ('A' for Active; 'I' for Inactive)
REMARK    1  A    between atoms: O_1  and  C_2 
REMARK    2  A    between atoms: C_2  and  C_4 
REMARK    3  A    between atoms: C_5  and  C_6 
REMARK    4  A    between atoms: C_6  and  O_7 
REMARK    5  A    between atoms: C_9  and  C_10 
REMARK    6  A    between atoms: C_10  and  O_11 
REMARK    7  A    between atoms: C_13  and  C_14 
REMARK    8  A    between atoms: C_14  and  O_15 
REMARK    9  A    between atoms: C_17  and  C_18 
REMARK   10  A    between atoms: C_18  and  O_19 
REMARK   11  A    between atoms: C_21  and  C_22 
REMARK   12  A    between atoms: C_22  and  O_23 
ROOT
HETATM    1  C   UNK N   1      32.396  16.567   6.112  0.00  0.00     0.073 A 
HETATM    2  C   UNK N   1      31.423  16.754   4.955  0.00  0.00     0.073 A 
HETATM    3  C   UNK N   1      29.997  17.228   5.214  0.00  0.00     0.073 A 
HETATM    4  C   UNK N   1      29.553  17.515   6.653  0.00  0.00     0.073 A 
HETATM    5  C   UNK N   1      30.527  17.328   7.816  0.00  0.00     0.073 A 
HETATM    6  C   UNK N   1      31.959  16.851   7.547  0.00  0.00     0.073 A 
ENDROOT
BRANCH   1   7
HETATM    7  C   UNK N   1      33.906  16.064   5.826  0.00  0.00     0.178 C 
HETATM    8  O   UNK N   1      34.857  16.741   5.996  0.00  0.00    -0.646 OA
BRANCH   7   9
HETATM    9  O   UNK N   1      34.283  14.891   5.385  0.00  0.00    -0.773 OA
HETATM   10  H   UNK N   1      34.656  14.267   5.976  0.00  0.00     0.167 HD
ENDBRANCH   7   9
ENDBRANCH   1   7
BRANCH   2  11
HETATM   11  C   UNK N   1      31.898  16.450   3.438  0.00  0.00     0.178 C 
HETATM   12  O   UNK N   1      32.296  15.397   3.082  0.00  0.00    -0.646 OA
BRANCH  11  13
HETATM   13  O   UNK N   1      31.913  17.281   2.429  0.00  0.00    -0.773 OA
HETATM   14  H   UNK N   1      31.162  17.358   1.874  0.00  0.00     0.167 HD
ENDBRANCH  11  13
ENDBRANCH   2  11
BRANCH   6  15
HETATM   15  C   UNK N   1      33.015  16.648   8.799  0.00  0.00     0.178 C 
HETATM   16  O   UNK N   1      33.206  15.609   9.340  0.00  0.00    -0.646 OA
BRANCH  15  17
HETATM   17  O   UNK N   1      33.773  17.561   9.367  0.00  0.00    -0.773 OA
HETATM   18  H   UNK N   1      34.665  17.364   9.579  0.00  0.00     0.167 HD
ENDBRANCH  15  17
ENDBRANCH   6  15
BRANCH   3  19
HETATM   19  C   UNK N   1      28.942  17.431   3.960  0.00  0.00     0.178 C 
HETATM   20  O   UNK N   1      28.770  16.626   3.105  0.00  0.00    -0.646 OA
BRANCH  19  21
HETATM   21  O   UNK N   1      28.164  18.467   3.724  0.00  0.00    -0.773 OA
HETATM   22  H   UNK N   1      28.480  19.335   3.881  0.00  0.00     0.167 HD
ENDBRANCH  19  21
ENDBRANCH   3  19
BRANCH   5  23
HETATM   23  C   UNK N   1      30.047  17.635   9.346  0.00  0.00     0.178 C 
HETATM   24  O   UNK N   1      29.901  18.726   9.788  0.00  0.00    -0.646 OA
BRANCH  23  25
HETATM   25  O   UNK N   1      29.764  16.760  10.275  0.00  0.00    -0.773 OA
HETATM   26  H   UNK N   1      28.877  16.640  10.551  0.00  0.00     0.167 HD
ENDBRANCH  23  25
ENDBRANCH   5  23
BRANCH   4  27
HETATM   27  C   UNK N   1      28.034  18.021   6.943  0.00  0.00     0.178 C 
HETATM   28  O   UNK N   1      27.674  19.145   6.821  0.00  0.00    -0.646 OA
BRANCH  27  29
HETATM   29  O   UNK N   1      27.027  17.292   7.339  0.00  0.00    -0.773 OA
HETATM   30  H   UNK N   1      26.867  16.459   6.940  0.00  0.00     0.167 HD
ENDBRANCH  27  29
ENDBRANCH   4  27
TORSDOF 12
ENDMDL
MODEL 8
REMARK VINA RESULT:      -5.7     11.115     14.170
REMARK  12 active torsions:
REMARK  status: ('A' for Active; 'I' for Inactive)
REMARK    1  A    between atoms: O_1  and  C_2 
REMARK    2  A    between atoms: C_2  and  C_4 
REMARK    3  A    between atoms: C_5  and  C_6 
REMARK    4  A    between atoms: C_6  and  O_7 
REMARK    5  A    between atoms: C_9  and  C_10 
REMARK    6  A    between atoms: C_10  and  O_11 
REMARK    7  A    between atoms: C_13  and  C_14 
REMARK    8  A    between atoms: C_14  and  O_15 
REMARK    9  A    between atoms: C_17  and  C_18 
REMARK   10  A    between atoms: C_18  and  O_19 
REMARK   11  A    between atoms: C_21  and  C_22 
REMARK   12  A    between atoms: C_22  and  O_23 
ROOT
HETATM    1  C   UNK N   1      28.195  23.874  -4.663  0.00  0.00     0.073 A 
HETATM    2  C   UNK N   1      29.468  23.172  -4.207  0.00  0.00     0.073 A 
HETATM    3  C   UNK N   1      30.052  22.024  -5.024  0.00  0.00     0.073 A 
HETATM    4  C   UNK N   1      29.343  21.584  -6.310  0.00  0.00     0.073 A 
HETATM    5  C   UNK N   1      28.066  22.287  -6.769  0.00  0.00     0.073 A 
HETATM    6  C   UNK N   1      27.486  23.440  -5.942  0.00  0.00     0.073 A 
ENDROOT
BRANCH   1   7
HETATM    7  C   UNK N   1      27.584  25.090  -3.788  0.00  0.00     0.178 C 
HETATM    8  O   UNK N   1      28.022  26.186  -3.809  0.00  0.00    -0.646 OA
BRANCH   7   9
HETATM    9  O   UNK N   1      26.566  25.047  -2.968  0.00  0.00    -0.773 OA
HETATM   10  H   UNK N   1      26.670  25.322  -2.079  0.00  0.00     0.167 HD
ENDBRANCH   7   9
ENDBRANCH   1   7
BRANCH   2  11
HETATM   11  C   UNK N   1      30.211  23.642  -2.848  0.00  0.00     0.178 C 
HETATM   12  O   UNK N   1      30.823  24.648  -2.757  0.00  0.00    -0.646 OA
BRANCH  11  13
HETATM   13  O   UNK N   1      30.246  23.011  -1.703  0.00  0.00    -0.773 OA
HETATM   14  H   UNK N   1      31.068  22.766  -1.328  0.00  0.00     0.167 HD
ENDBRANCH  11  13
ENDBRANCH   2  11
BRANCH   6  15
HETATM   15  C   UNK N   1      26.106  24.202  -6.434  0.00  0.00     0.178 C 
HETATM   16  O   UNK N   1      25.124  24.281  -5.773  0.00  0.00    -0.646 OA
BRANCH  15  17
HETATM   17  O   UNK N   1      25.890  24.811  -7.580  0.00  0.00    -0.773 OA
HETATM   18  H   UNK N   1      25.140  24.587  -8.096  0.00  0.00     0.167 HD
ENDBRANCH  15  17
ENDBRANCH   6  15
BRANCH   3  19
HETATM   19  C   UNK N   1      31.432  21.263  -4.530  0.00  0.00     0.178 C 
HETATM   20  O   UNK N   1      32.484  21.390  -5.066  0.00  0.00    -0.646 OA
BRANCH  19  21
HETATM   21  O   UNK N   1      31.574  20.438  -3.515  0.00  0.00    -0.773 OA
HETATM   22  H   UNK N   1      31.699  20.776  -2.650  0.00  0.00     0.167 HD
ENDBRANCH  19  21
ENDBRANCH   3  19
BRANCH   5  23
HETATM   23  C   UNK N   1      27.316  21.813  -8.140  0.00  0.00     0.178 C 
HETATM   24  O   UNK N   1      27.278  22.461  -9.132  0.00  0.00    -0.646 OA
BRANCH  23  25
HETATM   25  O   UNK N   1      26.671  20.693  -8.340  0.00  0.00    -0.773 OA
HETATM   26  H   UNK N   1      26.752  19.990  -7.726  0.00  0.00     0.167 HD
ENDBRANCH  23  25
ENDBRANCH   5  23
BRANCH   4  27
HETATM   27  C   UNK N   1      29.955  20.362  -7.190  0.00  0.00     0.178 C 
HETATM   28  O   UNK N   1      29.383  19.345  -7.403  0.00  0.00    -0.646 OA
BRANCH  27  29
HETATM   29  O   UNK N   1      31.124  20.322  -7.771  0.00  0.00    -0.773 OA
HETATM   30  H   UNK N   1      31.874  20.676  -7.336  0.00  0.00     0.167 HD
ENDBRANCH  27  29
ENDBRANCH   4  27
TORSDOF 12
ENDMDL
MODEL 9
REMARK VINA RESULT:      -5.7     11.125     13.547
REMARK  12 active torsions:
REMARK  status: ('A' for Active; 'I' for Inactive)
REMARK    1  A    between atoms: O_1  and  C_2 
REMARK    2  A    between atoms: C_2  and  C_4 
REMARK    3  A    between atoms: C_5  and  C_6 
REMARK    4  A    between atoms: C_6  and  O_7 
REMARK    5  A    between atoms: C_9  and  C_10 
REMARK    6  A    between atoms: C_10  and  O_11 
REMARK    7  A    between atoms: C_13  and  C_14 
REMARK    8  A    between atoms: C_14  and  O_15 
REMARK    9  A    between atoms: C_17  and  C_18 
REMARK   10  A    between atoms: C_18  and  O_19 
REMARK   11  A    between atoms: C_21  and  C_22 
REMARK   12  A    between atoms: C_22  and  O_23 
ROOT
HETATM    1  C   UNK N   1      29.514  23.152  -4.228  0.00  0.00     0.073 A 
HETATM    2  C   UNK N   1      28.242  23.850  -4.691  0.00  0.00     0.073 A 
HETATM    3  C   UNK N   1      27.539  23.406  -5.970  0.00  0.00     0.073 A 
HETATM    4  C   UNK N   1      28.127  22.248  -6.784  0.00  0.00     0.073 A 
HETATM    5  C   UNK N   1      29.403  21.546  -6.321  0.00  0.00     0.073 A 
HETATM    6  C   UNK N   1      30.104  21.999  -5.035  0.00  0.00     0.073 A 
ENDROOT
BRANCH   1   7
HETATM    7  C   UNK N   1      30.251  23.631  -2.871  0.00  0.00     0.178 C 
HETATM    8  O   UNK N   1      30.729  24.702  -2.737  0.00  0.00    -0.646 OA
BRANCH   7   9
HETATM    9  O   UNK N   1      30.421  22.942  -1.772  0.00  0.00    -0.773 OA
HETATM   10  H   UNK N   1      29.850  23.078  -1.041  0.00  0.00     0.167 HD
ENDBRANCH   7   9
ENDBRANCH   1   7
BRANCH   2  11
HETATM   11  C   UNK N   1      27.626  25.072  -3.827  0.00  0.00     0.178 C 
HETATM   12  O   UNK N   1      26.662  24.968  -3.152  0.00  0.00    -0.646 OA
BRANCH  11  13
HETATM   13  O   UNK N   1      28.078  26.296  -3.748  0.00  0.00    -0.773 OA
HETATM   14  H   UNK N   1      27.501  26.994  -3.508  0.00  0.00     0.167 HD
ENDBRANCH  11  13
ENDBRANCH   2  11
BRANCH   6  15
HETATM   15  C   UNK N   1      31.483  21.244  -4.531  0.00  0.00     0.178 C 
HETATM   16  O   UNK N   1      32.500  21.249  -5.144  0.00  0.00    -0.646 OA
BRANCH  15  17
HETATM   17  O   UNK N   1      31.662  20.553  -3.426  0.00  0.00    -0.773 OA
HETATM   18  H   UNK N   1      31.752  20.996  -2.606  0.00  0.00     0.167 HD
ENDBRANCH  15  17
ENDBRANCH   6  15
BRANCH   3  19
HETATM   19  C   UNK N   1      26.159  24.162  -6.472  0.00  0.00     0.178 C 
HETATM   20  O   UNK N   1      26.028  24.652  -7.546  0.00  0.00    -0.646 OA
BRANCH  19  21
HETATM   21  O   UNK N   1      25.044  24.332  -5.794  0.00  0.00    -0.773 OA
HETATM   22  H   UNK N   1      24.677  23.618  -5.310  0.00  0.00     0.167 HD
ENDBRANCH  19  21
ENDBRANCH   3  19
BRANCH   5  23
HETATM   23  C   UNK N   1      30.025  20.313  -7.194  0.00  0.00     0.178 C 
HETATM   24  O   UNK N   1      29.516  19.247  -7.289  0.00  0.00    -0.646 OA
BRANCH  23  25
HETATM   25  O   UNK N   1      31.132  20.319  -7.890  0.00  0.00    -0.773 OA
HETATM   26  H   UNK N   1      31.734  19.604  -7.818  0.00  0.00     0.167 HD
ENDBRANCH  23  25
ENDBRANCH   5  23
BRANCH   4  27
HETATM   27  C   UNK N   1      27.387  21.764  -8.150  0.00  0.00     0.178 C 
HETATM   28  O   UNK N   1      26.723  20.785  -8.234  0.00  0.00    -0.646 OA
BRANCH  27  29
HETATM   29  O   UNK N   1      27.415  22.361  -9.310  0.00  0.00    -0.773 OA
HETATM   30  H   UNK N   1      27.250  23.281  -9.367  0.00  0.00     0.167 HD
ENDBRANCH  27  29
ENDBRANCH   4  27
TORSDOF 12
ENDMDL
