REMARK  18 active torsions:
REMARK  status: ('A' for Active; 'I' for Inactive)
REMARK    1  A    between atoms: C_1  and  O_9 
REMARK    2  A    between atoms: C_2  and  O_7 
REMARK    3  A    between atoms: C_3  and  O_10 
REMARK    4  A    between atoms: C_4  and  O_12 
REMARK    5  A    between atoms: C_5  and  O_11 
REMARK    6  A    between atoms: C_6  and  O_8 
REMARK    7  A    between atoms: O_9  and  P_15 
REMARK    8  A    between atoms: O_10  and  P_19 
REMARK    9  A    between atoms: O_11  and  P_23 
REMARK   10  A    between atoms: O_12  and  P_27 
REMARK   11  A    between atoms: P_15  and  O_14 
REMARK   12  A    between atoms: P_15  and  O_16 
REMARK   13  A    between atoms: P_19  and  O_18 
REMARK   14  A    between atoms: P_19  and  O_20 
REMARK   15  A    between atoms: P_23  and  O_22 
REMARK   16  A    between atoms: P_23  and  O_24 
REMARK   17  A    between atoms: P_27  and  O_26 
REMARK   18  A    between atoms: P_27  and  O_28 
ROOT
HETATM    1  C   UNK N   1       0.008   1.983  -0.140  0.00  0.00     0.196 C 
HETATM    2  C   UNK N   1      -1.133   1.420   0.728  0.00  0.00     0.182 C 
HETATM    3  C   UNK N   1      -1.423  -0.018   0.326  0.00  0.00     0.197 C 
HETATM    4  C   UNK N   1       1.110  -0.316  -0.269  0.00  0.00     0.197 C 
HETATM    5  C   UNK N   1      -0.174  -0.924   0.341  0.00  0.00     0.198 C 
HETATM    6  C   UNK N   1       1.289   1.170   0.092  0.00  0.00     0.182 C 
ENDROOT
BRANCH   1   7
HETATM    7  O   UNK N   1       0.265   3.348   0.091  0.00  0.00    -0.286 OA
BRANCH   7   8
HETATM    8  P   UNK N   1      -1.164   4.280  -0.317  0.00  0.00     0.391 P 
HETATM    9  O   UNK N   1      -0.422   5.192   0.695  0.00  0.00    -0.632 OA
BRANCH   8  10
HETATM   10  O   UNK N   1      -1.084   5.816  -1.119  0.00  0.00    -0.307 OA
HETATM   11  H   UNK N   1      -0.318   6.207  -1.567  0.00  0.00     0.222 HD
ENDBRANCH   8  10
BRANCH   8  12
HETATM   12  O   UNK N   1      -0.227   4.173  -1.777  0.00  0.00    -0.307 OA
HETATM   13  H   UNK N   1      -0.017   3.690  -2.592  0.00  0.00     0.222 HD
ENDBRANCH   8  12
ENDBRANCH   7   8
ENDBRANCH   1   7
BRANCH   2  14
HETATM   14  O   UNK N   1      -0.830   1.501   2.091  0.00  0.00    -0.390 OA
HETATM   15  H   UNK N   1      -0.677   1.348   3.036  0.00  0.00     0.210 HD
ENDBRANCH   2  14
BRANCH   6  16
HETATM   16  O   UNK N   1       1.740   1.318   1.411  0.00  0.00    -0.390 OA
HETATM   17  H   UNK N   1       1.984   1.100   2.323  0.00  0.00     0.210 HD
ENDBRANCH   6  16
BRANCH   3  18
HETATM   18  O   UNK N   1      -2.101  -0.061  -0.902  0.00  0.00    -0.286 OA
BRANCH  18  19
HETATM   19  P   UNK N   1      -3.726  -0.511  -0.454  0.00  0.00     0.391 P 
HETATM   20  O   UNK N   1      -3.957   0.877  -1.112  0.00  0.00    -0.632 OA
BRANCH  19  21
HETATM   21  O   UNK N   1      -4.940  -0.864  -1.642  0.00  0.00    -0.307 OA
HETATM   22  H   UNK N   1      -5.450  -0.376  -2.307  0.00  0.00     0.222 HD
ENDBRANCH  19  21
BRANCH  19  23
HETATM   23  O   UNK N   1      -3.123  -1.612  -1.654  0.00  0.00    -0.307 OA
HETATM   24  H   UNK N   1      -3.488  -2.211  -2.324  0.00  0.00     0.222 HD
ENDBRANCH  19  23
ENDBRANCH  18  19
ENDBRANCH   3  18
BRANCH   4  25
HETATM   25  O   UNK N   1       2.187  -1.070   0.244  0.00  0.00    -0.286 OA
BRANCH  25  26
HETATM   26  P   UNK N   1       3.604  -0.873  -0.761  0.00  0.00     0.391 P 
HETATM   27  O   UNK N   1       3.954   0.637  -0.860  0.00  0.00    -0.632 OA
BRANCH  26  28
HETATM   28  O   UNK N   1       3.394  -1.493  -2.366  0.00  0.00    -0.307 OA
HETATM   29  H   UNK N   1       3.034  -1.564  -3.265  0.00  0.00     0.222 HD
ENDBRANCH  26  28
BRANCH  26  30
HETATM   30  O   UNK N   1       4.967  -1.626   0.008  0.00  0.00    -0.307 OA
HETATM   31  H   UNK N   1       4.984  -2.495   0.438  0.00  0.00     0.222 HD
ENDBRANCH  26  30
ENDBRANCH  25  26
ENDBRANCH   4  25
BRANCH   5  32
HETATM   32  O   UNK N   1      -0.476  -2.134  -0.295  0.00  0.00    -0.286 OA
BRANCH  32  33
HETATM   33  P   UNK N   1      -0.295  -3.397   0.886  0.00  0.00     0.391 P 
HETATM   34  O   UNK N   1      -1.831  -3.172   0.932  0.00  0.00    -0.632 OA
BRANCH  33  35
HETATM   35  O   UNK N   1      -0.918  -4.987   0.576  0.00  0.00    -0.307 OA
HETATM   36  H   UNK N   1      -1.861  -5.130   0.403  0.00  0.00     0.222 HD
ENDBRANCH  33  35
BRANCH  33  37
HETATM   37  O   UNK N   1       0.150  -3.956  -0.697  0.00  0.00    -0.307 OA
HETATM   38  H   UNK N   1       0.003  -4.327  -1.582  0.00  0.00     0.222 HD
ENDBRANCH  33  37
ENDBRANCH  32  33
ENDBRANCH   5  32
TORSDOF 18
