REMARK  8 active torsions:
REMARK  status: ('A' for Active; 'I' for Inactive)
REMARK    1  A    between atoms: C_2  and  C_1 
REMARK    2  A    between atoms: O_7  and  C_1 
REMARK    3  A    between atoms: C_3  and  O_8 
REMARK    4  A    between atoms: C_4  and  O_9 
REMARK    5  A    between atoms: C_5  and  O_15 
REMARK    6  A    between atoms: C_6  and  O_10 
REMARK    7  A    between atoms: S_16  and  O_11 
REMARK    8  A    between atoms: S_16  and  O_15 
ROOT
HETATM    1  C   UNK N   1       2.120   0.743  -0.543  0.00  0.00     0.179 C 
HETATM    2  C   UNK N   1       1.128   1.588   0.310  0.00  0.00     0.182 C 
HETATM    3  C   UNK N   1      -0.173  -0.564   0.074  0.00  0.00     0.206 C 
HETATM    4  C   UNK N   1       0.043   0.679   0.950  0.00  0.00     0.209 C 
HETATM    5  C   UNK N   1       1.183  -1.344   0.044  0.00  0.00     0.288 C 
HETATM    6  O   UNK N   1       2.351  -0.517   0.047  0.00  0.00    -0.349 OA
ENDROOT
BRANCH   4   7
HETATM    7  O   UNK N   1      -1.099   1.390   1.410  0.00  0.00    -0.253 OA
BRANCH   7   8
HETATM    8  S   UNK N   1      -2.362   1.624   0.236  0.00  0.00     0.240 S 
HETATM    9  O   UNK N   1      -2.089   2.841  -0.660  0.00  0.00    -0.579 OA
HETATM   10  O   UNK N   1      -3.590   2.082   1.037  0.00  0.00    -0.579 OA
BRANCH   8  11
HETATM   11  O   UNK N   1      -2.903   0.292  -0.703  0.00  0.00    -0.274 OA
HETATM   12  H   UNK N   1      -3.707   0.180  -1.233  0.00  0.00     0.234 HD
ENDBRANCH   8  11
ENDBRANCH   7   8
ENDBRANCH   4   7
BRANCH   2  13
HETATM   13  O   UNK N   1       0.562   2.553  -0.525  0.00  0.00    -0.390 OA
HETATM   14  H   UNK N   1       0.946   3.229  -1.105  0.00  0.00     0.210 HD
ENDBRANCH   2  13
BRANCH   3  15
HETATM   15  O   UNK N   1      -1.183  -1.387   0.579  0.00  0.00    -0.388 OA
HETATM   16  H   UNK N   1      -2.029  -1.065   0.929  0.00  0.00     0.210 HD
ENDBRANCH   3  15
BRANCH   1  17
HETATM   17  C   UNK N   1       3.457   1.458  -0.714  0.00  0.00     0.198 C 
BRANCH  17  18
HETATM   18  O   UNK N   1       3.300   2.664  -1.399  0.00  0.00    -0.398 OA
HETATM   19  H   UNK N   1       3.971   3.177  -1.876  0.00  0.00     0.209 HD
ENDBRANCH  17  18
ENDBRANCH   1  17
BRANCH   5  20
HETATM   20  O   UNK N   1       1.258  -2.149   1.185  0.00  0.00    -0.369 OA
HETATM   21  H   UNK N   1       0.800  -2.473   1.977  0.00  0.00     0.212 HD
ENDBRANCH   5  20
TORSDOF 8
