MODEL 1
REMARK VINA RESULT:      -4.9      0.000      0.000
REMARK  7 active torsions:
REMARK  status: ('A' for Active; 'I' for Inactive)
REMARK    1  A    between atoms: C_2  and  O_1 
REMARK    2  A    between atoms: C_2  and  C_3 
REMARK    3  A    between atoms: C_2  and  C_8 
REMARK    4  A    between atoms: C_3  and  O_4 
REMARK    5  A    between atoms: C_3  and  C_5 
REMARK    6  A    between atoms: C_5  and  O_6 
REMARK    7  A    between atoms: C_8  and  O_9 
ROOT
HETATM    1  C   UNK N   1      34.020  17.288   9.065  0.00  0.00     0.254 C 
ENDROOT
BRANCH   1   2
HETATM    2  O   UNK N   1      32.651  17.019   8.985  0.00  0.00    -0.382 OA
HETATM    3  H   UNK N   1      32.299  16.187   9.338  0.00  0.00     0.210 HD
ENDBRANCH   1   2
BRANCH   1   4
HETATM    4  C   UNK N   1      34.850  16.569  10.128  0.00  0.00     0.254 C 
BRANCH   4   5
HETATM    5  O   UNK N   1      36.007  17.187  10.608  0.00  0.00    -0.382 OA
HETATM    6  H   UNK N   1      36.803  17.224  10.054  0.00  0.00     0.210 HD
ENDBRANCH   4   5
BRANCH   4   7
HETATM    7  C   UNK N   1      34.496  15.229  10.692  0.00  0.00     0.172 C 
HETATM    8  O   UNK N   1      35.333  14.343  10.753  0.00  0.00    -0.648 OA
BRANCH   7   9
HETATM    9  O   UNK N   1      33.247  14.996  11.135  0.00  0.00    -0.774 OA
HETATM   10  H   UNK N   1      32.583  15.650  11.033  0.00  0.00     0.167 HD
ENDBRANCH   7   9
ENDBRANCH   4   7
ENDBRANCH   1   4
BRANCH   1  11
HETATM   11  C   UNK N   1      34.589  18.275   8.094  0.00  0.00     0.172 C 
HETATM   12  O   UNK N   1      35.256  19.218   8.490  0.00  0.00    -0.648 OA
BRANCH  11  13
HETATM   13  O   UNK N   1      34.366  18.126   6.776  0.00  0.00    -0.774 OA
HETATM   14  H   UNK N   1      33.491  18.020   6.458  0.00  0.00     0.167 HD
ENDBRANCH  11  13
ENDBRANCH   1  11
TORSDOF 7
ENDMDL
MODEL 2
REMARK VINA RESULT:      -4.9      0.137      4.270
REMARK  7 active torsions:
REMARK  status: ('A' for Active; 'I' for Inactive)
REMARK    1  A    between atoms: C_2  and  O_1 
REMARK    2  A    between atoms: C_2  and  C_3 
REMARK    3  A    between atoms: C_2  and  C_8 
REMARK    4  A    between atoms: C_3  and  O_4 
REMARK    5  A    between atoms: C_3  and  C_5 
REMARK    6  A    between atoms: C_5  and  O_6 
REMARK    7  A    between atoms: C_8  and  O_9 
ROOT
HETATM    1  C   UNK N   1      34.872  16.579  10.171  0.00  0.00     0.254 C 
ENDROOT
BRANCH   1   2
HETATM    2  O   UNK N   1      36.051  17.198  10.593  0.00  0.00    -0.382 OA
HETATM    3  H   UNK N   1      36.079  18.161  10.710  0.00  0.00     0.210 HD
ENDBRANCH   1   2
BRANCH   1   4
HETATM    4  C   UNK N   1      34.038  17.249   9.080  0.00  0.00     0.254 C 
BRANCH   4   5
HETATM    5  O   UNK N   1      32.683  16.927   8.977  0.00  0.00    -0.382 OA
HETATM    6  H   UNK N   1      32.093  17.480   8.441  0.00  0.00     0.210 HD
ENDBRANCH   4   5
BRANCH   4   7
HETATM    7  C   UNK N   1      34.591  18.240   8.104  0.00  0.00     0.172 C 
HETATM    8  O   UNK N   1      35.241  19.196   8.494  0.00  0.00    -0.648 OA
BRANCH   7   9
HETATM    9  O   UNK N   1      34.371  18.079   6.786  0.00  0.00    -0.774 OA
HETATM   10  H   UNK N   1      34.949  18.474   6.163  0.00  0.00     0.167 HD
ENDBRANCH   7   9
ENDBRANCH   4   7
ENDBRANCH   1   4
BRANCH   1  11
HETATM   11  C   UNK N   1      34.499  15.284  10.825  0.00  0.00     0.172 C 
HETATM   12  O   UNK N   1      35.359  14.466  11.109  0.00  0.00    -0.648 OA
BRANCH  11  13
HETATM   13  O   UNK N   1      33.210  15.019  11.102  0.00  0.00    -0.774 OA
HETATM   14  H   UNK N   1      32.755  14.354  10.623  0.00  0.00     0.167 HD
ENDBRANCH  11  13
ENDBRANCH   1  11
TORSDOF 7
ENDMDL
MODEL 3
REMARK VINA RESULT:      -4.9     15.525     16.517
REMARK  7 active torsions:
REMARK  status: ('A' for Active; 'I' for Inactive)
REMARK    1  A    between atoms: C_2  and  O_1 
REMARK    2  A    between atoms: C_2  and  C_3 
REMARK    3  A    between atoms: C_2  and  C_8 
REMARK    4  A    between atoms: C_3  and  O_4 
REMARK    5  A    between atoms: C_3  and  C_5 
REMARK    6  A    between atoms: C_5  and  O_6 
REMARK    7  A    between atoms: C_8  and  O_9 
ROOT
HETATM    1  C   UNK N   1      19.970  18.340   1.876  0.00  0.00     0.254 C 
ENDROOT
BRANCH   1   2
HETATM    2  O   UNK N   1      19.147  18.118   2.983  0.00  0.00    -0.382 OA
HETATM    3  H   UNK N   1      19.386  17.444   3.638  0.00  0.00     0.210 HD
ENDBRANCH   1   2
BRANCH   1   4
HETATM    4  C   UNK N   1      20.543  19.739   1.654  0.00  0.00     0.254 C 
BRANCH   4   5
HETATM    5  O   UNK N   1      20.762  20.175   0.346  0.00  0.00    -0.382 OA
HETATM    6  H   UNK N   1      21.637  20.501   0.082  0.00  0.00     0.210 HD
ENDBRANCH   4   5
BRANCH   4   7
HETATM    7  C   UNK N   1      20.889  20.680   2.765  0.00  0.00     0.172 C 
HETATM    8  O   UNK N   1      20.319  20.603   3.841  0.00  0.00    -0.648 OA
BRANCH   7   9
HETATM    9  O   UNK N   1      21.835  21.619   2.580  0.00  0.00    -0.774 OA
HETATM   10  H   UNK N   1      22.043  21.910   1.714  0.00  0.00     0.167 HD
ENDBRANCH   7   9
ENDBRANCH   4   7
ENDBRANCH   1   4
BRANCH   1  11
HETATM   11  C   UNK N   1      20.238  17.178   0.969  0.00  0.00     0.172 C 
HETATM   12  O   UNK N   1      20.434  16.066   1.433  0.00  0.00    -0.648 OA
BRANCH  11  13
HETATM   13  O   UNK N   1      20.263  17.358  -0.363  0.00  0.00    -0.774 OA
HETATM   14  H   UNK N   1      20.226  16.619  -0.937  0.00  0.00     0.167 HD
ENDBRANCH  11  13
ENDBRANCH   1  11
TORSDOF 7
ENDMDL
MODEL 4
REMARK VINA RESULT:      -4.8     15.466     16.307
REMARK  7 active torsions:
REMARK  status: ('A' for Active; 'I' for Inactive)
REMARK    1  A    between atoms: C_2  and  O_1 
REMARK    2  A    between atoms: C_2  and  C_3 
REMARK    3  A    between atoms: C_2  and  C_8 
REMARK    4  A    between atoms: C_3  and  O_4 
REMARK    5  A    between atoms: C_3  and  C_5 
REMARK    6  A    between atoms: C_5  and  O_6 
REMARK    7  A    between atoms: C_8  and  O_9 
ROOT
HETATM    1  C   UNK N   1      20.671  19.685   1.657  0.00  0.00     0.254 C 
ENDROOT
BRANCH   1   2
HETATM    2  O   UNK N   1      20.721  20.115   0.329  0.00  0.00    -0.382 OA
HETATM    3  H   UNK N   1      20.855  19.472  -0.385  0.00  0.00     0.210 HD
ENDBRANCH   1   2
BRANCH   1   4
HETATM    4  C   UNK N   1      20.372  18.214   1.944  0.00  0.00     0.254 C 
BRANCH   4   5
HETATM    5  O   UNK N   1      20.442  17.759   3.262  0.00  0.00    -0.382 OA
HETATM    6  H   UNK N   1      20.151  16.860   3.481  0.00  0.00     0.210 HD
ENDBRANCH   4   5
BRANCH   4   7
HETATM    7  C   UNK N   1      20.005  17.220   0.887  0.00  0.00     0.172 C 
HETATM    8  O   UNK N   1      20.393  17.366  -0.261  0.00  0.00    -0.648 OA
BRANCH   7   9
HETATM    9  O   UNK N   1      19.241  16.158   1.200  0.00  0.00    -0.774 OA
HETATM   10  H   UNK N   1      18.359  16.106   0.887  0.00  0.00     0.167 HD
ENDBRANCH   7   9
ENDBRANCH   4   7
ENDBRANCH   1   4
BRANCH   1  11
HETATM   11  C   UNK N   1      20.918  20.706   2.725  0.00  0.00     0.172 C 
HETATM   12  O   UNK N   1      20.315  20.649   3.784  0.00  0.00    -0.648 OA
BRANCH  11  13
HETATM   13  O   UNK N   1      21.808  21.693   2.517  0.00  0.00    -0.774 OA
HETATM   14  H   UNK N   1      21.902  22.068   1.664  0.00  0.00     0.167 HD
ENDBRANCH  11  13
ENDBRANCH   1  11
TORSDOF 7
ENDMDL
MODEL 5
REMARK VINA RESULT:      -4.7      1.716      3.094
REMARK  7 active torsions:
REMARK  status: ('A' for Active; 'I' for Inactive)
REMARK    1  A    between atoms: C_2  and  O_1 
REMARK    2  A    between atoms: C_2  and  C_3 
REMARK    3  A    between atoms: C_2  and  C_8 
REMARK    4  A    between atoms: C_3  and  O_4 
REMARK    5  A    between atoms: C_3  and  C_5 
REMARK    6  A    between atoms: C_5  and  O_6 
REMARK    7  A    between atoms: C_8  and  O_9 
ROOT
HETATM    1  C   UNK N   1      35.628  16.025  10.788  0.00  0.00     0.254 C 
ENDROOT
BRANCH   1   2
HETATM    2  O   UNK N   1      37.024  16.044  10.836  0.00  0.00    -0.382 OA
HETATM    3  H   UNK N   1      37.532  15.297  10.483  0.00  0.00     0.210 HD
ENDBRANCH   1   2
BRANCH   1   4
HETATM    4  C   UNK N   1      34.878  14.971  11.603  0.00  0.00     0.254 C 
BRANCH   4   5
HETATM    5  O   UNK N   1      33.520  14.767  11.349  0.00  0.00    -0.382 OA
HETATM    6  H   UNK N   1      32.871  14.884  12.060  0.00  0.00     0.210 HD
ENDBRANCH   4   5
BRANCH   4   7
HETATM    7  C   UNK N   1      35.517  14.136  12.668  0.00  0.00     0.172 C 
HETATM    8  O   UNK N   1      34.836  13.421  13.385  0.00  0.00    -0.648 OA
BRANCH   7   9
HETATM    9  O   UNK N   1      36.852  14.171  12.839  0.00  0.00    -0.774 OA
HETATM   10  H   UNK N   1      37.219  14.642  13.561  0.00  0.00     0.167 HD
ENDBRANCH   7   9
ENDBRANCH   4   7
ENDBRANCH   1   4
BRANCH   1  11
HETATM   11  C   UNK N   1      34.950  17.050   9.932  0.00  0.00     0.172 C 
HETATM   12  O   UNK N   1      35.511  18.101   9.667  0.00  0.00    -0.648 OA
BRANCH  11  13
HETATM   13  O   UNK N   1      33.717  16.813   9.450  0.00  0.00    -0.774 OA
HETATM   14  H   UNK N   1      33.199  16.120   9.808  0.00  0.00     0.167 HD
ENDBRANCH  11  13
ENDBRANCH   1  11
TORSDOF 7
ENDMDL
MODEL 6
REMARK VINA RESULT:      -4.7      1.377      4.058
REMARK  7 active torsions:
REMARK  status: ('A' for Active; 'I' for Inactive)
REMARK    1  A    between atoms: C_2  and  O_1 
REMARK    2  A    between atoms: C_2  and  C_3 
REMARK    3  A    between atoms: C_2  and  C_8 
REMARK    4  A    between atoms: C_3  and  O_4 
REMARK    5  A    between atoms: C_3  and  C_5 
REMARK    6  A    between atoms: C_5  and  O_6 
REMARK    7  A    between atoms: C_8  and  O_9 
ROOT
HETATM    1  C   UNK N   1      32.992  16.221   8.673  0.00  0.00     0.254 C 
ENDROOT
BRANCH   1   2
HETATM    2  O   UNK N   1      32.226  16.466   7.531  0.00  0.00    -0.382 OA
HETATM    3  H   UNK N   1      32.391  15.962   6.719  0.00  0.00     0.210 HD
ENDBRANCH   1   2
BRANCH   1   4
HETATM    4  C   UNK N   1      34.098  17.208   9.044  0.00  0.00     0.254 C 
BRANCH   4   5
HETATM    5  O   UNK N   1      34.655  17.144  10.323  0.00  0.00    -0.382 OA
HETATM    6  H   UNK N   1      34.655  17.929  10.893  0.00  0.00     0.210 HD
ENDBRANCH   4   5
BRANCH   4   7
HETATM    7  C   UNK N   1      34.627  18.250   8.110  0.00  0.00     0.172 C 
HETATM    8  O   UNK N   1      35.265  19.198   8.539  0.00  0.00    -0.648 OA
BRANCH   7   9
HETATM    9  O   UNK N   1      34.400  18.146   6.788  0.00  0.00    -0.774 OA
HETATM   10  H   UNK N   1      34.261  18.916   6.273  0.00  0.00     0.167 HD
ENDBRANCH   7   9
ENDBRANCH   4   7
ENDBRANCH   1   4
BRANCH   1  11
HETATM   11  C   UNK N   1      32.674  14.992   9.468  0.00  0.00     0.172 C 
HETATM   12  O   UNK N   1      32.307  13.972   8.908  0.00  0.00    -0.648 OA
BRANCH  11  13
HETATM   13  O   UNK N   1      32.792  15.010  10.808  0.00  0.00    -0.774 OA
HETATM   14  H   UNK N   1      33.564  15.361  11.206  0.00  0.00     0.167 HD
ENDBRANCH  11  13
ENDBRANCH   1  11
TORSDOF 7
ENDMDL
MODEL 7
REMARK VINA RESULT:      -4.6     15.350     16.226
REMARK  7 active torsions:
REMARK  status: ('A' for Active; 'I' for Inactive)
REMARK    1  A    between atoms: C_2  and  O_1 
REMARK    2  A    between atoms: C_2  and  C_3 
REMARK    3  A    between atoms: C_2  and  C_8 
REMARK    4  A    between atoms: C_3  and  O_4 
REMARK    5  A    between atoms: C_3  and  C_5 
REMARK    6  A    between atoms: C_5  and  O_6 
REMARK    7  A    between atoms: C_8  and  O_9 
ROOT
HETATM    1  C   UNK N   1      20.564  19.769   2.834  0.00  0.00     0.254 C 
ENDROOT
BRANCH   1   2
HETATM    2  O   UNK N   1      20.651  19.865   4.226  0.00  0.00    -0.382 OA
HETATM    3  H   UNK N   1      21.503  19.732   4.669  0.00  0.00     0.210 HD
ENDBRANCH   1   2
BRANCH   1   4
HETATM    4  C   UNK N   1      19.678  18.682   2.226  0.00  0.00     0.254 C 
BRANCH   4   5
HETATM    5  O   UNK N   1      18.308  18.705   2.492  0.00  0.00    -0.382 OA
HETATM    6  H   UNK N   1      17.927  19.429   3.013  0.00  0.00     0.210 HD
ENDBRANCH   4   5
BRANCH   4   7
HETATM    7  C   UNK N   1      20.196  17.582   1.352  0.00  0.00     0.172 C 
HETATM    8  O   UNK N   1      20.493  16.499   1.831  0.00  0.00    -0.648 OA
BRANCH   7   9
HETATM    9  O   UNK N   1      20.335  17.784   0.029  0.00  0.00    -0.774 OA
HETATM   10  H   UNK N   1      21.176  17.686  -0.374  0.00  0.00     0.167 HD
ENDBRANCH   7   9
ENDBRANCH   4   7
ENDBRANCH   1   4
BRANCH   1  11
HETATM   11  C   UNK N   1      21.354  20.748   2.022  0.00  0.00     0.172 C 
HETATM   12  O   UNK N   1      21.419  20.634   0.809  0.00  0.00    -0.648 OA
BRANCH  11  13
HETATM   13  O   UNK N   1      21.996  21.761   2.631  0.00  0.00    -0.774 OA
HETATM   14  H   UNK N   1      22.914  21.885   2.491  0.00  0.00     0.167 HD
ENDBRANCH  11  13
ENDBRANCH   1  11
TORSDOF 7
ENDMDL
MODEL 8
REMARK VINA RESULT:      -4.5      1.528      2.154
REMARK  7 active torsions:
REMARK  status: ('A' for Active; 'I' for Inactive)
REMARK    1  A    between atoms: C_2  and  O_1 
REMARK    2  A    between atoms: C_2  and  C_3 
REMARK    3  A    between atoms: C_2  and  C_8 
REMARK    4  A    between atoms: C_3  and  O_4 
REMARK    5  A    between atoms: C_3  and  C_5 
REMARK    6  A    between atoms: C_5  and  O_6 
REMARK    7  A    between atoms: C_8  and  O_9 
ROOT
HETATM    1  C   UNK N   1      34.416  17.050   9.072  0.00  0.00     0.254 C 
ENDROOT
BRANCH   1   2
HETATM    2  O   UNK N   1      34.745  17.196  10.422  0.00  0.00    -0.382 OA
HETATM    3  H   UNK N   1      35.583  17.612  10.675  0.00  0.00     0.210 HD
ENDBRANCH   1   2
BRANCH   1   4
HETATM    4  C   UNK N   1      33.795  15.734   8.603  0.00  0.00     0.254 C 
BRANCH   4   5
HETATM    5  O   UNK N   1      34.045  15.300   7.300  0.00  0.00    -0.382 OA
HETATM    6  H   UNK N   1      34.932  15.396   6.918  0.00  0.00     0.210 HD
ENDBRANCH   4   5
BRANCH   4   7
HETATM    7  C   UNK N   1      32.926  14.873   9.466  0.00  0.00     0.172 C 
HETATM    8  O   UNK N   1      32.242  13.993   8.970  0.00  0.00    -0.648 OA
BRANCH   7   9
HETATM    9  O   UNK N   1      32.897  15.068  10.797  0.00  0.00    -0.774 OA
HETATM   10  H   UNK N   1      32.089  14.987  11.265  0.00  0.00     0.167 HD
ENDBRANCH   7   9
ENDBRANCH   4   7
ENDBRANCH   1   4
BRANCH   1  11
HETATM   11  C   UNK N   1      34.698  18.205   8.162  0.00  0.00     0.172 C 
HETATM   12  O   UNK N   1      35.263  19.201   8.586  0.00  0.00    -0.648 OA
BRANCH  11  13
HETATM   13  O   UNK N   1      34.328  18.149   6.871  0.00  0.00    -0.774 OA
HETATM   14  H   UNK N   1      34.945  18.357   6.197  0.00  0.00     0.167 HD
ENDBRANCH  11  13
ENDBRANCH   1  11
TORSDOF 7
ENDMDL
MODEL 9
REMARK VINA RESULT:      -4.5      1.681      4.726
REMARK  7 active torsions:
REMARK  status: ('A' for Active; 'I' for Inactive)
REMARK    1  A    between atoms: C_2  and  O_1 
REMARK    2  A    between atoms: C_2  and  C_3 
REMARK    3  A    between atoms: C_2  and  C_8 
REMARK    4  A    between atoms: C_3  and  O_4 
REMARK    5  A    between atoms: C_3  and  C_5 
REMARK    6  A    between atoms: C_5  and  O_6 
REMARK    7  A    between atoms: C_8  and  O_9 
ROOT
HETATM    1  C   UNK N   1      35.931  15.296  11.388  0.00  0.00     0.254 C 
ENDROOT
BRANCH   1   2
HETATM    2  O   UNK N   1      37.086  15.936  10.932  0.00  0.00    -0.382 OA
HETATM    3  H   UNK N   1      37.048  16.504  10.147  0.00  0.00     0.210 HD
ENDBRANCH   1   2
BRANCH   1   4
HETATM    4  C   UNK N   1      34.582  15.703  10.798  0.00  0.00     0.254 C 
BRANCH   4   5
HETATM    5  O   UNK N   1      33.443  14.982  11.164  0.00  0.00    -0.382 OA
HETATM    6  H   UNK N   1      32.751  14.802  10.508  0.00  0.00     0.210 HD
ENDBRANCH   4   5
BRANCH   4   7
HETATM    7  C   UNK N   1      34.403  16.840   9.842  0.00  0.00     0.172 C 
HETATM    8  O   UNK N   1      35.296  17.656   9.677  0.00  0.00    -0.648 OA
BRANCH   7   9
HETATM    9  O   UNK N   1      33.251  16.968   9.157  0.00  0.00    -0.774 OA
HETATM   10  H   UNK N   1      33.106  17.723   8.620  0.00  0.00     0.167 HD
ENDBRANCH   7   9
ENDBRANCH   4   7
ENDBRANCH   1   4
BRANCH   1  11
HETATM   11  C   UNK N   1      36.094  14.241  12.439  0.00  0.00     0.172 C 
HETATM   12  O   UNK N   1      35.175  13.978  13.198  0.00  0.00    -0.648 OA
BRANCH  11  13
HETATM   13  O   UNK N   1      37.259  13.578  12.549  0.00  0.00    -0.774 OA
HETATM   14  H   UNK N   1      37.337  12.708  12.212  0.00  0.00     0.167 HD
ENDBRANCH  11  13
ENDBRANCH   1  11
TORSDOF 7
ENDMDL
