REMARK  7 active torsions:
REMARK  status: ('A' for Active; 'I' for Inactive)
REMARK    1  A    between atoms: C_5  and  C_3 
REMARK    2  A    between atoms: O_10  and  C_3 
REMARK    3  A    between atoms: S_15  and  C_4 
REMARK    4  A    between atoms: C_6  and  O_11 
REMARK    5  A    between atoms: C_7  and  O_12 
REMARK    6  A    between atoms: C_8  and  O_13 
REMARK    7  A    between atoms: C_9  and  S_15 
ROOT
HETATM    1  C   UNK N   1       1.785   1.208  -0.181  0.00  0.00     0.178 C 
HETATM    2  C   UNK N   1       0.660   2.142   0.349  0.00  0.00     0.180 C 
HETATM    3  C   UNK N   1      -0.627   1.328   0.639  0.00  0.00     0.181 C 
HETATM    4  C   UNK N   1      -0.712   0.134  -0.315  0.00  0.00     0.188 C 
HETATM    5  C   UNK N   1       0.533  -0.774  -0.031  0.00  0.00     0.215 C 
HETATM    6  O   UNK N   1       1.692  -0.065   0.424  0.00  0.00    -0.363 OA
ENDROOT
BRANCH   5   7
HETATM    7  S   UNK N   1       0.112  -1.978   1.283  0.00  0.00    -0.131 SA
BRANCH   7   8
HETATM    8  C   UNK N   1      -0.687  -3.149   0.136  0.00  0.00     0.041 C 
HETATM    9  C   UNK N   1       0.126  -4.420   0.021  0.00  0.00     0.021 C 
HETATM   10  C   UNK N   1      -2.101  -3.450   0.586  0.00  0.00     0.021 C 
ENDBRANCH   7   8
ENDBRANCH   5   7
BRANCH   4  11
HETATM   11  O   UNK N   1      -0.699   0.591  -1.637  0.00  0.00    -0.389 OA
HETATM   12  H   UNK N   1      -0.420   0.741  -2.554  0.00  0.00     0.210 HD
ENDBRANCH   4  11
BRANCH   3  13
HETATM   13  O   UNK N   1      -1.764   2.137   0.565  0.00  0.00    -0.390 OA
HETATM   14  H   UNK N   1      -1.671   3.101   0.514  0.00  0.00     0.210 HD
ENDBRANCH   3  13
BRANCH   1  15
HETATM   15  C   UNK N   1       3.170   1.795   0.065  0.00  0.00     0.198 C 
BRANCH  15  16
HETATM   16  O   UNK N   1       3.336   2.986  -0.644  0.00  0.00    -0.398 OA
HETATM   17  H   UNK N   1       4.110   3.301  -1.136  0.00  0.00     0.209 HD
ENDBRANCH  15  16
ENDBRANCH   1  15
BRANCH   2  18
HETATM   18  O   UNK N   1       0.421   3.129  -0.616  0.00  0.00    -0.390 OA
HETATM   19  H   UNK N   1       0.929   3.614  -1.284  0.00  0.00     0.210 HD
ENDBRANCH   2  18
TORSDOF 7
