MODEL 1
REMARK VINA RESULT:      -7.7      0.000      0.000
REMARK  17 active torsions:
REMARK  status: ('A' for Active; 'I' for Inactive)
REMARK    1  A    between atoms: C_23  and  C_17 
REMARK    2  A    between atoms: C_29  and  C_17 
REMARK    3  A    between atoms: C_24  and  C_19 
REMARK    4  A    between atoms: C_36  and  C_19 
REMARK    5  A    between atoms: C_30  and  C_20 
REMARK    6  A    between atoms: C_36  and  C_20 
REMARK    7  A    between atoms: C_26  and  O_46 
REMARK    8  A    between atoms: C_28  and  C_32 
REMARK    9  A    between atoms: C_30  and  C_29 
REMARK   10  A    between atoms: C_29  and  N_39 
REMARK   11  A    between atoms: C_30  and  O_41 
REMARK   12  A    between atoms: C_31  and  O_47 
REMARK   13  A    between atoms: C_34  and  N_37 
REMARK   14  A    between atoms: O_43  and  C_34 
REMARK   15  A    between atoms: O_47  and  C_34 
REMARK   16  A    between atoms: C_35  and  O_44 
REMARK   17  A    between atoms: O_46  and  C_35 
ROOT
HETATM    1  C   UNK N   1      28.698  18.252   4.891  0.00  0.00     0.128 C 
HETATM    2  C   UNK N   1      28.775  17.052   5.831  0.00  0.00     0.086 C 
HETATM    3  C   UNK N   1      28.293  16.047   4.891  0.00  0.00     0.161 C 
HETATM    4  C   UNK N   1      27.188  16.593   4.077  0.00  0.00     0.093 C 
HETATM    5  N   UNK N   1      27.536  18.025   3.984  0.00  0.00    -0.405 N 
HETATM    6  O   UNK N   1      28.904  15.025   4.615  0.00  0.00    -0.295 OA
HETATM    7  H   UNK N   1      27.070  18.726   3.409  0.00  0.00     0.154 HD
ENDROOT
BRANCH   4   8
HETATM    8  C   UNK N   1      27.222  15.899   2.695  0.00  0.00     0.077 C 
BRANCH   8   9
HETATM    9  C   UNK N   1      26.194  14.877   2.305  0.00  0.00    -0.055 A 
HETATM   10  C   UNK N   1      26.420  13.516   2.545  0.00  0.00     0.007 A 
HETATM   11  C   UNK N   1      25.551  12.552   2.026  0.00  0.00     0.001 A 
HETATM   12  C   UNK N   1      24.467  12.942   1.235  0.00  0.00     0.000 A 
HETATM   13  C   UNK N   1      24.244  14.297   0.977  0.00  0.00     0.001 A 
HETATM   14  C   UNK N   1      25.109  15.264   1.505  0.00  0.00     0.007 A 
ENDBRANCH   8   9
ENDBRANCH   4   8
BRANCH   4  15
HETATM   15  C   UNK N   1      25.905  16.307   4.908  0.00  0.00     0.073 C 
BRANCH  15  16
HETATM   16  C   UNK N   1      24.734  17.318   4.909  0.00  0.00     0.144 C 
BRANCH  16  17
HETATM   17  C   UNK N   1      23.394  16.596   5.128  0.00  0.00     0.118 C 
BRANCH  17  18
HETATM   18  C   UNK N   1      23.699  15.134   5.497  0.00  0.00     0.066 C 
BRANCH  18  19
HETATM   19  C   UNK N   1      22.990  14.102   4.690  0.00  0.00    -0.056 A 
HETATM   20  C   UNK N   1      21.974  14.495   3.812  0.00  0.00     0.007 A 
HETATM   21  C   UNK N   1      21.244  13.536   3.108  0.00  0.00     0.001 A 
HETATM   22  C   UNK N   1      21.519  12.177   3.291  0.00  0.00     0.000 A 
HETATM   23  C   UNK N   1      22.525  11.781   4.178  0.00  0.00     0.001 A 
HETATM   24  C   UNK N   1      23.255  12.743   4.885  0.00  0.00     0.007 A 
ENDBRANCH  18  19
ENDBRANCH  17  18
BRANCH  17  25
HETATM   25  N   UNK N   1      22.538  17.261   6.108  0.00  0.00    -0.343 N 
HETATM   26  C   UNK N   1      21.748  18.259   5.916  0.00  0.00     0.258 C 
ATOM     27  HN  UNK N   1      22.570  16.891   7.058  1.00  0.00     0.164 HD
BRANCH  26  28
HETATM   28  O   UNK N   1      21.054  18.736   6.971  0.00  0.00    -0.327 OA
HETATM   29  H   UNK N   1      20.215  18.613   7.370  0.00  0.00     0.221 HD
ENDBRANCH  26  28
BRANCH  26  30
HETATM   30  O   UNK N   1      21.594  18.809   4.676  0.00  0.00    -0.309 OA
BRANCH  30  31
HETATM   31  C   UNK N   1      20.423  19.055   3.960  0.00  0.00     0.158 C 
HETATM   32  C   UNK N   1      20.078  18.060   2.881  0.00  0.00     0.061 C 
HETATM   33  C   UNK N   1      20.643  18.689   1.619  0.00  0.00     0.170 C 
HETATM   34  O   UNK N   1      21.222  19.926   1.951  0.00  0.00    -0.389 OA
HETATM   35  C   UNK N   1      20.589  20.306   3.143  0.00  0.00     0.200 C 
ENDBRANCH  30  31
ENDBRANCH  26  30
ENDBRANCH  17  25
ENDBRANCH  16  17
BRANCH  16  36
HETATM   36  O   UNK N   1      24.699  18.096   3.751  0.00  0.00    -0.393 OA
HETATM   37  H   UNK N   1      24.275  18.945   3.551  0.00  0.00     0.210 HD
ENDBRANCH  16  36
ENDBRANCH  15  16
ENDBRANCH   4  15
BRANCH   2  38
HETATM   38  C   UNK N   1      30.061  16.734   6.625  0.00  0.00     0.061 C 
HETATM   39  C   UNK N   1      31.422  16.926   6.062  0.00  0.00    -0.044 A 
HETATM   40  C   UNK N   1      31.888  16.558   4.796  0.00  0.00     0.008 A 
HETATM   41  C   UNK N   1      32.304  17.300   7.048  0.00  0.00    -0.049 A 
HETATM   42  C   UNK N   1      33.262  16.640   4.526  0.00  0.00     0.001 A 
HETATM   43  C   UNK N   1      34.156  17.040   5.535  0.00  0.00     0.001 A 
HETATM   44  C   UNK N   1      33.677  17.359   6.813  0.00  0.00     0.007 A 
HETATM   45  C   UNK N   1      31.638  17.503   8.358  0.00  0.00     0.071 C 
HETATM   46  C   UNK N   1      30.160  17.547   7.938  0.00  0.00     0.140 C 
BRANCH  46  47
HETATM   47  O   UNK N   1      29.316  16.985   8.929  0.00  0.00    -0.338 OA
BRANCH  47  48
HETATM   48  C   UNK N   1      28.656  17.951   9.725  0.00  0.00     0.361 C 
BRANCH  48  49
HETATM   49  N   UNK N   1      27.772  18.728   8.876  0.00  0.00    -0.385 N 
HETATM   50  H   UNK N   1      27.582  19.710   9.075  0.00  0.00     0.154 HD
HETATM   51  H   UNK N   1      27.332  18.285   8.069  0.00  0.00     0.154 HD
ENDBRANCH  48  49
BRANCH  48  52
HETATM   52  O   UNK N   1      29.611  18.800  10.281  0.00  0.00    -0.355 OA
HETATM   53  H   UNK N   1      29.734  18.896  11.239  0.00  0.00     0.214 HD
ENDBRANCH  48  52
ENDBRANCH  47  48
ENDBRANCH  46  47
ENDBRANCH   2  38
TORSDOF 17
ENDMDL
MODEL 2
REMARK VINA RESULT:      -7.5      3.714      6.486
REMARK  17 active torsions:
REMARK  status: ('A' for Active; 'I' for Inactive)
REMARK    1  A    between atoms: C_23  and  C_17 
REMARK    2  A    between atoms: C_29  and  C_17 
REMARK    3  A    between atoms: C_24  and  C_19 
REMARK    4  A    between atoms: C_36  and  C_19 
REMARK    5  A    between atoms: C_30  and  C_20 
REMARK    6  A    between atoms: C_36  and  C_20 
REMARK    7  A    between atoms: C_26  and  O_46 
REMARK    8  A    between atoms: C_28  and  C_32 
REMARK    9  A    between atoms: C_30  and  C_29 
REMARK   10  A    between atoms: C_29  and  N_39 
REMARK   11  A    between atoms: C_30  and  O_41 
REMARK   12  A    between atoms: C_31  and  O_47 
REMARK   13  A    between atoms: C_34  and  N_37 
REMARK   14  A    between atoms: O_43  and  C_34 
REMARK   15  A    between atoms: O_47  and  C_34 
REMARK   16  A    between atoms: C_35  and  O_44 
REMARK   17  A    between atoms: O_46  and  C_35 
ROOT
HETATM    1  C   UNK N   1      22.659  12.910   5.373  0.00  0.00     0.128 C 
HETATM    2  C   UNK N   1      23.225  14.221   4.836  0.00  0.00     0.086 C 
HETATM    3  C   UNK N   1      22.887  15.056   5.983  0.00  0.00     0.161 C 
HETATM    4  C   UNK N   1      21.552  14.696   6.503  0.00  0.00     0.093 C 
HETATM    5  N   UNK N   1      21.468  13.253   6.202  0.00  0.00    -0.405 N 
HETATM    6  O   UNK N   1      23.701  15.729   6.598  0.00  0.00    -0.295 OA
HETATM    7  H   UNK N   1      20.735  12.612   6.504  0.00  0.00     0.154 HD
ENDROOT
BRANCH   4   8
HETATM    8  C   UNK N   1      21.539  14.971   8.025  0.00  0.00     0.077 C 
BRANCH   8   9
HETATM    9  C   UNK N   1      21.738  13.867   9.023  0.00  0.00    -0.055 A 
HETATM   10  C   UNK N   1      20.684  13.461   9.852  0.00  0.00     0.007 A 
HETATM   11  C   UNK N   1      20.912  12.562  10.897  0.00  0.00     0.001 A 
HETATM   12  C   UNK N   1      22.204  12.088  11.142  0.00  0.00     0.000 A 
HETATM   13  C   UNK N   1      23.264  12.501  10.330  0.00  0.00     0.001 A 
HETATM   14  C   UNK N   1      23.033  13.394   9.275  0.00  0.00     0.007 A 
ENDBRANCH   8   9
ENDBRANCH   4   8
BRANCH   4  15
HETATM   15  C   UNK N   1      20.560  15.571   5.684  0.00  0.00     0.073 C 
BRANCH  15  16
HETATM   16  C   UNK N   1      19.633  14.921   4.629  0.00  0.00     0.144 C 
BRANCH  16  17
HETATM   17  C   UNK N   1      20.238  15.052   3.221  0.00  0.00     0.118 C 
BRANCH  17  18
HETATM   18  C   UNK N   1      20.196  13.665   2.557  0.00  0.00     0.066 C 
BRANCH  18  19
HETATM   19  C   UNK N   1      21.439  13.251   1.847  0.00  0.00    -0.056 A 
HETATM   20  C   UNK N   1      22.132  14.187   1.071  0.00  0.00     0.007 A 
HETATM   21  C   UNK N   1      23.252  13.797   0.335  0.00  0.00     0.001 A 
HETATM   22  C   UNK N   1      23.675  12.465   0.362  0.00  0.00     0.000 A 
HETATM   23  C   UNK N   1      22.977  11.525   1.126  0.00  0.00     0.001 A 
HETATM   24  C   UNK N   1      21.854  11.915   1.863  0.00  0.00     0.007 A 
ENDBRANCH  18  19
ENDBRANCH  17  18
BRANCH  17  25
HETATM   25  N   UNK N   1      19.594  16.087   2.415  0.00  0.00    -0.343 N 
HETATM   26  C   UNK N   1      19.984  17.300   2.232  0.00  0.00     0.258 C 
ATOM     27  HN  UNK N   1      18.733  15.816   1.941  1.00  0.00     0.164 HD
BRANCH  26  28
HETATM   28  O   UNK N   1      19.224  18.103   1.457  0.00  0.00    -0.327 OA
HETATM   29  H   UNK N   1      18.325  18.355   1.381  0.00  0.00     0.221 HD
ENDBRANCH  26  28
BRANCH  26  30
HETATM   30  O   UNK N   1      21.144  17.760   2.785  0.00  0.00    -0.309 OA
BRANCH  30  31
HETATM   31  C   UNK N   1      21.345  18.846   3.637  0.00  0.00     0.158 C 
HETATM   32  C   UNK N   1      20.384  19.998   3.487  0.00  0.00     0.061 C 
HETATM   33  C   UNK N   1      21.114  20.955   2.559  0.00  0.00     0.170 C 
HETATM   34  O   UNK N   1      22.369  20.409   2.243  0.00  0.00    -0.389 OA
HETATM   35  C   UNK N   1      22.644  19.519   3.291  0.00  0.00     0.200 C 
ENDBRANCH  30  31
ENDBRANCH  26  30
ENDBRANCH  17  25
ENDBRANCH  16  17
BRANCH  16  36
HETATM   36  O   UNK N   1      18.337  15.437   4.667  0.00  0.00    -0.393 OA
HETATM   37  H   UNK N   1      17.984  16.285   4.979  0.00  0.00     0.210 HD
ENDBRANCH  16  36
ENDBRANCH  15  16
ENDBRANCH   4  15
BRANCH   2  38
HETATM   38  C   UNK N   1      24.665  14.311   4.284  0.00  0.00     0.061 C 
HETATM   39  C   UNK N   1      25.330  13.179   3.586  0.00  0.00    -0.044 A 
HETATM   40  C   UNK N   1      25.357  11.833   3.964  0.00  0.00     0.008 A 
HETATM   41  C   UNK N   1      26.175  13.646   2.607  0.00  0.00    -0.049 A 
HETATM   42  C   UNK N   1      26.210  10.952   3.283  0.00  0.00     0.001 A 
HETATM   43  C   UNK N   1      27.059  11.434   2.271  0.00  0.00     0.001 A 
HETATM   44  C   UNK N   1      27.054  12.796   1.938  0.00  0.00     0.007 A 
HETATM   45  C   UNK N   1      26.109  15.121   2.456  0.00  0.00     0.071 C 
HETATM   46  C   UNK N   1      24.830  15.445   3.245  0.00  0.00     0.140 C 
BRANCH  46  47
HETATM   47  O   UNK N   1      24.920  16.700   3.897  0.00  0.00    -0.338 OA
BRANCH  47  48
HETATM   48  C   UNK N   1      26.223  17.009   4.355  0.00  0.00     0.361 C 
BRANCH  48  49
HETATM   49  N   UNK N   1      26.188  17.147   5.799  0.00  0.00    -0.385 N 
HETATM   50  H   UNK N   1      25.433  17.657   6.259  0.00  0.00     0.154 HD
HETATM   51  H   UNK N   1      26.927  16.729   6.363  0.00  0.00     0.154 HD
ENDBRANCH  48  49
BRANCH  48  52
HETATM   52  O   UNK N   1      26.618  18.222   3.792  0.00  0.00    -0.355 OA
HETATM   53  H   UNK N   1      26.002  18.955   3.641  0.00  0.00     0.214 HD
ENDBRANCH  48  52
ENDBRANCH  47  48
ENDBRANCH  46  47
ENDBRANCH   2  38
TORSDOF 17
ENDMDL
MODEL 3
REMARK VINA RESULT:      -7.4      4.533      7.757
REMARK  17 active torsions:
REMARK  status: ('A' for Active; 'I' for Inactive)
REMARK    1  A    between atoms: C_23  and  C_17 
REMARK    2  A    between atoms: C_29  and  C_17 
REMARK    3  A    between atoms: C_24  and  C_19 
REMARK    4  A    between atoms: C_36  and  C_19 
REMARK    5  A    between atoms: C_30  and  C_20 
REMARK    6  A    between atoms: C_36  and  C_20 
REMARK    7  A    between atoms: C_26  and  O_46 
REMARK    8  A    between atoms: C_28  and  C_32 
REMARK    9  A    between atoms: C_30  and  C_29 
REMARK   10  A    between atoms: C_29  and  N_39 
REMARK   11  A    between atoms: C_30  and  O_41 
REMARK   12  A    between atoms: C_31  and  O_47 
REMARK   13  A    between atoms: C_34  and  N_37 
REMARK   14  A    between atoms: O_43  and  C_34 
REMARK   15  A    between atoms: O_47  and  C_34 
REMARK   16  A    between atoms: C_35  and  O_44 
REMARK   17  A    between atoms: O_46  and  C_35 
ROOT
HETATM    1  C   UNK N   1      23.725  16.204   5.924  0.00  0.00     0.128 C 
HETATM    2  C   UNK N   1      22.525  16.943   5.338  0.00  0.00     0.086 C 
HETATM    3  C   UNK N   1      21.623  16.762   6.470  0.00  0.00     0.161 C 
HETATM    4  C   UNK N   1      21.768  15.403   7.029  0.00  0.00     0.093 C 
HETATM    5  N   UNK N   1      23.190  15.098   6.769  0.00  0.00    -0.405 N 
HETATM    6  O   UNK N   1      21.063  17.682   7.048  0.00  0.00    -0.295 OA
HETATM    7  H   UNK N   1      23.707  14.286   7.105  0.00  0.00     0.154 HD
ENDROOT
BRANCH   4   8
HETATM    8  C   UNK N   1      21.459  15.470   8.542  0.00  0.00     0.077 C 
BRANCH   8   9
HETATM    9  C   UNK N   1      21.668  14.285   9.439  0.00  0.00    -0.055 A 
HETATM   10  C   UNK N   1      22.898  13.615   9.455  0.00  0.00     0.007 A 
HETATM   11  C   UNK N   1      23.040  12.412  10.152  0.00  0.00     0.001 A 
HETATM   12  C   UNK N   1      21.942  11.852  10.809  0.00  0.00     0.000 A 
HETATM   13  C   UNK N   1      20.707  12.504  10.784  0.00  0.00     0.001 A 
HETATM   14  C   UNK N   1      20.568  13.716  10.095  0.00  0.00     0.007 A 
ENDBRANCH   8   9
ENDBRANCH   4   8
BRANCH   4  15
HETATM   15  C   UNK N   1      20.775  14.530   6.208  0.00  0.00     0.073 C 
BRANCH  15  16
HETATM   16  C   UNK N   1      21.100  13.046   5.913  0.00  0.00     0.144 C 
BRANCH  16  17
HETATM   17  C   UNK N   1      20.588  12.646   4.519  0.00  0.00     0.118 C 
BRANCH  17  18
HETATM   18  C   UNK N   1      21.704  11.857   3.813  0.00  0.00     0.066 C 
BRANCH  18  19
HETATM   19  C   UNK N   1      22.358  12.547   2.666  0.00  0.00    -0.056 A 
HETATM   20  C   UNK N   1      22.661  13.910   2.767  0.00  0.00     0.007 A 
HETATM   21  C   UNK N   1      23.200  14.591   1.674  0.00  0.00     0.001 A 
HETATM   22  C   UNK N   1      23.425  13.914   0.471  0.00  0.00     0.000 A 
HETATM   23  C   UNK N   1      23.111  12.556   0.365  0.00  0.00     0.001 A 
HETATM   24  C   UNK N   1      22.569  11.873   1.459  0.00  0.00     0.007 A 
ENDBRANCH  18  19
ENDBRANCH  17  18
BRANCH  17  25
HETATM   25  N   UNK N   1      19.320  11.922   4.561  0.00  0.00    -0.343 N 
HETATM   26  C   UNK N   1      18.310  12.054   3.773  0.00  0.00     0.258 C 
ATOM     27  HN  UNK N   1      19.223  11.229   5.302  1.00  0.00     0.164 HD
BRANCH  26  28
HETATM   28  O   UNK N   1      17.220  11.291   4.001  0.00  0.00    -0.327 OA
HETATM   29  H   UNK N   1      16.417  11.344   4.480  0.00  0.00     0.221 HD
ENDBRANCH  26  28
BRANCH  26  30
HETATM   30  O   UNK N   1      18.345  12.923   2.721  0.00  0.00    -0.309 OA
BRANCH  30  31
HETATM   31  C   UNK N   1      18.718  12.689   1.398  0.00  0.00     0.158 C 
HETATM   32  C   UNK N   1      19.415  13.824   0.690  0.00  0.00     0.061 C 
HETATM   33  C   UNK N   1      18.292  14.529  -0.050  0.00  0.00     0.170 C 
HETATM   34  O   UNK N   1      17.090  13.843   0.193  0.00  0.00    -0.389 OA
HETATM   35  C   UNK N   1      17.486  12.546   0.547  0.00  0.00     0.200 C 
ENDBRANCH  30  31
ENDBRANCH  26  30
ENDBRANCH  17  25
ENDBRANCH  16  17
BRANCH  16  36
HETATM   36  O   UNK N   1      20.605  12.186   6.894  0.00  0.00    -0.393 OA
HETATM   37  H   UNK N   1      19.848  12.255   7.496  0.00  0.00     0.210 HD
ENDBRANCH  16  36
ENDBRANCH  15  16
ENDBRANCH   4  15
BRANCH   2  38
HETATM   38  C   UNK N   1      22.664  18.366   4.753  0.00  0.00     0.061 C 
HETATM   39  C   UNK N   1      23.963  18.922   4.290  0.00  0.00    -0.044 A 
HETATM   40  C   UNK N   1      25.201  18.864   4.937  0.00  0.00     0.008 A 
HETATM   41  C   UNK N   1      23.774  19.764   3.220  0.00  0.00    -0.049 A 
HETATM   42  C   UNK N   1      26.266  19.626   4.437  0.00  0.00     0.001 A 
HETATM   43  C   UNK N   1      26.070  20.472   3.332  0.00  0.00     0.001 A 
HETATM   44  C   UNK N   1      24.809  20.555   2.725  0.00  0.00     0.007 A 
HETATM   45  C   UNK N   1      22.360  19.800   2.769  0.00  0.00     0.071 C 
HETATM   46  C   UNK N   1      21.782  18.576   3.498  0.00  0.00     0.140 C 
BRANCH  46  47
HETATM   47  O   UNK N   1      20.431  18.780   3.875  0.00  0.00    -0.338 OA
BRANCH  47  48
HETATM   48  C   UNK N   1      19.535  17.850   3.298  0.00  0.00     0.361 C 
BRANCH  48  49
HETATM   49  N   UNK N   1      20.291  16.924   2.477  0.00  0.00    -0.385 N 
HETATM   50  H   UNK N   1      21.309  16.886   2.529  0.00  0.00     0.154 HD
HETATM   51  H   UNK N   1      19.799  16.301   1.837  0.00  0.00     0.154 HD
ENDBRANCH  48  49
BRANCH  48  52
HETATM   52  O   UNK N   1      18.634  18.541   2.490  0.00  0.00    -0.355 OA
HETATM   53  H   UNK N   1      18.845  19.394   2.079  0.00  0.00     0.214 HD
ENDBRANCH  48  52
ENDBRANCH  47  48
ENDBRANCH  46  47
ENDBRANCH   2  38
TORSDOF 17
ENDMDL
MODEL 4
REMARK VINA RESULT:      -7.3      3.870      6.815
REMARK  17 active torsions:
REMARK  status: ('A' for Active; 'I' for Inactive)
REMARK    1  A    between atoms: C_23  and  C_17 
REMARK    2  A    between atoms: C_29  and  C_17 
REMARK    3  A    between atoms: C_24  and  C_19 
REMARK    4  A    between atoms: C_36  and  C_19 
REMARK    5  A    between atoms: C_30  and  C_20 
REMARK    6  A    between atoms: C_36  and  C_20 
REMARK    7  A    between atoms: C_26  and  O_46 
REMARK    8  A    between atoms: C_28  and  C_32 
REMARK    9  A    between atoms: C_30  and  C_29 
REMARK   10  A    between atoms: C_29  and  N_39 
REMARK   11  A    between atoms: C_30  and  O_41 
REMARK   12  A    between atoms: C_31  and  O_47 
REMARK   13  A    between atoms: C_34  and  N_37 
REMARK   14  A    between atoms: O_43  and  C_34 
REMARK   15  A    between atoms: O_47  and  C_34 
REMARK   16  A    between atoms: C_35  and  O_44 
REMARK   17  A    between atoms: O_46  and  C_35 
ROOT
HETATM    1  C   UNK N   1      24.450  15.058   7.146  0.00  0.00     0.128 C 
HETATM    2  C   UNK N   1      22.932  15.153   7.275  0.00  0.00     0.086 C 
HETATM    3  C   UNK N   1      22.628  15.253   5.853  0.00  0.00     0.161 C 
HETATM    4  C   UNK N   1      23.616  16.116   5.176  0.00  0.00     0.093 C 
HETATM    5  N   UNK N   1      24.842  15.883   5.966  0.00  0.00    -0.405 N 
HETATM    6  O   UNK N   1      21.862  14.501   5.267  0.00  0.00    -0.295 OA
HETATM    7  H   UNK N   1      25.778  16.221   5.747  0.00  0.00     0.154 HD
ENDROOT
BRANCH   4   8
HETATM    8  C   UNK N   1      23.766  15.623   3.718  0.00  0.00     0.077 C 
BRANCH   8   9
HETATM    9  C   UNK N   1      25.016  14.936   3.247  0.00  0.00    -0.055 A 
HETATM   10  C   UNK N   1      26.049  15.671   2.651  0.00  0.00     0.007 A 
HETATM   11  C   UNK N   1      27.130  15.017   2.055  0.00  0.00     0.001 A 
HETATM   12  C   UNK N   1      27.169  13.620   2.020  0.00  0.00     0.000 A 
HETATM   13  C   UNK N   1      26.135  12.880   2.598  0.00  0.00     0.001 A 
HETATM   14  C   UNK N   1      25.056  13.535   3.205  0.00  0.00     0.007 A 
ENDBRANCH   8   9
ENDBRANCH   4   8
BRANCH   4  15
HETATM   15  C   UNK N   1      23.042  17.556   5.311  0.00  0.00     0.073 C 
BRANCH  15  16
HETATM   16  C   UNK N   1      21.560  17.841   4.971  0.00  0.00     0.144 C 
BRANCH  16  17
HETATM   17  C   UNK N   1      21.393  18.131   3.470  0.00  0.00     0.118 C 
BRANCH  17  18
HETATM   18  C   UNK N   1      20.126  17.407   2.985  0.00  0.00     0.066 C 
BRANCH  18  19
HETATM   19  C   UNK N   1      20.325  16.014   2.495  0.00  0.00    -0.056 A 
HETATM   20  C   UNK N   1      21.254  15.770   1.476  0.00  0.00     0.007 A 
HETATM   21  C   UNK N   1      21.396  14.485   0.949  0.00  0.00     0.001 A 
HETATM   22  C   UNK N   1      20.599  13.442   1.430  0.00  0.00     0.000 A 
HETATM   23  C   UNK N   1      19.661  13.686   2.438  0.00  0.00     0.001 A 
HETATM   24  C   UNK N   1      19.518  14.974   2.966  0.00  0.00     0.007 A 
ENDBRANCH  18  19
ENDBRANCH  17  18
BRANCH  17  25
HETATM   25  N   UNK N   1      21.385  19.559   3.160  0.00  0.00    -0.343 N 
HETATM   26  C   UNK N   1      22.396  20.346   3.041  0.00  0.00     0.258 C 
ATOM     27  HN  UNK N   1      20.467  19.983   3.022  1.00  0.00     0.164 HD
BRANCH  26  28
HETATM   28  O   UNK N   1      22.162  21.647   2.767  0.00  0.00    -0.327 OA
HETATM   29  H   UNK N   1      21.428  22.210   2.618  0.00  0.00     0.221 HD
ENDBRANCH  26  28
BRANCH  26  30
HETATM   30  O   UNK N   1      23.673  19.879   3.165  0.00  0.00    -0.309 OA
BRANCH  30  31
HETATM   31  C   UNK N   1      24.796  20.514   3.692  0.00  0.00     0.158 C 
HETATM   32  C   UNK N   1      26.069  20.393   2.893  0.00  0.00     0.061 C 
HETATM   33  C   UNK N   1      26.785  19.216   3.534  0.00  0.00     0.170 C 
HETATM   34  O   UNK N   1      26.007  18.743   4.604  0.00  0.00    -0.389 OA
HETATM   35  C   UNK N   1      25.204  19.832   4.969  0.00  0.00     0.200 C 
ENDBRANCH  30  31
ENDBRANCH  26  30
ENDBRANCH  17  25
ENDBRANCH  16  17
BRANCH  16  36
HETATM   36  O   UNK N   1      21.024  18.872   5.743  0.00  0.00    -0.393 OA
HETATM   37  H   UNK N   1      21.265  19.225   6.614  0.00  0.00     0.210 HD
ENDBRANCH  16  36
ENDBRANCH  15  16
ENDBRANCH   4  15
BRANCH   2  38
HETATM   38  C   UNK N   1      22.130  14.131   8.111  0.00  0.00     0.061 C 
HETATM   39  C   UNK N   1      22.724  13.381   9.249  0.00  0.00    -0.044 A 
HETATM   40  C   UNK N   1      23.963  12.733   9.298  0.00  0.00     0.008 A 
HETATM   41  C   UNK N   1      21.781  13.158  10.224  0.00  0.00    -0.049 A 
HETATM   42  C   UNK N   1      24.255  11.906  10.392  0.00  0.00     0.001 A 
HETATM   43  C   UNK N   1      23.291  11.697  11.395  0.00  0.00     0.001 A 
HETATM   44  C   UNK N   1      22.037  12.316  11.305  0.00  0.00     0.007 A 
HETATM   45  C   UNK N   1      20.483  13.809   9.918  0.00  0.00     0.071 C 
HETATM   46  C   UNK N   1      20.887  14.763   8.782  0.00  0.00     0.140 C 
BRANCH  46  47
HETATM   47  O   UNK N   1      19.845  14.921   7.835  0.00  0.00    -0.338 OA
BRANCH  47  48
HETATM   48  C   UNK N   1      19.266  16.213   7.840  0.00  0.00     0.361 C 
BRANCH  48  49
HETATM   49  N   UNK N   1      20.251  17.162   8.325  0.00  0.00    -0.385 N 
HETATM   50  H   UNK N   1      21.005  17.490   7.721  0.00  0.00     0.154 HD
HETATM   51  H   UNK N   1      20.189  17.505   9.283  0.00  0.00     0.154 HD
ENDBRANCH  48  49
BRANCH  48  52
HETATM   52  O   UNK N   1      18.174  16.209   8.707  0.00  0.00    -0.355 OA
HETATM   53  H   UNK N   1      18.253  16.419   9.650  0.00  0.00     0.214 HD
ENDBRANCH  48  52
ENDBRANCH  47  48
ENDBRANCH  46  47
ENDBRANCH   2  38
TORSDOF 17
ENDMDL
MODEL 5
REMARK VINA RESULT:      -7.3      2.882      9.141
REMARK  17 active torsions:
REMARK  status: ('A' for Active; 'I' for Inactive)
REMARK    1  A    between atoms: C_23  and  C_17 
REMARK    2  A    between atoms: C_29  and  C_17 
REMARK    3  A    between atoms: C_24  and  C_19 
REMARK    4  A    between atoms: C_36  and  C_19 
REMARK    5  A    between atoms: C_30  and  C_20 
REMARK    6  A    between atoms: C_36  and  C_20 
REMARK    7  A    between atoms: C_26  and  O_46 
REMARK    8  A    between atoms: C_28  and  C_32 
REMARK    9  A    between atoms: C_30  and  C_29 
REMARK   10  A    between atoms: C_29  and  N_39 
REMARK   11  A    between atoms: C_30  and  O_41 
REMARK   12  A    between atoms: C_31  and  O_47 
REMARK   13  A    between atoms: C_34  and  N_37 
REMARK   14  A    between atoms: O_43  and  C_34 
REMARK   15  A    between atoms: O_47  and  C_34 
REMARK   16  A    between atoms: C_35  and  O_44 
REMARK   17  A    between atoms: O_46  and  C_35 
ROOT
HETATM    1  C   UNK N   1      22.138  13.850   3.110  0.00  0.00     0.128 C 
HETATM    2  C   UNK N   1      22.145  14.552   1.755  0.00  0.00     0.086 C 
HETATM    3  C   UNK N   1      23.502  14.190   1.363  0.00  0.00     0.161 C 
HETATM    4  C   UNK N   1      24.411  14.275   2.523  0.00  0.00     0.093 C 
HETATM    5  N   UNK N   1      23.525  13.930   3.653  0.00  0.00    -0.405 N 
HETATM    6  O   UNK N   1      23.778  13.616   0.319  0.00  0.00    -0.295 OA
HETATM    7  H   UNK N   1      23.807  13.775   4.620  0.00  0.00     0.154 HD
ENDROOT
BRANCH   4   8
HETATM    8  C   UNK N   1      25.535  13.231   2.331  0.00  0.00     0.077 C 
BRANCH   8   9
HETATM    9  C   UNK N   1      26.924  13.468   2.849  0.00  0.00    -0.055 A 
HETATM   10  C   UNK N   1      27.969  13.771   1.967  0.00  0.00     0.007 A 
HETATM   11  C   UNK N   1      29.290  13.818   2.422  0.00  0.00     0.001 A 
HETATM   12  C   UNK N   1      29.578  13.528   3.759  0.00  0.00     0.000 A 
HETATM   13  C   UNK N   1      28.543  13.209   4.642  0.00  0.00     0.001 A 
HETATM   14  C   UNK N   1      27.219  13.173   4.187  0.00  0.00     0.007 A 
ENDBRANCH   8   9
ENDBRANCH   4   8
BRANCH   4  15
HETATM   15  C   UNK N   1      24.902  15.752   2.534  0.00  0.00     0.073 C 
BRANCH  15  16
HETATM   16  C   UNK N   1      24.839  16.586   3.835  0.00  0.00     0.144 C 
BRANCH  16  17
HETATM   17  C   UNK N   1      25.899  17.701   3.816  0.00  0.00     0.118 C 
BRANCH  17  18
HETATM   18  C   UNK N   1      27.232  17.078   3.369  0.00  0.00     0.066 C 
BRANCH  18  19
HETATM   19  C   UNK N   1      28.300  17.020   4.407  0.00  0.00    -0.056 A 
HETATM   20  C   UNK N   1      29.630  17.249   4.038  0.00  0.00     0.007 A 
HETATM   21  C   UNK N   1      30.652  17.120   4.980  0.00  0.00     0.001 A 
HETATM   22  C   UNK N   1      30.347  16.748   6.293  0.00  0.00     0.000 A 
HETATM   23  C   UNK N   1      29.019  16.506   6.660  0.00  0.00     0.001 A 
HETATM   24  C   UNK N   1      27.996  16.634   5.716  0.00  0.00     0.007 A 
ENDBRANCH  18  19
ENDBRANCH  17  18
BRANCH  17  25
HETATM   25  N   UNK N   1      25.507  18.850   3.003  0.00  0.00    -0.343 N 
HETATM   26  C   UNK N   1      25.358  20.071   3.383  0.00  0.00     0.258 C 
ATOM     27  HN  UNK N   1      25.331  18.662   2.016  1.00  0.00     0.164 HD
BRANCH  26  28
HETATM   28  O   UNK N   1      24.971  20.981   2.464  0.00  0.00    -0.327 OA
HETATM   29  H   UNK N   1      25.363  21.526   1.811  0.00  0.00     0.221 HD
ENDBRANCH  26  28
BRANCH  26  30
HETATM   30  O   UNK N   1      25.607  20.444   4.672  0.00  0.00    -0.309 OA
BRANCH  30  31
HETATM   31  C   UNK N   1      26.695  21.143   5.193  0.00  0.00     0.158 C 
HETATM   32  C   UNK N   1      27.922  20.328   5.512  0.00  0.00     0.061 C 
HETATM   33  C   UNK N   1      27.775  20.021   6.992  0.00  0.00     0.170 C 
HETATM   34  O   UNK N   1      26.598  20.628   7.464  0.00  0.00    -0.389 OA
HETATM   35  C   UNK N   1      26.346  21.668   6.559  0.00  0.00     0.200 C 
ENDBRANCH  30  31
ENDBRANCH  26  30
ENDBRANCH  17  25
ENDBRANCH  16  17
BRANCH  16  36
HETATM   36  O   UNK N   1      24.961  15.799   4.980  0.00  0.00    -0.393 OA
HETATM   37  H   UNK N   1      25.163  14.858   5.104  0.00  0.00     0.210 HD
ENDBRANCH  16  36
ENDBRANCH  15  16
ENDBRANCH   4  15
BRANCH   2  38
HETATM   38  C   UNK N   1      21.016  14.325   0.725  0.00  0.00     0.061 C 
HETATM   39  C   UNK N   1      20.187  13.092   0.700  0.00  0.00    -0.044 A 
HETATM   40  C   UNK N   1      20.617  11.766   0.802  0.00  0.00     0.008 A 
HETATM   41  C   UNK N   1      18.905  13.381   0.295  0.00  0.00    -0.049 A 
HETATM   42  C   UNK N   1      19.702  10.733   0.550  0.00  0.00     0.001 A 
HETATM   43  C   UNK N   1      18.388  11.036   0.153  0.00  0.00     0.001 A 
HETATM   44  C   UNK N   1      17.987  12.372   0.009  0.00  0.00     0.007 A 
HETATM   45  C   UNK N   1      18.686  14.836   0.099  0.00  0.00     0.071 C 
HETATM   46  C   UNK N   1      19.925  15.421   0.794  0.00  0.00     0.140 C 
BRANCH  46  47
HETATM   47  O   UNK N   1      20.375  16.604   0.156  0.00  0.00    -0.338 OA
BRANCH  47  48
HETATM   48  C   UNK N   1      20.346  17.745   0.991  0.00  0.00     0.361 C 
BRANCH  48  49
HETATM   49  N   UNK N   1      19.090  17.759   1.717  0.00  0.00    -0.385 N 
HETATM   50  H   UNK N   1      18.615  18.637   1.926  0.00  0.00     0.154 HD
HETATM   51  H   UNK N   1      18.676  16.879   2.023  0.00  0.00     0.154 HD
ENDBRANCH  48  49
BRANCH  48  52
HETATM   52  O   UNK N   1      20.421  18.886   0.192  0.00  0.00    -0.355 OA
HETATM   53  H   UNK N   1      19.889  18.999  -0.611  0.00  0.00     0.214 HD
ENDBRANCH  48  52
ENDBRANCH  47  48
ENDBRANCH  46  47
ENDBRANCH   2  38
TORSDOF 17
ENDMDL
MODEL 6
REMARK VINA RESULT:      -7.1     11.910     14.647
REMARK  17 active torsions:
REMARK  status: ('A' for Active; 'I' for Inactive)
REMARK    1  A    between atoms: C_23  and  C_17 
REMARK    2  A    between atoms: C_29  and  C_17 
REMARK    3  A    between atoms: C_24  and  C_19 
REMARK    4  A    between atoms: C_36  and  C_19 
REMARK    5  A    between atoms: C_30  and  C_20 
REMARK    6  A    between atoms: C_36  and  C_20 
REMARK    7  A    between atoms: C_26  and  O_46 
REMARK    8  A    between atoms: C_28  and  C_32 
REMARK    9  A    between atoms: C_30  and  C_29 
REMARK   10  A    between atoms: C_29  and  N_39 
REMARK   11  A    between atoms: C_30  and  O_41 
REMARK   12  A    between atoms: C_31  and  O_47 
REMARK   13  A    between atoms: C_34  and  N_37 
REMARK   14  A    between atoms: O_43  and  C_34 
REMARK   15  A    between atoms: O_47  and  C_34 
REMARK   16  A    between atoms: C_35  and  O_44 
REMARK   17  A    between atoms: O_46  and  C_35 
ROOT
HETATM    1  C   UNK N   1      29.935  21.773  -3.105  0.00  0.00     0.128 C 
HETATM    2  C   UNK N   1      29.974  21.751  -4.630  0.00  0.00     0.086 C 
HETATM    3  C   UNK N   1      30.518  23.089  -4.824  0.00  0.00     0.161 C 
HETATM    4  C   UNK N   1      29.910  24.035  -3.866  0.00  0.00     0.093 C 
HETATM    5  N   UNK N   1      29.643  23.177  -2.694  0.00  0.00    -0.405 N 
HETATM    6  O   UNK N   1      31.532  23.325  -5.466  0.00  0.00    -0.295 OA
HETATM    7  H   UNK N   1      29.320  23.486  -1.777  0.00  0.00     0.154 HD
ENDROOT
BRANCH   4   8
HETATM    8  C   UNK N   1      30.950  25.136  -3.552  0.00  0.00     0.077 C 
BRANCH   8   9
HETATM    9  C   UNK N   1      30.796  26.533  -4.078  0.00  0.00    -0.055 A 
HETATM   10  C   UNK N   1      31.244  26.860  -5.364  0.00  0.00     0.007 A 
HETATM   11  C   UNK N   1      31.265  28.192  -5.789  0.00  0.00     0.001 A 
HETATM   12  C   UNK N   1      30.869  29.209  -4.918  0.00  0.00     0.000 A 
HETATM   13  C   UNK N   1      30.436  28.893  -3.627  0.00  0.00     0.001 A 
HETATM   14  C   UNK N   1      30.406  27.558  -3.205  0.00  0.00     0.007 A 
ENDBRANCH   8   9
ENDBRANCH   4   8
BRANCH   4  15
HETATM   15  C   UNK N   1      28.626  24.548  -4.579  0.00  0.00     0.073 C 
BRANCH  15  16
HETATM   16  C   UNK N   1      27.231  24.060  -4.122  0.00  0.00     0.144 C 
BRANCH  16  17
HETATM   17  C   UNK N   1      26.123  24.739  -4.944  0.00  0.00     0.118 C 
BRANCH  17  18
HETATM   18  C   UNK N   1      26.779  25.815  -5.825  0.00  0.00     0.066 C 
BRANCH  18  19
HETATM   19  C   UNK N   1      26.711  27.209  -5.302  0.00  0.00    -0.056 A 
HETATM   20  C   UNK N   1      27.375  28.233  -5.987  0.00  0.00     0.007 A 
HETATM   21  C   UNK N   1      27.390  29.529  -5.469  0.00  0.00     0.001 A 
HETATM   22  C   UNK N   1      26.752  29.802  -4.255  0.00  0.00     0.000 A 
HETATM   23  C   UNK N   1      26.099  28.777  -3.562  0.00  0.00     0.001 A 
HETATM   24  C   UNK N   1      26.086  27.478  -4.081  0.00  0.00     0.007 A 
ENDBRANCH  18  19
ENDBRANCH  17  18
BRANCH  17  25
HETATM   25  N   UNK N   1      25.317  23.791  -5.711  0.00  0.00    -0.343 N 
HETATM   26  C   UNK N   1      25.653  23.152  -6.777  0.00  0.00     0.258 C 
ATOM     27  HN  UNK N   1      24.375  23.615  -5.361  1.00  0.00     0.164 HD
BRANCH  26  28
HETATM   28  O   UNK N   1      24.742  22.331  -7.342  0.00  0.00    -0.327 OA
HETATM   29  H   UNK N   1      24.098  22.362  -8.022  0.00  0.00     0.221 HD
ENDBRANCH  26  28
BRANCH  26  30
HETATM   30  O   UNK N   1      26.902  23.279  -7.312  0.00  0.00    -0.309 OA
BRANCH  30  31
HETATM   31  C   UNK N   1      27.289  23.304  -8.651  0.00  0.00     0.158 C 
HETATM   32  C   UNK N   1      28.713  23.715  -8.928  0.00  0.00     0.061 C 
HETATM   33  C   UNK N   1      28.606  25.201  -9.227  0.00  0.00     0.170 C 
HETATM   34  O   UNK N   1      27.254  25.580  -9.154  0.00  0.00    -0.389 OA
HETATM   35  C   UNK N   1      26.540  24.393  -9.369  0.00  0.00     0.200 C 
ENDBRANCH  30  31
ENDBRANCH  26  30
ENDBRANCH  17  25
ENDBRANCH  16  17
BRANCH  16  36
HETATM   36  O   UNK N   1      27.023  24.243  -2.754  0.00  0.00    -0.393 OA
HETATM   37  H   UNK N   1      26.808  25.030  -2.229  0.00  0.00     0.210 HD
ENDBRANCH  16  36
ENDBRANCH  15  16
ENDBRANCH   4  15
BRANCH   2  38
HETATM   38  C   UNK N   1      30.636  20.588  -5.401  0.00  0.00     0.061 C 
HETATM   39  C   UNK N   1      30.411  20.353  -6.851  0.00  0.00    -0.044 A 
HETATM   40  C   UNK N   1      29.198  20.372  -7.546  0.00  0.00     0.008 A 
HETATM   41  C   UNK N   1      31.543  19.842  -7.439  0.00  0.00    -0.049 A 
HETATM   42  C   UNK N   1      29.167  19.923  -8.875  0.00  0.00     0.001 A 
HETATM   43  C   UNK N   1      30.334  19.417  -9.475  0.00  0.00     0.001 A 
HETATM   44  C   UNK N   1      31.532  19.362  -8.747  0.00  0.00     0.007 A 
HETATM   45  C   UNK N   1      32.687  19.766  -6.497  0.00  0.00     0.071 C 
HETATM   46  C   UNK N   1      32.182  20.645  -5.341  0.00  0.00     0.140 C 
BRANCH  46  47
HETATM   47  O   UNK N   1      32.643  20.177  -4.085  0.00  0.00    -0.338 OA
BRANCH  47  48
HETATM   48  C   UNK N   1      33.490  21.091  -3.416  0.00  0.00     0.361 C 
BRANCH  48  49
HETATM   49  N   UNK N   1      34.866  20.667  -3.594  0.00  0.00    -0.385 N 
HETATM   50  H   UNK N   1      35.627  21.346  -3.610  0.00  0.00     0.154 HD
HETATM   51  H   UNK N   1      35.076  19.675  -3.706  0.00  0.00     0.154 HD
ENDBRANCH  48  49
BRANCH  48  52
HETATM   52  O   UNK N   1      33.182  21.071  -2.056  0.00  0.00    -0.355 OA
HETATM   53  H   UNK N   1      33.634  20.491  -1.424  0.00  0.00     0.214 HD
ENDBRANCH  48  52
ENDBRANCH  47  48
ENDBRANCH  46  47
ENDBRANCH   2  38
TORSDOF 17
ENDMDL
MODEL 7
REMARK VINA RESULT:      -7.0      6.623     12.697
REMARK  17 active torsions:
REMARK  status: ('A' for Active; 'I' for Inactive)
REMARK    1  A    between atoms: C_23  and  C_17 
REMARK    2  A    between atoms: C_29  and  C_17 
REMARK    3  A    between atoms: C_24  and  C_19 
REMARK    4  A    between atoms: C_36  and  C_19 
REMARK    5  A    between atoms: C_30  and  C_20 
REMARK    6  A    between atoms: C_36  and  C_20 
REMARK    7  A    between atoms: C_26  and  O_46 
REMARK    8  A    between atoms: C_28  and  C_32 
REMARK    9  A    between atoms: C_30  and  C_29 
REMARK   10  A    between atoms: C_29  and  N_39 
REMARK   11  A    between atoms: C_30  and  O_41 
REMARK   12  A    between atoms: C_31  and  O_47 
REMARK   13  A    between atoms: C_34  and  N_37 
REMARK   14  A    between atoms: O_43  and  C_34 
REMARK   15  A    between atoms: O_47  and  C_34 
REMARK   16  A    between atoms: C_35  and  O_44 
REMARK   17  A    between atoms: O_46  and  C_35 
ROOT
HETATM    1  C   UNK N   1      32.261  14.287   8.164  0.00  0.00     0.128 C 
HETATM    2  C   UNK N   1      32.598  15.775   8.176  0.00  0.00     0.086 C 
HETATM    3  C   UNK N   1      34.041  15.642   8.008  0.00  0.00     0.161 C 
HETATM    4  C   UNK N   1      34.548  14.509   8.807  0.00  0.00     0.093 C 
HETATM    5  N   UNK N   1      33.406  13.573   8.799  0.00  0.00    -0.405 N 
HETATM    6  O   UNK N   1      34.674  16.187   7.115  0.00  0.00    -0.295 OA
HETATM    7  H   UNK N   1      33.402  12.618   9.157  0.00  0.00     0.154 HD
ENDROOT
BRANCH   4   8
HETATM    8  C   UNK N   1      35.781  13.923   8.081  0.00  0.00     0.077 C 
BRANCH   8   9
HETATM    9  C   UNK N   1      36.239  12.514   8.325  0.00  0.00    -0.055 A 
HETATM   10  C   UNK N   1      37.593  12.237   8.556  0.00  0.00     0.007 A 
HETATM   11  C   UNK N   1      38.047  10.916   8.607  0.00  0.00     0.001 A 
HETATM   12  C   UNK N   1      37.154   9.863   8.394  0.00  0.00     0.000 A 
HETATM   13  C   UNK N   1      35.805  10.130   8.147  0.00  0.00     0.001 A 
HETATM   14  C   UNK N   1      35.349  11.454   8.107  0.00  0.00     0.007 A 
ENDBRANCH   8   9
ENDBRANCH   4   8
BRANCH   4  15
HETATM   15  C   UNK N   1      34.855  15.118  10.205  0.00  0.00     0.073 C 
BRANCH  15  16
HETATM   16  C   UNK N   1      36.260  14.959  10.835  0.00  0.00     0.144 C 
BRANCH  16  17
HETATM   17  C   UNK N   1      36.180  14.146  12.139  0.00  0.00     0.118 C 
BRANCH  17  18
HETATM   18  C   UNK N   1      36.987  12.852  11.939  0.00  0.00     0.066 C 
BRANCH  18  19
HETATM   19  C   UNK N   1      36.195  11.590  11.933  0.00  0.00    -0.056 A 
HETATM   20  C   UNK N   1      36.850  10.367  12.115  0.00  0.00     0.007 A 
HETATM   21  C   UNK N   1      36.136   9.170  12.032  0.00  0.00     0.001 A 
HETATM   22  C   UNK N   1      34.766   9.192  11.752  0.00  0.00     0.000 A 
HETATM   23  C   UNK N   1      34.113  10.413  11.556  0.00  0.00     0.001 A 
HETATM   24  C   UNK N   1      34.828  11.612  11.638  0.00  0.00     0.007 A 
ENDBRANCH  18  19
ENDBRANCH  17  18
BRANCH  17  25
HETATM   25  N   UNK N   1      36.605  14.905  13.313  0.00  0.00    -0.343 N 
HETATM   26  C   UNK N   1      36.800  14.465  14.508  0.00  0.00     0.258 C 
ATOM     27  HN  UNK N   1      36.766  15.901  13.170  1.00  0.00     0.164 HD
BRANCH  26  28
HETATM   28  O   UNK N   1      37.177  15.347  15.458  0.00  0.00    -0.327 OA
HETATM   29  H   UNK N   1      37.420  16.250  15.517  0.00  0.00     0.221 HD
ENDBRANCH  26  28
BRANCH  26  30
HETATM   30  O   UNK N   1      36.653  13.141  14.805  0.00  0.00    -0.309 OA
BRANCH  30  31
HETATM   31  C   UNK N   1      36.000  12.547  15.885  0.00  0.00     0.158 C 
HETATM   32  C   UNK N   1      35.885  11.045  15.851  0.00  0.00     0.061 C 
HETATM   33  C   UNK N   1      34.509  10.803  15.253  0.00  0.00     0.170 C 
HETATM   34  O   UNK N   1      33.901  12.046  15.003  0.00  0.00    -0.389 OA
HETATM   35  C   UNK N   1      34.548  12.939  15.868  0.00  0.00     0.200 C 
ENDBRANCH  30  31
ENDBRANCH  26  30
ENDBRANCH  17  25
ENDBRANCH  16  17
BRANCH  16  36
HETATM   36  O   UNK N   1      36.891  16.185  11.047  0.00  0.00    -0.393 OA
HETATM   37  H   UNK N   1      36.871  16.806  11.792  0.00  0.00     0.210 HD
ENDBRANCH  16  36
ENDBRANCH  15  16
ENDBRANCH   4  15
BRANCH   2  38
HETATM   38  C   UNK N   1      31.858  16.776   7.260  0.00  0.00     0.061 C 
HETATM   39  C   UNK N   1      31.446  16.441   5.872  0.00  0.00    -0.044 A 
HETATM   40  C   UNK N   1      32.199  15.803   4.882  0.00  0.00     0.008 A 
HETATM   41  C   UNK N   1      30.269  17.076   5.552  0.00  0.00    -0.049 A 
HETATM   42  C   UNK N   1      31.704  15.761   3.571  0.00  0.00     0.001 A 
HETATM   43  C   UNK N   1      30.491  16.398   3.255  0.00  0.00     0.001 A 
HETATM   44  C   UNK N   1      29.772  17.075   4.250  0.00  0.00     0.007 A 
HETATM   45  C   UNK N   1      29.697  17.823   6.700  0.00  0.00     0.071 C 
HETATM   46  C   UNK N   1      30.516  17.250   7.868  0.00  0.00     0.140 C 
BRANCH  46  47
HETATM   47  O   UNK N   1      30.748  18.223   8.872  0.00  0.00    -0.338 OA
BRANCH  47  48
HETATM   48  C   UNK N   1      29.806  18.184   9.927  0.00  0.00     0.361 C 
BRANCH  48  49
HETATM   49  N   UNK N   1      29.648  16.808  10.359  0.00  0.00    -0.385 N 
HETATM   50  H   UNK N   1      30.459  16.235  10.591  0.00  0.00     0.154 HD
HETATM   51  H   UNK N   1      28.713  16.408  10.432  0.00  0.00     0.154 HD
ENDBRANCH  48  49
BRANCH  48  52
HETATM   52  O   UNK N   1      28.582  18.653   9.450  0.00  0.00    -0.355 OA
HETATM   53  H   UNK N   1      27.915  19.057  10.026  0.00  0.00     0.214 HD
ENDBRANCH  48  52
ENDBRANCH  47  48
ENDBRANCH  46  47
ENDBRANCH   2  38
TORSDOF 17
ENDMDL
MODEL 8
REMARK VINA RESULT:      -7.0      8.566     13.488
REMARK  17 active torsions:
REMARK  status: ('A' for Active; 'I' for Inactive)
REMARK    1  A    between atoms: C_23  and  C_17 
REMARK    2  A    between atoms: C_29  and  C_17 
REMARK    3  A    between atoms: C_24  and  C_19 
REMARK    4  A    between atoms: C_36  and  C_19 
REMARK    5  A    between atoms: C_30  and  C_20 
REMARK    6  A    between atoms: C_36  and  C_20 
REMARK    7  A    between atoms: C_26  and  O_46 
REMARK    8  A    between atoms: C_28  and  C_32 
REMARK    9  A    between atoms: C_30  and  C_29 
REMARK   10  A    between atoms: C_29  and  N_39 
REMARK   11  A    between atoms: C_30  and  O_41 
REMARK   12  A    between atoms: C_31  and  O_47 
REMARK   13  A    between atoms: C_34  and  N_37 
REMARK   14  A    between atoms: O_43  and  C_34 
REMARK   15  A    between atoms: O_47  and  C_34 
REMARK   16  A    between atoms: C_35  and  O_44 
REMARK   17  A    between atoms: O_46  and  C_35 
ROOT
HETATM    1  C   UNK N   1      33.539  13.086   7.446  0.00  0.00     0.128 C 
HETATM    2  C   UNK N   1      34.045  14.426   7.972  0.00  0.00     0.086 C 
HETATM    3  C   UNK N   1      35.375  13.981   8.371  0.00  0.00     0.161 C 
HETATM    4  C   UNK N   1      35.305  12.641   8.989  0.00  0.00     0.093 C 
HETATM    5  N   UNK N   1      34.165  12.021   8.282  0.00  0.00    -0.405 N 
HETATM    6  O   UNK N   1      36.412  14.499   7.981  0.00  0.00    -0.295 OA
HETATM    7  H   UNK N   1      33.865  11.049   8.352  0.00  0.00     0.154 HD
ENDROOT
BRANCH   4   8
HETATM    8  C   UNK N   1      36.634  11.907   8.698  0.00  0.00     0.077 C 
BRANCH   8   9
HETATM    9  C   UNK N   1      36.773  10.426   8.902  0.00  0.00    -0.055 A 
HETATM   10  C   UNK N   1      35.658   9.586   8.789  0.00  0.00     0.007 A 
HETATM   11  C   UNK N   1      35.747   8.238   9.151  0.00  0.00     0.001 A 
HETATM   12  C   UNK N   1      36.945   7.730   9.661  0.00  0.00     0.000 A 
HETATM   13  C   UNK N   1      38.057   8.565   9.792  0.00  0.00     0.001 A 
HETATM   14  C   UNK N   1      37.971   9.913   9.419  0.00  0.00     0.007 A 
ENDBRANCH   8   9
ENDBRANCH   4   8
BRANCH   4  15
HETATM   15  C   UNK N   1      35.038  12.914  10.497  0.00  0.00     0.073 C 
BRANCH  15  16
HETATM   16  C   UNK N   1      36.032  13.765  11.324  0.00  0.00     0.144 C 
BRANCH  16  17
HETATM   17  C   UNK N   1      36.367  13.068  12.653  0.00  0.00     0.118 C 
BRANCH  17  18
HETATM   18  C   UNK N   1      37.305  11.889  12.346  0.00  0.00     0.066 C 
BRANCH  18  19
HETATM   19  C   UNK N   1      36.807  10.543  12.748  0.00  0.00    -0.056 A 
HETATM   20  C   UNK N   1      37.669   9.661  13.410  0.00  0.00     0.007 A 
HETATM   21  C   UNK N   1      37.244   8.369  13.723  0.00  0.00     0.001 A 
HETATM   22  C   UNK N   1      35.960   7.949  13.362  0.00  0.00     0.000 A 
HETATM   23  C   UNK N   1      35.102   8.825  12.689  0.00  0.00     0.001 A 
HETATM   24  C   UNK N   1      35.528  10.120  12.374  0.00  0.00     0.007 A 
ENDBRANCH  18  19
ENDBRANCH  17  18
BRANCH  17  25
HETATM   25  N   UNK N   1      36.911  13.980  13.657  0.00  0.00    -0.343 N 
HETATM   26  C   UNK N   1      37.086  13.756  14.913  0.00  0.00     0.258 C 
ATOM     27  HN  UNK N   1      37.185  14.904  13.323  1.00  0.00     0.164 HD
BRANCH  26  28
HETATM   28  O   UNK N   1      37.591  14.752  15.673  0.00  0.00    -0.327 OA
HETATM   29  H   UNK N   1      38.420  15.012  16.023  0.00  0.00     0.221 HD
ENDBRANCH  26  28
BRANCH  26  30
HETATM   30  O   UNK N   1      36.793  12.542  15.461  0.00  0.00    -0.309 OA
BRANCH  30  31
HETATM   31  C   UNK N   1      35.785  12.202  16.363  0.00  0.00     0.158 C 
HETATM   32  C   UNK N   1      35.278  10.784  16.295  0.00  0.00     0.061 C 
HETATM   33  C   UNK N   1      34.053  10.882  15.401  0.00  0.00     0.170 C 
HETATM   34  O   UNK N   1      33.873  12.225  15.028  0.00  0.00    -0.389 OA
HETATM   35  C   UNK N   1      34.532  12.962  16.022  0.00  0.00     0.200 C 
ENDBRANCH  30  31
ENDBRANCH  26  30
ENDBRANCH  17  25
ENDBRANCH  16  17
BRANCH  16  36
HETATM   36  O   UNK N   1      35.569  15.063  11.542  0.00  0.00    -0.393 OA
HETATM   37  H   UNK N   1      36.027  15.886  11.774  0.00  0.00     0.210 HD
ENDBRANCH  16  36
ENDBRANCH  15  16
ENDBRANCH   4  15
BRANCH   2  38
HETATM   38  C   UNK N   1      33.944  15.713   7.125  0.00  0.00     0.061 C 
HETATM   39  C   UNK N   1      33.642  15.696   5.670  0.00  0.00    -0.044 A 
HETATM   40  C   UNK N   1      34.196  14.869   4.688  0.00  0.00     0.008 A 
HETATM   41  C   UNK N   1      32.907  16.802   5.316  0.00  0.00    -0.049 A 
HETATM   42  C   UNK N   1      33.933  15.145   3.338  0.00  0.00     0.001 A 
HETATM   43  C   UNK N   1      33.165  16.269   2.985  0.00  0.00     0.001 A 
HETATM   44  C   UNK N   1      32.658  17.115   3.981  0.00  0.00     0.007 A 
HETATM   45  C   UNK N   1      32.538  17.637   6.487  0.00  0.00     0.071 C 
HETATM   46  C   UNK N   1      32.853  16.679   7.648  0.00  0.00     0.140 C 
BRANCH  46  47
HETATM   47  O   UNK N   1      33.320  17.376   8.790  0.00  0.00    -0.338 OA
BRANCH  47  48
HETATM   48  C   UNK N   1      34.705  17.661   8.754  0.00  0.00     0.361 C 
BRANCH  48  49
HETATM   49  N   UNK N   1      35.261  17.440  10.076  0.00  0.00    -0.385 N 
HETATM   50  H   UNK N   1      35.991  16.745  10.228  0.00  0.00     0.154 HD
HETATM   51  H   UNK N   1      34.916  17.987  10.864  0.00  0.00     0.154 HD
ENDBRANCH  48  49
BRANCH  48  52
HETATM   52  O   UNK N   1      34.876  19.001   8.408  0.00  0.00    -0.355 OA
HETATM   53  H   UNK N   1      34.864  19.717   9.063  0.00  0.00     0.214 HD
ENDBRANCH  48  52
ENDBRANCH  47  48
ENDBRANCH  46  47
ENDBRANCH   2  38
TORSDOF 17
ENDMDL
MODEL 9
REMARK VINA RESULT:      -6.8      5.360     11.641
REMARK  17 active torsions:
REMARK  status: ('A' for Active; 'I' for Inactive)
REMARK    1  A    between atoms: C_23  and  C_17 
REMARK    2  A    between atoms: C_29  and  C_17 
REMARK    3  A    between atoms: C_24  and  C_19 
REMARK    4  A    between atoms: C_36  and  C_19 
REMARK    5  A    between atoms: C_30  and  C_20 
REMARK    6  A    between atoms: C_36  and  C_20 
REMARK    7  A    between atoms: C_26  and  O_46 
REMARK    8  A    between atoms: C_28  and  C_32 
REMARK    9  A    between atoms: C_30  and  C_29 
REMARK   10  A    between atoms: C_29  and  N_39 
REMARK   11  A    between atoms: C_30  and  O_41 
REMARK   12  A    between atoms: C_31  and  O_47 
REMARK   13  A    between atoms: C_34  and  N_37 
REMARK   14  A    between atoms: O_43  and  C_34 
REMARK   15  A    between atoms: O_47  and  C_34 
REMARK   16  A    between atoms: C_35  and  O_44 
REMARK   17  A    between atoms: O_46  and  C_35 
ROOT
HETATM    1  C   UNK N   1      31.593  14.893   7.218  0.00  0.00     0.128 C 
HETATM    2  C   UNK N   1      31.552  16.409   7.392  0.00  0.00     0.086 C 
HETATM    3  C   UNK N   1      32.971  16.661   7.171  0.00  0.00     0.161 C 
HETATM    4  C   UNK N   1      33.786  15.615   7.820  0.00  0.00     0.093 C 
HETATM    5  N   UNK N   1      32.912  14.427   7.734  0.00  0.00    -0.405 N 
HETATM    6  O   UNK N   1      33.401  17.438   6.330  0.00  0.00    -0.295 OA
HETATM    7  H   UNK N   1      33.164  13.470   7.981  0.00  0.00     0.154 HD
ENDROOT
BRANCH   4   8
HETATM    8  C   UNK N   1      35.084  15.438   6.999  0.00  0.00     0.077 C 
BRANCH   8   9
HETATM    9  C   UNK N   1      35.195  14.398   5.922  0.00  0.00    -0.055 A 
HETATM   10  C   UNK N   1      34.574  14.591   4.681  0.00  0.00     0.007 A 
HETATM   11  C   UNK N   1      34.525  13.555   3.745  0.00  0.00     0.001 A 
HETATM   12  C   UNK N   1      35.069  12.306   4.056  0.00  0.00     0.000 A 
HETATM   13  C   UNK N   1      35.676  12.100   5.298  0.00  0.00     0.001 A 
HETATM   14  C   UNK N   1      35.734  13.142   6.232  0.00  0.00     0.007 A 
ENDBRANCH   8   9
ENDBRANCH   4   8
BRANCH   4  15
HETATM   15  C   UNK N   1      34.010  16.131   9.271  0.00  0.00     0.073 C 
BRANCH  15  16
HETATM   16  C   UNK N   1      35.435  16.181   9.872  0.00  0.00     0.144 C 
BRANCH  16  17
HETATM   17  C   UNK N   1      35.693  14.950  10.757  0.00  0.00     0.118 C 
BRANCH  17  18
HETATM   18  C   UNK N   1      36.480  13.924   9.924  0.00  0.00     0.066 C 
BRANCH  18  19
HETATM   19  C   UNK N   1      35.833  12.592   9.759  0.00  0.00    -0.056 A 
HETATM   20  C   UNK N   1      36.618  11.483   9.423  0.00  0.00     0.007 A 
HETATM   21  C   UNK N   1      36.019  10.245   9.186  0.00  0.00     0.001 A 
HETATM   22  C   UNK N   1      34.630  10.115   9.270  0.00  0.00     0.000 A 
HETATM   23  C   UNK N   1      33.842  11.224   9.593  0.00  0.00     0.001 A 
HETATM   24  C   UNK N   1      34.442  12.465   9.830  0.00  0.00     0.007 A 
ENDBRANCH  18  19
ENDBRANCH  17  18
BRANCH  17  25
HETATM   25  N   UNK N   1      36.350  15.281  12.020  0.00  0.00    -0.343 N 
HETATM   26  C   UNK N   1      36.151  14.749  13.175  0.00  0.00     0.258 C 
ATOM     27  HN  UNK N   1      37.050  16.021  11.981  1.00  0.00     0.164 HD
BRANCH  26  28
HETATM   28  O   UNK N   1      36.859  15.219  14.224  0.00  0.00    -0.327 OA
HETATM   29  H   UNK N   1      37.756  15.364  14.454  0.00  0.00     0.221 HD
ENDBRANCH  26  28
BRANCH  26  30
HETATM   30  O   UNK N   1      35.266  13.722  13.337  0.00  0.00    -0.309 OA
BRANCH  30  31
HETATM   31  C   UNK N   1      35.333  12.630  14.201  0.00  0.00     0.158 C 
HETATM   32  C   UNK N   1      36.649  11.896  14.252  0.00  0.00     0.061 C 
HETATM   33  C   UNK N   1      36.458  10.749  13.274  0.00  0.00     0.170 C 
HETATM   34  O   UNK N   1      35.156  10.814  12.750  0.00  0.00    -0.389 OA
HETATM   35  C   UNK N   1      34.425  11.540  13.701  0.00  0.00     0.200 C 
ENDBRANCH  30  31
ENDBRANCH  26  30
ENDBRANCH  17  25
ENDBRANCH  16  17
BRANCH  16  36
HETATM   36  O   UNK N   1      35.677  17.362  10.573  0.00  0.00    -0.393 OA
HETATM   37  H   UNK N   1      35.769  18.283  10.283  0.00  0.00     0.210 HD
ENDBRANCH  16  36
ENDBRANCH  15  16
ENDBRANCH   4  15
BRANCH   2  38
HETATM   38  C   UNK N   1      30.539  17.281   6.618  0.00  0.00     0.061 C 
HETATM   39  C   UNK N   1      29.959  16.871   5.312  0.00  0.00    -0.044 A 
HETATM   40  C   UNK N   1      30.626  16.333   4.207  0.00  0.00     0.008 A 
HETATM   41  C   UNK N   1      28.668  17.328   5.193  0.00  0.00    -0.049 A 
HETATM   42  C   UNK N   1      29.936  16.203   2.993  0.00  0.00     0.001 A 
HETATM   43  C   UNK N   1      28.610  16.657   2.884  0.00  0.00     0.001 A 
HETATM   44  C   UNK N   1      27.972  17.239   3.989  0.00  0.00     0.007 A 
HETATM   45  C   UNK N   1      28.188  18.002   6.425  0.00  0.00     0.071 C 
HETATM   46  C   UNK N   1      29.259  17.568   7.439  0.00  0.00     0.140 C 
BRANCH  46  47
HETATM   47  O   UNK N   1      29.509  18.578   8.402  0.00  0.00    -0.338 OA
BRANCH  47  48
HETATM   48  C   UNK N   1      28.930  18.312   9.665  0.00  0.00     0.361 C 
BRANCH  48  49
HETATM   49  N   UNK N   1      29.589  17.157  10.246  0.00  0.00    -0.385 N 
HETATM   50  H   UNK N   1      29.108  16.260  10.316  0.00  0.00     0.154 HD
HETATM   51  H   UNK N   1      30.545  17.242  10.588  0.00  0.00     0.154 HD
ENDBRANCH  48  49
BRANCH  48  52
HETATM   52  O   UNK N   1      27.579  18.021   9.484  0.00  0.00    -0.355 OA
HETATM   53  H   UNK N   1      27.012  18.517   8.873  0.00  0.00     0.214 HD
ENDBRANCH  48  52
ENDBRANCH  47  48
ENDBRANCH  46  47
ENDBRANCH   2  38
TORSDOF 17
ENDMDL
