REMARK  4 active torsions:
REMARK  status: ('A' for Active; 'I' for Inactive)
REMARK    1  A    between atoms: O_1  and  Hg_2 
REMARK    2  A    between atoms: Hg_2  and  C_3 
REMARK    3  A    between atoms: C_6  and  C_9 
REMARK    4  A    between atoms: C_9  and  O_10 
ROOT
HETATM    1  C   UNK N   1       0.781  -0.892  -0.000  0.00  0.00    -0.048 A 
HETATM    2  C   UNK N   1      -0.472  -0.268   0.000  0.00  0.00     0.006 A 
HETATM    3  C   UNK N   1      -0.552   1.131   0.000  0.00  0.00     0.018 A 
HETATM    4  C   UNK N   1       0.618   1.906  -0.000  0.00  0.00     0.037 A 
HETATM    5  C   UNK N   1       1.866   1.268  -0.000  0.00  0.00     0.018 A 
HETATM    6  C   UNK N   1       1.944  -0.123  -0.000  0.00  0.00     0.006 A 
ENDROOT
BRANCH   4   7
HETATM    7  C   UNK N   1       0.549   3.381  -0.000  0.00  0.00     0.176 C 
HETATM    8  O   UNK N   1       1.571   4.046  -0.000  0.00  0.00    -0.646 OA
BRANCH   7   9
HETATM    9  O   UNK N   1      -0.647   4.004   0.000  0.00  0.00    -0.773 OA
HETATM   10  H   UNK N   1      -0.688   4.940   0.000  0.00  0.00     0.167 HD
ENDBRANCH   7   9
ENDBRANCH   4   7
BRANCH   1  11
HETATM   11 Hg   UNK N   1       1.003  -2.942   0.000  0.00  0.00     0.237 Hg
BRANCH  11  12
HETATM   12  O   UNK N   1       1.535  -4.853   0.000  0.00  0.00    -0.406 OA
HETATM   13  H   UNK N   1       0.856  -5.546   0.000  0.00  0.00     0.206 HD
ENDBRANCH  11  12
ENDBRANCH   1  11
TORSDOF 4
