MODEL 1
REMARK VINA RESULT:      -5.9      0.000      0.000
REMARK  5 active torsions:
REMARK  status: ('A' for Active; 'I' for Inactive)
REMARK    1  A    between atoms: O_1  and  C_2 
REMARK    2  A    between atoms: C_3  and  C_2 
REMARK    3  A    between atoms: C_5  and  N_10 
REMARK    4  A    between atoms: C_6  and  O_7 
REMARK    5  A    between atoms: C_8  and  O_9 
ROOT
HETATM    1  C   UNK N   1      33.194  16.309   9.397  0.00  0.00     0.179 C 
HETATM    2  O   UNK N   1      32.103  16.249   8.506  0.00  0.00    -0.353 OA
HETATM    3  C   UNK N   1      32.600  16.755   7.293  0.00  0.00     0.264 C 
HETATM    4  C   UNK N   1      33.654  17.773   7.648  0.00  0.00     0.198 C 
HETATM    5  C   UNK N   1      34.366  16.929   8.650  0.00  0.00     0.182 C 
ENDROOT
BRANCH   3   6
HETATM    6  N   UNK N   1      31.506  17.128   6.381  0.00  0.00    -0.277 N 
HETATM    7  C   UNK N   1      30.292  17.302   6.970  0.00  0.00     0.146 A 
HETATM    8  C   UNK N   1      29.166  17.621   6.226  0.00  0.00     0.199 A 
HETATM    9  F   UNK N   1      27.968  17.783   6.841  0.00  0.00    -0.199 F 
HETATM   10  C   UNK N   1      29.292  17.760   4.848  0.00  0.00     0.289 A 
HETATM   11  O   UNK N   1      28.318  18.029   4.167  0.00  0.00    -0.265 OA
HETATM   12  N   UNK N   1      30.514  17.595   4.258  0.00  0.00    -0.273 N 
HETATM   13  C   UNK N   1      31.624  17.282   5.004  0.00  0.00     0.331 A 
HETATM   14  H   UNK N   1      30.600  17.701   3.284  0.00  0.00     0.173 HD
HETATM   15  O   UNK N   1      32.694  17.146   4.444  0.00  0.00    -0.246 OA
ENDBRANCH   3   6
BRANCH   4  16
HETATM   16  O   UNK N   1      34.483  18.047   6.560  0.00  0.00    -0.388 OA
HETATM   17  H   UNK N   1      34.369  18.381   5.656  0.00  0.00     0.210 HD
ENDBRANCH   4  16
BRANCH   1  18
HETATM   18  C   UNK N   1      33.534  14.903   9.869  0.00  0.00     0.198 C 
BRANCH  18  19
HETATM   19  O   UNK N   1      33.391  14.801  11.252  0.00  0.00    -0.398 OA
HETATM   20  H   UNK N   1      32.544  14.977  11.690  0.00  0.00     0.209 HD
ENDBRANCH  18  19
ENDBRANCH   1  18
BRANCH   5  21
HETATM   21  O   UNK N   1      35.184  17.685   9.489  0.00  0.00    -0.390 OA
HETATM   22  H   UNK N   1      34.952  18.057  10.354  0.00  0.00     0.210 HD
ENDBRANCH   5  21
TORSDOF 5
ENDMDL
MODEL 2
REMARK VINA RESULT:      -5.9      3.510      5.191
REMARK  5 active torsions:
REMARK  status: ('A' for Active; 'I' for Inactive)
REMARK    1  A    between atoms: O_1  and  C_2 
REMARK    2  A    between atoms: C_3  and  C_2 
REMARK    3  A    between atoms: C_5  and  N_10 
REMARK    4  A    between atoms: C_6  and  O_7 
REMARK    5  A    between atoms: C_8  and  O_9 
ROOT
HETATM    1  C   UNK N   1      36.228  12.867  10.248  0.00  0.00     0.179 C 
HETATM    2  O   UNK N   1      36.224  13.844   9.232  0.00  0.00    -0.353 OA
HETATM    3  C   UNK N   1      35.317  14.821   9.675  0.00  0.00     0.264 C 
HETATM    4  C   UNK N   1      34.272  14.104  10.492  0.00  0.00     0.198 C 
HETATM    5  C   UNK N   1      35.227  13.301  11.309  0.00  0.00     0.182 C 
ENDROOT
BRANCH   3   6
HETATM    6  N   UNK N   1      34.899  15.703   8.572  0.00  0.00    -0.277 N 
HETATM    7  C   UNK N   1      34.861  15.119   7.344  0.00  0.00     0.146 A 
HETATM    8  C   UNK N   1      34.518  15.841   6.210  0.00  0.00     0.199 A 
HETATM    9  F   UNK N   1      34.495  15.232   4.999  0.00  0.00    -0.199 F 
HETATM   10  C   UNK N   1      34.212  17.190   6.343  0.00  0.00     0.289 A 
HETATM   11  O   UNK N   1      33.918  17.853   5.364  0.00  0.00    -0.265 OA
HETATM   12  N   UNK N   1      34.241  17.774   7.579  0.00  0.00    -0.273 N 
HETATM   13  C   UNK N   1      34.579  17.050   8.696  0.00  0.00     0.331 A 
HETATM   14  H   UNK N   1      34.016  18.728   7.670  0.00  0.00     0.173 HD
HETATM   15  O   UNK N   1      34.591  17.604   9.779  0.00  0.00    -0.246 OA
ENDBRANCH   3   6
BRANCH   4  16
HETATM   16  O   UNK N   1      33.561  14.991  11.300  0.00  0.00    -0.388 OA
HETATM   17  H   UNK N   1      32.627  15.174  11.491  0.00  0.00     0.210 HD
ENDBRANCH   4  16
BRANCH   1  18
HETATM   18  C   UNK N   1      37.628  12.759  10.835  0.00  0.00     0.198 C 
BRANCH  18  19
HETATM   19  O   UNK N   1      37.640  13.193  12.159  0.00  0.00    -0.398 OA
HETATM   20  H   UNK N   1      36.909  12.998  12.765  0.00  0.00     0.209 HD
ENDBRANCH  18  19
ENDBRANCH   1  18
BRANCH   5  21
HETATM   21  O   UNK N   1      34.607  12.213  11.924  0.00  0.00    -0.390 OA
HETATM   22  H   UNK N   1      34.446  11.337  11.541  0.00  0.00     0.210 HD
ENDBRANCH   5  21
TORSDOF 5
ENDMDL
MODEL 3
REMARK VINA RESULT:      -5.9     10.081     12.281
REMARK  5 active torsions:
REMARK  status: ('A' for Active; 'I' for Inactive)
REMARK    1  A    between atoms: O_1  and  C_2 
REMARK    2  A    between atoms: C_3  and  C_2 
REMARK    3  A    between atoms: C_5  and  N_10 
REMARK    4  A    between atoms: C_6  and  O_7 
REMARK    5  A    between atoms: C_8  and  O_9 
ROOT
HETATM    1  C   UNK N   1      22.891  19.809   3.609  0.00  0.00     0.179 C 
HETATM    2  O   UNK N   1      22.443  18.500   3.884  0.00  0.00    -0.353 OA
HETATM    3  C   UNK N   1      21.379  18.289   2.991  0.00  0.00     0.264 C 
HETATM    4  C   UNK N   1      20.729  19.630   2.766  0.00  0.00     0.198 C 
HETATM    5  C   UNK N   1      21.992  20.385   2.524  0.00  0.00     0.182 C 
ENDROOT
BRANCH   3   6
HETATM    6  N   UNK N   1      20.554  17.141   3.405  0.00  0.00    -0.277 N 
HETATM    7  C   UNK N   1      20.366  17.015   4.747  0.00  0.00     0.146 A 
HETATM    8  C   UNK N   1      19.639  15.960   5.279  0.00  0.00     0.199 A 
HETATM    9  F   UNK N   1      19.474  15.857   6.621  0.00  0.00    -0.199 F 
HETATM   10  C   UNK N   1      19.097  15.016   4.413  0.00  0.00     0.289 A 
HETATM   11  O   UNK N   1      18.463  14.073   4.852  0.00  0.00    -0.265 OA
HETATM   12  N   UNK N   1      19.278  15.150   3.065  0.00  0.00    -0.273 N 
HETATM   13  C   UNK N   1      19.997  16.200   2.547  0.00  0.00     0.331 A 
HETATM   14  H   UNK N   1      18.887  14.485   2.454  0.00  0.00     0.173 HD
HETATM   15  O   UNK N   1      20.133  16.286   1.342  0.00  0.00    -0.246 OA
ENDBRANCH   3   6
BRANCH   4  16
HETATM   16  O   UNK N   1      19.934  19.625   1.619  0.00  0.00    -0.388 OA
HETATM   17  H   UNK N   1      20.071  19.762   0.668  0.00  0.00     0.210 HD
ENDBRANCH   4  16
BRANCH   1  18
HETATM   18  C   UNK N   1      24.339  19.757   3.144  0.00  0.00     0.198 C 
BRANCH  18  19
HETATM   19  O   UNK N   1      24.607  20.796   2.255  0.00  0.00    -0.398 OA
HETATM   20  H   UNK N   1      24.578  21.724   2.535  0.00  0.00     0.209 HD
ENDBRANCH  18  19
ENDBRANCH   1  18
BRANCH   5  21
HETATM   21  O   UNK N   1      21.818  21.762   2.662  0.00  0.00    -0.390 OA
HETATM   22  H   UNK N   1      20.980  22.251   2.650  0.00  0.00     0.210 HD
ENDBRANCH   5  21
TORSDOF 5
ENDMDL
MODEL 4
REMARK VINA RESULT:      -5.8      3.335      4.018
REMARK  5 active torsions:
REMARK  status: ('A' for Active; 'I' for Inactive)
REMARK    1  A    between atoms: O_1  and  C_2 
REMARK    2  A    between atoms: C_3  and  C_2 
REMARK    3  A    between atoms: C_5  and  N_10 
REMARK    4  A    between atoms: C_6  and  O_7 
REMARK    5  A    between atoms: C_8  and  O_9 
ROOT
HETATM    1  C   UNK N   1      35.428  14.570   9.606  0.00  0.00     0.179 C 
HETATM    2  O   UNK N   1      35.454  14.766   8.210  0.00  0.00    -0.353 OA
HETATM    3  C   UNK N   1      34.540  15.807   7.975  0.00  0.00     0.264 C 
HETATM    4  C   UNK N   1      33.472  15.692   9.033  0.00  0.00     0.198 C 
HETATM    5  C   UNK N   1      34.402  15.531  10.187  0.00  0.00     0.182 C 
ENDROOT
BRANCH   3   6
HETATM    6  N   UNK N   1      34.154  15.869   6.555  0.00  0.00    -0.277 N 
HETATM    7  C   UNK N   1      34.188  14.682   5.891  0.00  0.00     0.146 A 
HETATM    8  C   UNK N   1      33.882  14.600   4.540  0.00  0.00     0.199 A 
HETATM    9  F   UNK N   1      33.931  13.404   3.904  0.00  0.00    -0.199 F 
HETATM   10  C   UNK N   1      33.537  15.763   3.861  0.00  0.00     0.289 A 
HETATM   11  O   UNK N   1      33.274  15.724   2.672  0.00  0.00    -0.265 OA
HETATM   12  N   UNK N   1      33.493  16.953   4.532  0.00  0.00    -0.273 N 
HETATM   13  C   UNK N   1      33.795  17.024   5.870  0.00  0.00     0.331 A 
HETATM   14  H   UNK N   1      33.241  17.773   4.049  0.00  0.00     0.173 HD
HETATM   15  O   UNK N   1      33.741  18.101   6.432  0.00  0.00    -0.246 OA
ENDBRANCH   3   6
BRANCH   4  16
HETATM   16  O   UNK N   1      32.743  16.876   9.151  0.00  0.00    -0.388 OA
HETATM   17  H   UNK N   1      32.233  17.449   8.558  0.00  0.00     0.210 HD
ENDBRANCH   4  16
BRANCH   1  18
HETATM   18  C   UNK N   1      36.813  14.843  10.176  0.00  0.00     0.198 C 
BRANCH  18  19
HETATM   19  O   UNK N   1      36.828  16.051  10.873  0.00  0.00    -0.398 OA
HETATM   20  H   UNK N   1      36.758  16.081  11.839  0.00  0.00     0.209 HD
ENDBRANCH  18  19
ENDBRANCH   1  18
BRANCH   5  21
HETATM   21  O   UNK N   1      33.763  15.003  11.309  0.00  0.00    -0.390 OA
HETATM   22  H   UNK N   1      33.111  15.445  11.875  0.00  0.00     0.210 HD
ENDBRANCH   5  21
TORSDOF 5
ENDMDL
MODEL 5
REMARK VINA RESULT:      -5.8      7.075     11.576
REMARK  5 active torsions:
REMARK  status: ('A' for Active; 'I' for Inactive)
REMARK    1  A    between atoms: O_1  and  C_2 
REMARK    2  A    between atoms: C_3  and  C_2 
REMARK    3  A    between atoms: C_5  and  N_10 
REMARK    4  A    between atoms: C_6  and  O_7 
REMARK    5  A    between atoms: C_8  and  O_9 
ROOT
HETATM    1  C   UNK N   1      20.766  20.822   2.301  0.00  0.00     0.179 C 
HETATM    2  O   UNK N   1      22.108  20.887   2.728  0.00  0.00    -0.353 OA
HETATM    3  C   UNK N   1      22.508  19.546   2.863  0.00  0.00     0.264 C 
HETATM    4  C   UNK N   1      21.281  18.767   3.263  0.00  0.00     0.198 C 
HETATM    5  C   UNK N   1      20.374  19.354   2.236  0.00  0.00     0.182 C 
ENDROOT
BRANCH   3   6
HETATM    6  N   UNK N   1      23.736  19.433   3.668  0.00  0.00    -0.277 N 
HETATM    7  C   UNK N   1      24.837  20.028   3.135  0.00  0.00     0.146 A 
HETATM    8  C   UNK N   1      26.070  19.970   3.770  0.00  0.00     0.199 A 
HETATM    9  F   UNK N   1      27.151  20.567   3.210  0.00  0.00    -0.199 F 
HETATM   10  C   UNK N   1      26.170  19.284   4.975  0.00  0.00     0.289 A 
HETATM   11  O   UNK N   1      27.241  19.207   5.550  0.00  0.00    -0.265 OA
HETATM   12  N   UNK N   1      25.060  18.696   5.515  0.00  0.00    -0.273 N 
HETATM   13  C   UNK N   1      23.844  18.761   4.880  0.00  0.00     0.331 A 
HETATM   14  H   UNK N   1      25.133  18.218   6.372  0.00  0.00     0.173 HD
HETATM   15  O   UNK N   1      22.879  18.228   5.394  0.00  0.00    -0.246 OA
ENDBRANCH   3   6
BRANCH   4  16
HETATM   16  O   UNK N   1      21.453  17.400   3.042  0.00  0.00    -0.388 OA
HETATM   17  H   UNK N   1      21.898  16.845   2.381  0.00  0.00     0.210 HD
ENDBRANCH   4  16
BRANCH   1  18
HETATM   18  C   UNK N   1      20.642  21.480   0.934  0.00  0.00     0.198 C 
BRANCH  18  19
HETATM   19  O   UNK N   1      20.549  20.515  -0.068  0.00  0.00    -0.398 OA
HETATM   20  H   UNK N   1      21.252  19.863  -0.212  0.00  0.00     0.209 HD
ENDBRANCH  18  19
ENDBRANCH   1  18
BRANCH   5  21
HETATM   21  O   UNK N   1      19.028  19.154   2.546  0.00  0.00    -0.390 OA
HETATM   22  H   UNK N   1      18.259  19.500   2.067  0.00  0.00     0.210 HD
ENDBRANCH   5  21
TORSDOF 5
ENDMDL
MODEL 6
REMARK VINA RESULT:      -5.8      9.803     11.622
REMARK  5 active torsions:
REMARK  status: ('A' for Active; 'I' for Inactive)
REMARK    1  A    between atoms: O_1  and  C_2 
REMARK    2  A    between atoms: C_3  and  C_2 
REMARK    3  A    between atoms: C_5  and  N_10 
REMARK    4  A    between atoms: C_6  and  O_7 
REMARK    5  A    between atoms: C_8  and  O_9 
ROOT
HETATM    1  C   UNK N   1      20.721  16.356   6.785  0.00  0.00     0.179 C 
HETATM    2  O   UNK N   1      21.497  17.433   6.309  0.00  0.00    -0.353 OA
HETATM    3  C   UNK N   1      20.809  17.898   5.175  0.00  0.00     0.264 C 
HETATM    4  C   UNK N   1      20.124  16.703   4.563  0.00  0.00     0.198 C 
HETATM    5  C   UNK N   1      19.547  16.177   5.834  0.00  0.00     0.182 C 
ENDROOT
BRANCH   3   6
HETATM    6  N   UNK N   1      21.671  18.750   4.338  0.00  0.00    -0.277 N 
HETATM    7  C   UNK N   1      23.007  18.522   4.462  0.00  0.00     0.146 A 
HETATM    8  C   UNK N   1      23.936  19.275   3.758  0.00  0.00     0.199 A 
HETATM    9  F   UNK N   1      25.262  19.029   3.906  0.00  0.00    -0.199 F 
HETATM   10  C   UNK N   1      23.481  20.282   2.914  0.00  0.00     0.289 A 
HETATM   11  O   UNK N   1      24.274  20.967   2.292  0.00  0.00    -0.265 OA
HETATM   12  N   UNK N   1      22.139  20.503   2.783  0.00  0.00    -0.273 N 
HETATM   13  C   UNK N   1      21.226  19.750   3.482  0.00  0.00     0.331 A 
HETATM   14  H   UNK N   1      21.820  21.211   2.179  0.00  0.00     0.173 HD
HETATM   15  O   UNK N   1      20.040  19.974   3.336  0.00  0.00    -0.246 OA
ENDBRANCH   3   6
BRANCH   4  16
HETATM   16  O   UNK N   1      19.109  17.091   3.688  0.00  0.00    -0.388 OA
HETATM   17  H   UNK N   1      18.435  16.644   3.150  0.00  0.00     0.210 HD
ENDBRANCH   4  16
BRANCH   1  18
HETATM   18  C   UNK N   1      20.236  16.672   8.193  0.00  0.00     0.198 C 
BRANCH  18  19
HETATM   19  O   UNK N   1      18.943  16.191   8.387  0.00  0.00    -0.398 OA
HETATM   20  H   UNK N   1      18.166  16.761   8.274  0.00  0.00     0.209 HD
ENDBRANCH  18  19
ENDBRANCH   1  18
BRANCH   5  21
HETATM   21  O   UNK N   1      19.159  14.842   5.724  0.00  0.00    -0.390 OA
HETATM   22  H   UNK N   1      19.731  14.077   5.559  0.00  0.00     0.210 HD
ENDBRANCH   5  21
TORSDOF 5
ENDMDL
MODEL 7
REMARK VINA RESULT:      -5.8      2.672      3.706
REMARK  5 active torsions:
REMARK  status: ('A' for Active; 'I' for Inactive)
REMARK    1  A    between atoms: O_1  and  C_2 
REMARK    2  A    between atoms: C_3  and  C_2 
REMARK    3  A    between atoms: C_5  and  N_10 
REMARK    4  A    between atoms: C_6  and  O_7 
REMARK    5  A    between atoms: C_8  and  O_9 
ROOT
HETATM    1  C   UNK N   1      35.989  14.152  10.217  0.00  0.00     0.179 C 
HETATM    2  O   UNK N   1      35.251  14.356   9.033  0.00  0.00    -0.353 OA
HETATM    3  C   UNK N   1      35.171  15.753   8.895  0.00  0.00     0.264 C 
HETATM    4  C   UNK N   1      35.163  16.326  10.289  0.00  0.00     0.198 C 
HETATM    5  C   UNK N   1      36.306  15.519  10.804  0.00  0.00     0.182 C 
ENDROOT
BRANCH   3   6
HETATM    6  N   UNK N   1      34.114  16.137   7.944  0.00  0.00    -0.277 N 
HETATM    7  C   UNK N   1      33.183  15.176   7.692  0.00  0.00     0.146 A 
HETATM    8  C   UNK N   1      32.151  15.390   6.790  0.00  0.00     0.199 A 
HETATM    9  F   UNK N   1      31.241  14.412   6.554  0.00  0.00    -0.199 F 
HETATM   10  C   UNK N   1      32.077  16.614   6.134  0.00  0.00     0.289 A 
HETATM   11  O   UNK N   1      31.188  16.826   5.328  0.00  0.00    -0.265 OA
HETATM   12  N   UNK N   1      33.007  17.581   6.396  0.00  0.00    -0.273 N 
HETATM   13  C   UNK N   1      34.024  17.361   7.293  0.00  0.00     0.331 A 
HETATM   14  H   UNK N   1      32.947  18.449   5.936  0.00  0.00     0.173 HD
HETATM   15  O   UNK N   1      34.830  18.248   7.501  0.00  0.00    -0.246 OA
ENDBRANCH   3   6
BRANCH   4  16
HETATM   16  O   UNK N   1      35.484  17.684  10.283  0.00  0.00    -0.388 OA
HETATM   17  H   UNK N   1      36.285  18.216  10.152  0.00  0.00     0.210 HD
ENDBRANCH   4  16
BRANCH   1  18
HETATM   18  C   UNK N   1      37.266  13.393   9.886  0.00  0.00     0.198 C 
BRANCH  18  19
HETATM   19  O   UNK N   1      38.233  13.608  10.867  0.00  0.00    -0.398 OA
HETATM   20  H   UNK N   1      38.008  13.616  11.810  0.00  0.00     0.209 HD
ENDBRANCH  18  19
ENDBRANCH   1  18
BRANCH   5  21
HETATM   21  O   UNK N   1      36.348  15.496  12.198  0.00  0.00    -0.390 OA
HETATM   22  H   UNK N   1      35.769  15.975  12.810  0.00  0.00     0.210 HD
ENDBRANCH   5  21
TORSDOF 5
ENDMDL
MODEL 8
REMARK VINA RESULT:      -5.7      3.058      4.517
REMARK  5 active torsions:
REMARK  status: ('A' for Active; 'I' for Inactive)
REMARK    1  A    between atoms: O_1  and  C_2 
REMARK    2  A    between atoms: C_3  and  C_2 
REMARK    3  A    between atoms: C_5  and  N_10 
REMARK    4  A    between atoms: C_6  and  O_7 
REMARK    5  A    between atoms: C_8  and  O_9 
ROOT
HETATM    1  C   UNK N   1      30.576  17.184   8.188  0.00  0.00     0.179 C 
HETATM    2  O   UNK N   1      29.990  17.669   7.000  0.00  0.00    -0.353 OA
HETATM    3  C   UNK N   1      28.841  18.360   7.422  0.00  0.00     0.264 C 
HETATM    4  C   UNK N   1      28.350  17.665   8.667  0.00  0.00     0.198 C 
HETATM    5  C   UNK N   1      29.676  17.590   9.345  0.00  0.00     0.182 C 
ENDROOT
BRANCH   3   6
HETATM    6  N   UNK N   1      27.912  18.587   6.302  0.00  0.00    -0.277 N 
HETATM    7  C   UNK N   1      27.942  17.644   5.322  0.00  0.00     0.146 A 
HETATM    8  C   UNK N   1      27.145  17.751   4.191  0.00  0.00     0.199 A 
HETATM    9  F   UNK N   1      27.201  16.797   3.229  0.00  0.00    -0.199 F 
HETATM   10  C   UNK N   1      26.304  18.850   4.067  0.00  0.00     0.289 A 
HETATM   11  O   UNK N   1      25.600  18.976   3.080  0.00  0.00    -0.265 OA
HETATM   12  N   UNK N   1      26.267  19.792   5.057  0.00  0.00    -0.273 N 
HETATM   13  C   UNK N   1      27.058  19.677   6.174  0.00  0.00     0.331 A 
HETATM   14  H   UNK N   1      25.665  20.565   4.969  0.00  0.00     0.173 HD
HETATM   15  O   UNK N   1      26.995  20.533   7.034  0.00  0.00    -0.246 OA
ENDBRANCH   3   6
BRANCH   4  16
HETATM   16  O   UNK N   1      27.474  18.475   9.390  0.00  0.00    -0.388 OA
HETATM   17  H   UNK N   1      27.118  19.374   9.308  0.00  0.00     0.210 HD
ENDBRANCH   4  16
BRANCH   1  18
HETATM   18  C   UNK N   1      31.965  17.786   8.343  0.00  0.00     0.198 C 
BRANCH  18  19
HETATM   19  O   UNK N   1      32.692  17.098   9.314  0.00  0.00    -0.398 OA
HETATM   20  H   UNK N   1      32.659  17.353  10.248  0.00  0.00     0.209 HD
ENDBRANCH  18  19
ENDBRANCH   1  18
BRANCH   5  21
HETATM   21  O   UNK N   1      29.688  16.650  10.375  0.00  0.00    -0.390 OA
HETATM   22  H   UNK N   1      30.028  15.742  10.337  0.00  0.00     0.210 HD
ENDBRANCH   5  21
TORSDOF 5
ENDMDL
MODEL 9
REMARK VINA RESULT:      -5.7      3.504      6.333
REMARK  5 active torsions:
REMARK  status: ('A' for Active; 'I' for Inactive)
REMARK    1  A    between atoms: O_1  and  C_2 
REMARK    2  A    between atoms: C_3  and  C_2 
REMARK    3  A    between atoms: C_5  and  N_10 
REMARK    4  A    between atoms: C_6  and  O_7 
REMARK    5  A    between atoms: C_8  and  O_9 
ROOT
HETATM    1  C   UNK N   1      31.415  16.508   7.944  0.00  0.00     0.179 C 
HETATM    2  O   UNK N   1      32.148  16.000   9.037  0.00  0.00    -0.353 OA
HETATM    3  C   UNK N   1      33.403  16.626   8.951  0.00  0.00     0.264 C 
HETATM    4  C   UNK N   1      33.668  16.865   7.486  0.00  0.00     0.198 C 
HETATM    5  C   UNK N   1      32.331  17.444   7.171  0.00  0.00     0.182 C 
ENDROOT
BRANCH   3   6
HETATM    6  N   UNK N   1      34.408  15.924   9.767  0.00  0.00    -0.277 N 
HETATM    7  C   UNK N   1      34.206  14.587   9.913  0.00  0.00     0.146 A 
HETATM    8  C   UNK N   1      35.056  13.807  10.685  0.00  0.00     0.199 A 
HETATM    9  F   UNK N   1      34.826  12.478  10.816  0.00  0.00    -0.199 F 
HETATM   10  C   UNK N   1      36.132  14.418  11.320  0.00  0.00     0.289 A 
HETATM   11  O   UNK N   1      36.889  13.761  12.013  0.00  0.00    -0.265 OA
HETATM   12  N   UNK N   1      36.339  15.760  11.164  0.00  0.00    -0.273 N 
HETATM   13  C   UNK N   1      35.494  16.523  10.396  0.00  0.00     0.331 A 
HETATM   14  H   UNK N   1      37.106  16.187  11.608  0.00  0.00     0.173 HD
HETATM   15  O   UNK N   1      35.713  17.713  10.278  0.00  0.00    -0.246 OA
ENDBRANCH   3   6
BRANCH   4  16
HETATM   16  O   UNK N   1      34.671  17.817   7.300  0.00  0.00    -0.388 OA
HETATM   17  H   UNK N   1      34.739  18.697   6.896  0.00  0.00     0.210 HD
ENDBRANCH   4  16
BRANCH   1  18
HETATM   18  C   UNK N   1      30.191  17.249   8.463  0.00  0.00     0.198 C 
BRANCH  18  19
HETATM   19  O   UNK N   1      30.568  18.267   9.338  0.00  0.00    -0.398 OA
HETATM   20  H   UNK N   1      30.715  19.174   9.029  0.00  0.00     0.209 HD
ENDBRANCH  18  19
ENDBRANCH   1  18
BRANCH   5  21
HETATM   21  O   UNK N   1      32.061  17.432   5.802  0.00  0.00    -0.390 OA
HETATM   22  H   UNK N   1      31.714  18.162   5.266  0.00  0.00     0.210 HD
ENDBRANCH   5  21
TORSDOF 5
ENDMDL
