MODEL 1
REMARK VINA RESULT:      -4.5      0.000      0.000
REMARK  5 active torsions:
REMARK  status: ('A' for Active; 'I' for Inactive)
REMARK    1  A    between atoms: C_2  and  C_3 
REMARK    2  A    between atoms: C_3  and  C_5 
REMARK    3  A    between atoms: C_5  and  N_6 
REMARK    4  A    between atoms: C_5  and  C_7 
REMARK    5  A    between atoms: C_7  and  O_8 
ROOT
HETATM    1  C   UNK N   1      22.613  11.914  11.150  0.00  0.00     0.177 C 
ENDROOT
BRANCH   1   2
HETATM    2  C   UNK N   1      22.469  13.064  10.128  0.00  0.00     0.014 C 
HETATM    3  C   UNK N   1      22.902  12.616   8.742  0.00  0.00     0.012 C 
BRANCH   2   4
HETATM    4  C   UNK N   1      21.015  13.515   9.990  0.00  0.00     0.002 C 
HETATM    5  C   UNK N   1      20.881  14.833   9.248  0.00  0.00     0.005 C 
ENDBRANCH   2   4
ENDBRANCH   1   2
BRANCH   1   6
HETATM    6  N   UNK N   1      21.379  11.764  11.914  0.00  0.00    -0.417 N 
HETATM    7  H   UNK N   1      20.471  11.896  11.469  0.00  0.00     0.150 HD
HETATM    8  H   UNK N   1      21.426  11.525  12.904  0.00  0.00     0.150 HD
ENDBRANCH   1   6
BRANCH   1   9
HETATM    9  C   UNK N   1      23.769  12.074  12.110  0.00  0.00     0.163 C 
HETATM   10  O   UNK N   1      23.572  12.035  13.321  0.00  0.00    -0.648 OA
BRANCH   9  11
HETATM   11  O   UNK N   1      25.012  12.319  11.658  0.00  0.00    -0.775 OA
HETATM   12  H   UNK N   1      25.344  11.977  10.851  0.00  0.00     0.167 HD
ENDBRANCH   9  11
ENDBRANCH   1   9
TORSDOF 5
ENDMDL
MODEL 2
REMARK VINA RESULT:      -4.2     11.496     12.155
REMARK  5 active torsions:
REMARK  status: ('A' for Active; 'I' for Inactive)
REMARK    1  A    between atoms: C_2  and  C_3 
REMARK    2  A    between atoms: C_3  and  C_5 
REMARK    3  A    between atoms: C_5  and  N_6 
REMARK    4  A    between atoms: C_5  and  C_7 
REMARK    5  A    between atoms: C_7  and  O_8 
ROOT
HETATM    1  C   UNK N   1      34.082  16.833   8.549  0.00  0.00     0.177 C 
ENDROOT
BRANCH   1   2
HETATM    2  C   UNK N   1      32.623  16.383   8.310  0.00  0.00     0.014 C 
HETATM    3  C   UNK N   1      32.235  15.267   9.266  0.00  0.00     0.012 C 
BRANCH   2   4
HETATM    4  C   UNK N   1      31.634  17.521   8.568  0.00  0.00     0.002 C 
HETATM    5  C   UNK N   1      30.388  17.417   7.706  0.00  0.00     0.005 C 
ENDBRANCH   2   4
ENDBRANCH   1   2
BRANCH   1   6
HETATM    6  N   UNK N   1      34.307  17.071   9.970  0.00  0.00    -0.417 N 
HETATM    7  H   UNK N   1      35.238  17.299  10.319  0.00  0.00     0.150 HD
HETATM    8  H   UNK N   1      33.525  17.008  10.622  0.00  0.00     0.150 HD
ENDBRANCH   1   6
BRANCH   1   9
HETATM    9  C   UNK N   1      34.489  18.065   7.774  0.00  0.00     0.163 C 
HETATM   10  O   UNK N   1      34.385  18.083   6.551  0.00  0.00    -0.648 OA
BRANCH   9  11
HETATM   11  O   UNK N   1      35.022  19.128   8.400  0.00  0.00    -0.775 OA
HETATM   12  H   UNK N   1      35.940  19.226   8.560  0.00  0.00     0.167 HD
ENDBRANCH   9  11
ENDBRANCH   1   9
TORSDOF 5
ENDMDL
MODEL 3
REMARK VINA RESULT:      -4.1     11.579     12.275
REMARK  5 active torsions:
REMARK  status: ('A' for Active; 'I' for Inactive)
REMARK    1  A    between atoms: C_2  and  C_3 
REMARK    2  A    between atoms: C_3  and  C_5 
REMARK    3  A    between atoms: C_5  and  N_6 
REMARK    4  A    between atoms: C_5  and  C_7 
REMARK    5  A    between atoms: C_7  and  O_8 
ROOT
HETATM    1  C   UNK N   1      34.022  16.900   8.673  0.00  0.00     0.177 C 
ENDROOT
BRANCH   1   2
HETATM    2  C   UNK N   1      32.495  16.668   8.650  0.00  0.00     0.014 C 
HETATM    3  C   UNK N   1      31.748  17.984   8.508  0.00  0.00     0.012 C 
BRANCH   2   4
HETATM    4  C   UNK N   1      32.074  15.814   7.454  0.00  0.00     0.002 C 
HETATM    5  C   UNK N   1      30.902  16.411   6.694  0.00  0.00     0.005 C 
ENDBRANCH   2   4
ENDBRANCH   1   2
BRANCH   1   6
HETATM    6  N   UNK N   1      34.483  17.078  10.045  0.00  0.00    -0.417 N 
HETATM    7  H   UNK N   1      35.464  17.270  10.245  0.00  0.00     0.150 HD
HETATM    8  H   UNK N   1      33.815  17.010  10.814  0.00  0.00     0.150 HD
ENDBRANCH   1   6
BRANCH   1   9
HETATM    9  C   UNK N   1      34.487  18.074   7.842  0.00  0.00     0.163 C 
HETATM   10  O   UNK N   1      34.431  18.019   6.617  0.00  0.00    -0.648 OA
BRANCH   9  11
HETATM   11  O   UNK N   1      35.020  19.162   8.424  0.00  0.00    -0.775 OA
HETATM   12  H   UNK N   1      35.817  19.147   8.916  0.00  0.00     0.167 HD
ENDBRANCH   9  11
ENDBRANCH   1   9
TORSDOF 5
ENDMDL
MODEL 4
REMARK VINA RESULT:      -4.1      1.649      2.236
REMARK  5 active torsions:
REMARK  status: ('A' for Active; 'I' for Inactive)
REMARK    1  A    between atoms: C_2  and  C_3 
REMARK    2  A    between atoms: C_3  and  C_5 
REMARK    3  A    between atoms: C_5  and  N_6 
REMARK    4  A    between atoms: C_5  and  C_7 
REMARK    5  A    between atoms: C_7  and  O_8 
ROOT
HETATM    1  C   UNK N   1      23.225  11.785  11.019  0.00  0.00     0.177 C 
ENDROOT
BRANCH   1   2
HETATM    2  C   UNK N   1      21.844  12.202  10.466  0.00  0.00     0.014 C 
HETATM    3  C   UNK N   1      20.785  12.152  11.554  0.00  0.00     0.012 C 
BRANCH   2   4
HETATM    4  C   UNK N   1      21.855  13.644   9.956  0.00  0.00     0.002 C 
HETATM    5  C   UNK N   1      20.462  14.165   9.650  0.00  0.00     0.005 C 
ENDBRANCH   2   4
ENDBRANCH   1   2
BRANCH   1   6
HETATM    6  N   UNK N   1      23.374  12.242  12.396  0.00  0.00    -0.417 N 
HETATM    7  H   UNK N   1      24.299  12.377  12.804  0.00  0.00     0.150 HD
HETATM    8  H   UNK N   1      22.542  12.430  12.957  0.00  0.00     0.150 HD
ENDBRANCH   1   6
BRANCH   1   9
HETATM    9  C   UNK N   1      24.399  12.283  10.206  0.00  0.00     0.163 C 
HETATM   10  O   UNK N   1      24.526  11.936   9.036  0.00  0.00    -0.648 OA
BRANCH   9  11
HETATM   11  O   UNK N   1      25.345  13.058  10.766  0.00  0.00    -0.775 OA
HETATM   12  H   UNK N   1      26.182  13.213  10.375  0.00  0.00     0.167 HD
ENDBRANCH   9  11
ENDBRANCH   1   9
TORSDOF 5
ENDMDL
MODEL 5
REMARK VINA RESULT:      -4.0     13.907     14.573
REMARK  5 active torsions:
REMARK  status: ('A' for Active; 'I' for Inactive)
REMARK    1  A    between atoms: C_2  and  C_3 
REMARK    2  A    between atoms: C_3  and  C_5 
REMARK    3  A    between atoms: C_5  and  N_6 
REMARK    4  A    between atoms: C_5  and  C_7 
REMARK    5  A    between atoms: C_7  and  O_8 
ROOT
HETATM    1  C   UNK N   1      36.557  13.478  15.148  0.00  0.00     0.177 C 
ENDROOT
BRANCH   1   2
HETATM    2  C   UNK N   1      35.455  13.104  16.164  0.00  0.00     0.014 C 
HETATM    3  C   UNK N   1      35.622  11.672  16.645  0.00  0.00     0.012 C 
BRANCH   2   4
HETATM    4  C   UNK N   1      35.523  13.979  17.416  0.00  0.00     0.002 C 
HETATM    5  C   UNK N   1      35.188  13.212  18.683  0.00  0.00     0.005 C 
ENDBRANCH   2   4
ENDBRANCH   1   2
BRANCH   1   6
HETATM    6  N   UNK N   1      37.259  14.678  15.589  0.00  0.00    -0.417 N 
HETATM    7  H   UNK N   1      36.742  15.502  15.896  0.00  0.00     0.150 HD
HETATM    8  H   UNK N   1      38.279  14.694  15.590  0.00  0.00     0.150 HD
ENDBRANCH   1   6
BRANCH   1   9
HETATM    9  C   UNK N   1      36.059  13.690  13.737  0.00  0.00     0.163 C 
HETATM   10  O   UNK N   1      34.885  13.466  13.460  0.00  0.00    -0.648 OA
BRANCH   9  11
HETATM   11  O   UNK N   1      36.901  14.067  12.759  0.00  0.00    -0.775 OA
HETATM   12  H   UNK N   1      36.769  13.857  11.855  0.00  0.00     0.167 HD
ENDBRANCH   9  11
ENDBRANCH   1   9
TORSDOF 5
ENDMDL
MODEL 6
REMARK VINA RESULT:      -4.0     11.602     12.154
REMARK  5 active torsions:
REMARK  status: ('A' for Active; 'I' for Inactive)
REMARK    1  A    between atoms: C_2  and  C_3 
REMARK    2  A    between atoms: C_3  and  C_5 
REMARK    3  A    between atoms: C_5  and  N_6 
REMARK    4  A    between atoms: C_5  and  C_7 
REMARK    5  A    between atoms: C_7  and  O_8 
ROOT
HETATM    1  C   UNK N   1      33.860  16.993   8.453  0.00  0.00     0.177 C 
ENDROOT
BRANCH   1   2
HETATM    2  C   UNK N   1      32.738  17.725   7.682  0.00  0.00     0.014 C 
HETATM    3  C   UNK N   1      32.781  17.380   6.203  0.00  0.00     0.012 C 
BRANCH   2   4
HETATM    4  C   UNK N   1      31.352  17.305   8.172  0.00  0.00     0.002 C 
HETATM    5  C   UNK N   1      30.622  18.426   8.890  0.00  0.00     0.005 C 
ENDBRANCH   2   4
ENDBRANCH   1   2
BRANCH   1   6
HETATM    6  N   UNK N   1      33.288  16.181   9.520  0.00  0.00    -0.417 N 
HETATM    7  H   UNK N   1      33.313  16.500  10.489  0.00  0.00     0.150 HD
HETATM    8  H   UNK N   1      32.858  15.283   9.296  0.00  0.00     0.150 HD
ENDBRANCH   1   6
BRANCH   1   9
HETATM    9  C   UNK N   1      34.912  17.906   9.039  0.00  0.00     0.163 C 
HETATM   10  O   UNK N   1      35.484  17.595  10.079  0.00  0.00    -0.648 OA
BRANCH   9  11
HETATM   11  O   UNK N   1      35.191  19.091   8.468  0.00  0.00    -0.775 OA
HETATM   12  H   UNK N   1      35.182  19.904   8.935  0.00  0.00     0.167 HD
ENDBRANCH   9  11
ENDBRANCH   1   9
TORSDOF 5
ENDMDL
MODEL 7
REMARK VINA RESULT:      -4.0     12.359     12.929
REMARK  5 active torsions:
REMARK  status: ('A' for Active; 'I' for Inactive)
REMARK    1  A    between atoms: C_2  and  C_3 
REMARK    2  A    between atoms: C_3  and  C_5 
REMARK    3  A    between atoms: C_5  and  N_6 
REMARK    4  A    between atoms: C_5  and  C_7 
REMARK    5  A    between atoms: C_7  and  O_8 
ROOT
HETATM    1  C   UNK N   1      33.647  17.375   8.003  0.00  0.00     0.177 C 
ENDROOT
BRANCH   1   2
HETATM    2  C   UNK N   1      33.876  17.287   6.478  0.00  0.00     0.014 C 
HETATM    3  C   UNK N   1      34.548  15.976   6.104  0.00  0.00     0.012 C 
BRANCH   2   4
HETATM    4  C   UNK N   1      32.556  17.317   5.708  0.00  0.00     0.002 C 
HETATM    5  C   UNK N   1      32.747  17.611   4.231  0.00  0.00     0.005 C 
ENDBRANCH   2   4
ENDBRANCH   1   2
BRANCH   1   6
HETATM    6  N   UNK N   1      32.386  18.052   8.283  0.00  0.00    -0.417 N 
HETATM    7  H   UNK N   1      31.586  17.535   8.648  0.00  0.00     0.150 HD
HETATM    8  H   UNK N   1      32.304  19.055   8.113  0.00  0.00     0.150 HD
ENDBRANCH   1   6
BRANCH   1   9
HETATM    9  C   UNK N   1      34.757  18.068   8.761  0.00  0.00     0.163 C 
HETATM   10  O   UNK N   1      35.203  19.137   8.355  0.00  0.00    -0.648 OA
BRANCH   9  11
HETATM   11  O   UNK N   1      35.308  17.500   9.848  0.00  0.00    -0.775 OA
HETATM   12  H   UNK N   1      34.958  17.592  10.712  0.00  0.00     0.167 HD
ENDBRANCH   9  11
ENDBRANCH   1   9
TORSDOF 5
ENDMDL
MODEL 8
REMARK VINA RESULT:      -3.9     10.272     11.686
REMARK  5 active torsions:
REMARK  status: ('A' for Active; 'I' for Inactive)
REMARK    1  A    between atoms: C_2  and  C_3 
REMARK    2  A    between atoms: C_3  and  C_5 
REMARK    3  A    between atoms: C_5  and  N_6 
REMARK    4  A    between atoms: C_5  and  C_7 
REMARK    5  A    between atoms: C_7  and  O_8 
ROOT
HETATM    1  C   UNK N   1      20.383  20.041   2.489  0.00  0.00     0.177 C 
ENDROOT
BRANCH   1   2
HETATM    2  C   UNK N   1      21.574  19.241   3.063  0.00  0.00     0.014 C 
HETATM    3  C   UNK N   1      22.838  20.085   3.076  0.00  0.00     0.012 C 
BRANCH   2   4
HETATM    4  C   UNK N   1      21.327  18.829   4.514  0.00  0.00     0.002 C 
HETATM    5  C   UNK N   1      21.748  17.398   4.794  0.00  0.00     0.005 C 
ENDBRANCH   2   4
ENDBRANCH   1   2
BRANCH   1   6
HETATM    6  N   UNK N   1      19.192  19.201   2.439  0.00  0.00    -0.417 N 
HETATM    7  H   UNK N   1      18.741  18.987   1.549  0.00  0.00     0.150 HD
HETATM    8  H   UNK N   1      18.806  18.822   3.303  0.00  0.00     0.150 HD
ENDBRANCH   1   6
BRANCH   1   9
HETATM    9  C   UNK N   1      20.629  20.627   1.117  0.00  0.00     0.163 C 
HETATM   10  O   UNK N   1      20.732  21.842   0.979  0.00  0.00    -0.648 OA
BRANCH   9  11
HETATM   11  O   UNK N   1      20.678  19.838   0.029  0.00  0.00    -0.775 OA
HETATM   12  H   UNK N   1      20.474  18.924   0.045  0.00  0.00     0.167 HD
ENDBRANCH   9  11
ENDBRANCH   1   9
TORSDOF 5
ENDMDL
MODEL 9
REMARK VINA RESULT:      -3.9     10.203     11.358
REMARK  5 active torsions:
REMARK  status: ('A' for Active; 'I' for Inactive)
REMARK    1  A    between atoms: C_2  and  C_3 
REMARK    2  A    between atoms: C_3  and  C_5 
REMARK    3  A    between atoms: C_5  and  N_6 
REMARK    4  A    between atoms: C_5  and  C_7 
REMARK    5  A    between atoms: C_7  and  O_8 
ROOT
HETATM    1  C   UNK N   1      20.149  19.199   2.578  0.00  0.00     0.177 C 
ENDROOT
BRANCH   1   2
HETATM    2  C   UNK N   1      20.957  17.903   2.812  0.00  0.00     0.014 C 
HETATM    3  C   UNK N   1      21.311  17.742   4.281  0.00  0.00     0.012 C 
BRANCH   2   4
HETATM    4  C   UNK N   1      20.149  16.661   2.435  0.00  0.00     0.002 C 
HETATM    5  C   UNK N   1      20.651  16.003   1.162  0.00  0.00     0.005 C 
ENDBRANCH   2   4
ENDBRANCH   1   2
BRANCH   1   6
HETATM    6  N   UNK N   1      18.756  18.877   2.292  0.00  0.00    -0.417 N 
HETATM    7  H   UNK N   1      18.478  18.533   1.373  0.00  0.00     0.150 HD
HETATM    8  H   UNK N   1      18.051  18.998   3.020  0.00  0.00     0.150 HD
ENDBRANCH   1   6
BRANCH   1   9
HETATM    9  C   UNK N   1      20.687  20.078   1.471  0.00  0.00     0.163 C 
HETATM   10  O   UNK N   1      21.182  21.168   1.740  0.00  0.00    -0.648 OA
BRANCH   9  11
HETATM   11  O   UNK N   1      20.578  19.708   0.183  0.00  0.00    -0.775 OA
HETATM   12  H   UNK N   1      19.789  19.797  -0.314  0.00  0.00     0.167 HD
ENDBRANCH   9  11
ENDBRANCH   1   9
TORSDOF 5
ENDMDL
