REMARK  1 active torsions:
REMARK  status: ('A' for Active; 'I' for Inactive)
REMARK       I    between atoms: N_1  and  C_2 
REMARK    1  A    between atoms: C_2  and  C_4 
ROOT
HETATM    1  C   UNK N   1       1.670  -0.275   0.000  0.00  0.00     0.048 A 
HETATM    2  C   UNK N   1       0.494  -1.038   0.000  0.00  0.00     0.104 A 
HETATM    3  N   UNK N   1      -0.722  -0.430  -0.000  0.00  0.00    -0.373 N 
ATOM      4  HN  UNK N   1      -1.565  -1.003  -0.000  1.00  0.00     0.164 HD
HETATM    5  C   UNK N   1      -0.838   0.923  -0.000  0.00  0.00     0.106 A 
HETATM    6  C   UNK N   1       0.303   1.725  -0.000  0.00  0.00     0.027 A 
HETATM    7 Br   UNK N   1       0.118   3.623  -0.000  0.00  0.00    -0.050 Br
HETATM    8  C   UNK N   1       1.566   1.124   0.000  0.00  0.00     0.039 A 
ENDROOT
BRANCH   1   9
HETATM    9  C   UNK N   1       2.984  -0.955   0.000  0.00  0.00     0.250 C 
HETATM   10  N   UNK N   1       4.127  -0.236   0.000  0.00  0.00    -0.366 N 
HETATM   11  H   UNK N   1       4.997  -0.696   0.000  0.00  0.00     0.159 HD
HETATM   12  H   UNK N   1       4.089   0.748   0.000  0.00  0.00     0.159 HD
HETATM   13  O   UNK N   1       3.044  -2.174  -0.000  0.00  0.00    -0.268 OA
ENDBRANCH   1   9
TORSDOF 1
