MODEL 1
REMARK VINA RESULT:      -3.8      0.000      0.000
REMARK  3 active torsions:
REMARK  status: ('A' for Active; 'I' for Inactive)
REMARK    1  A    between atoms: C_2  and  C_3 
REMARK    2  A    between atoms: C_2  and  N_6 
REMARK    3  A    between atoms: C_3  and  O_5 
ROOT
HETATM    1  C   UNK N   1      32.868  16.394   8.681  0.00  0.00     0.043 C 
HETATM    2  C   UNK N   1      34.077  17.242   9.021  0.00  0.00     0.169 C 
ENDROOT
BRANCH   2   3
HETATM    3  C   UNK N   1      34.627  18.274   8.088  0.00  0.00     0.162 C 
HETATM    4  O   UNK N   1      35.264  19.215   8.528  0.00  0.00    -0.648 OA
BRANCH   3   5
HETATM    5  O   UNK N   1      34.422  18.168   6.759  0.00  0.00    -0.775 OA
HETATM    6  H   UNK N   1      33.923  18.821   6.310  0.00  0.00     0.167 HD
ENDBRANCH   3   5
ENDBRANCH   2   3
BRANCH   2   7
HETATM    7  N   UNK N   1      34.720  17.036  10.308  0.00  0.00    -0.418 N 
HETATM    8  H   UNK N   1      34.677  17.764  11.022  0.00  0.00     0.150 HD
HETATM    9  H   UNK N   1      35.214  16.164  10.498  0.00  0.00     0.150 HD
ENDBRANCH   2   7
TORSDOF 3
ENDMDL
MODEL 2
REMARK VINA RESULT:      -3.6     15.067     15.595
REMARK  3 active torsions:
REMARK  status: ('A' for Active; 'I' for Inactive)
REMARK    1  A    between atoms: C_2  and  C_3 
REMARK    2  A    between atoms: C_2  and  N_6 
REMARK    3  A    between atoms: C_3  and  O_5 
ROOT
HETATM    1  C   UNK N   1      21.038  18.902   3.621  0.00  0.00     0.043 C 
HETATM    2  C   UNK N   1      20.203  19.340   2.434  0.00  0.00     0.169 C 
ENDROOT
BRANCH   2   3
HETATM    3  C   UNK N   1      20.725  20.260   1.377  0.00  0.00     0.162 C 
HETATM    4  O   UNK N   1      21.236  21.321   1.690  0.00  0.00    -0.648 OA
BRANCH   3   5
HETATM    5  O   UNK N   1      20.632  19.922   0.074  0.00  0.00    -0.775 OA
HETATM    6  H   UNK N   1      21.034  20.461  -0.578  0.00  0.00     0.167 HD
ENDBRANCH   3   5
ENDBRANCH   2   3
BRANCH   2   7
HETATM    7  N   UNK N   1      18.842  18.840   2.330  0.00  0.00    -0.418 N 
HETATM    8  H   UNK N   1      18.522  18.098   2.954  0.00  0.00     0.150 HD
HETATM    9  H   UNK N   1      18.208  19.229   1.634  0.00  0.00     0.150 HD
ENDBRANCH   2   7
TORSDOF 3
ENDMDL
MODEL 3
REMARK VINA RESULT:      -3.6     12.658     13.124
REMARK  3 active torsions:
REMARK  status: ('A' for Active; 'I' for Inactive)
REMARK    1  A    between atoms: C_2  and  C_3 
REMARK    2  A    between atoms: C_2  and  N_6 
REMARK    3  A    between atoms: C_3  and  O_5 
ROOT
HETATM    1  C   UNK N   1      22.527  13.053  10.066  0.00  0.00     0.043 C 
HETATM    2  C   UNK N   1      22.497  12.308  11.385  0.00  0.00     0.169 C 
ENDROOT
BRANCH   2   3
HETATM    3  C   UNK N   1      23.708  12.148  12.249  0.00  0.00     0.162 C 
HETATM    4  O   UNK N   1      23.583  11.995  13.451  0.00  0.00    -0.648 OA
BRANCH   3   5
HETATM    5  O   UNK N   1      24.941  12.172  11.703  0.00  0.00    -0.775 OA
HETATM    6  H   UNK N   1      25.045  12.349  10.789  0.00  0.00     0.167 HD
ENDBRANCH   3   5
ENDBRANCH   2   3
BRANCH   2   7
HETATM    7  N   UNK N   1      21.237  11.730  11.820  0.00  0.00    -0.418 N 
HETATM    8  H   UNK N   1      21.115  11.444  12.792  0.00  0.00     0.150 HD
HETATM    9  H   UNK N   1      20.474  11.610  11.154  0.00  0.00     0.150 HD
ENDBRANCH   2   7
TORSDOF 3
ENDMDL
MODEL 4
REMARK VINA RESULT:      -3.5     12.371     12.873
REMARK  3 active torsions:
REMARK  status: ('A' for Active; 'I' for Inactive)
REMARK    1  A    between atoms: C_2  and  C_3 
REMARK    2  A    between atoms: C_2  and  N_6 
REMARK    3  A    between atoms: C_3  and  O_5 
ROOT
HETATM    1  C   UNK N   1      23.223  11.649   9.711  0.00  0.00     0.043 C 
HETATM    2  C   UNK N   1      23.839  12.073  11.029  0.00  0.00     0.169 C 
ENDROOT
BRANCH   2   3
HETATM    3  C   UNK N   1      23.128  11.923  12.337  0.00  0.00     0.162 C 
HETATM    4  O   UNK N   1      23.738  12.072  13.382  0.00  0.00    -0.648 OA
BRANCH   3   5
HETATM    5  O   UNK N   1      21.814  11.622  12.367  0.00  0.00    -0.775 OA
HETATM    6  H   UNK N   1      21.382  11.333  11.588  0.00  0.00     0.167 HD
ENDBRANCH   3   5
ENDBRANCH   2   3
BRANCH   2   7
HETATM    7  N   UNK N   1      25.173  12.648  11.010  0.00  0.00    -0.418 N 
HETATM    8  H   UNK N   1      25.710  12.721  11.875  0.00  0.00     0.150 HD
HETATM    9  H   UNK N   1      25.574  12.978  10.133  0.00  0.00     0.150 HD
ENDBRANCH   2   7
TORSDOF 3
ENDMDL
MODEL 5
REMARK VINA RESULT:      -3.3     11.722     11.966
REMARK  3 active torsions:
REMARK  status: ('A' for Active; 'I' for Inactive)
REMARK    1  A    between atoms: C_2  and  C_3 
REMARK    2  A    between atoms: C_2  and  N_6 
REMARK    3  A    between atoms: C_3  and  O_5 
ROOT
HETATM    1  C   UNK N   1      44.141  20.437   3.293  0.00  0.00     0.043 C 
HETATM    2  C   UNK N   1      44.434  21.876   3.669  0.00  0.00     0.169 C 
ENDROOT
BRANCH   2   3
HETATM    3  C   UNK N   1      43.423  22.969   3.523  0.00  0.00     0.162 C 
HETATM    4  O   UNK N   1      42.519  22.859   2.713  0.00  0.00    -0.648 OA
BRANCH   3   5
HETATM    5  O   UNK N   1      43.505  24.079   4.285  0.00  0.00    -0.775 OA
HETATM    6  H   UNK N   1      44.092  24.768   4.045  0.00  0.00     0.167 HD
ENDBRANCH   3   5
ENDBRANCH   2   3
BRANCH   2   7
HETATM    7  N   UNK N   1      45.752  22.195   4.191  0.00  0.00    -0.418 N 
HETATM    8  H   UNK N   1      46.174  21.603   4.907  0.00  0.00     0.150 HD
HETATM    9  H   UNK N   1      46.255  23.010   3.842  0.00  0.00     0.150 HD
ENDBRANCH   2   7
TORSDOF 3
ENDMDL
MODEL 6
REMARK VINA RESULT:      -3.3     11.626     12.121
REMARK  3 active torsions:
REMARK  status: ('A' for Active; 'I' for Inactive)
REMARK    1  A    between atoms: C_2  and  C_3 
REMARK    2  A    between atoms: C_2  and  N_6 
REMARK    3  A    between atoms: C_3  and  O_5 
ROOT
HETATM    1  C   UNK N   1      42.466  22.477   2.545  0.00  0.00     0.043 C 
HETATM    2  C   UNK N   1      43.577  22.788   3.528  0.00  0.00     0.169 C 
ENDROOT
BRANCH   2   3
HETATM    3  C   UNK N   1      44.698  21.837   3.806  0.00  0.00     0.162 C 
HETATM    4  O   UNK N   1      44.542  20.642   3.627  0.00  0.00    -0.648 OA
BRANCH   3   5
HETATM    5  O   UNK N   1      45.884  22.296   4.256  0.00  0.00    -0.775 OA
HETATM    6  H   UNK N   1      46.679  22.013   3.849  0.00  0.00     0.167 HD
ENDBRANCH   3   5
ENDBRANCH   2   3
BRANCH   2   7
HETATM    7  N   UNK N   1      43.542  24.064   4.223  0.00  0.00    -0.418 N 
HETATM    8  H   UNK N   1      44.369  24.662   4.233  0.00  0.00     0.150 HD
HETATM    9  H   UNK N   1      42.692  24.363   4.700  0.00  0.00     0.150 HD
ENDBRANCH   2   7
TORSDOF 3
ENDMDL
MODEL 7
REMARK VINA RESULT:      -3.1      2.183      2.456
REMARK  3 active torsions:
REMARK  status: ('A' for Active; 'I' for Inactive)
REMARK    1  A    between atoms: C_2  and  C_3 
REMARK    2  A    between atoms: C_2  and  N_6 
REMARK    3  A    between atoms: C_3  and  O_5 
ROOT
HETATM    1  C   UNK N   1      33.716  17.442   5.989  0.00  0.00     0.043 C 
HETATM    2  C   UNK N   1      33.314  17.719   7.424  0.00  0.00     0.169 C 
ENDROOT
BRANCH   2   3
HETATM    3  C   UNK N   1      34.301  18.115   8.476  0.00  0.00     0.162 C 
HETATM    4  O   UNK N   1      35.030  19.075   8.296  0.00  0.00    -0.648 OA
BRANCH   3   5
HETATM    5  O   UNK N   1      34.389  17.415   9.625  0.00  0.00    -0.775 OA
HETATM    6  H   UNK N   1      33.655  16.919   9.928  0.00  0.00     0.167 HD
ENDBRANCH   3   5
ENDBRANCH   2   3
BRANCH   2   7
HETATM    7  N   UNK N   1      31.911  17.590   7.781  0.00  0.00    -0.418 N 
HETATM    8  H   UNK N   1      31.650  17.319   8.730  0.00  0.00     0.150 HD
HETATM    9  H   UNK N   1      31.189  17.771   7.085  0.00  0.00     0.150 HD
ENDBRANCH   2   7
TORSDOF 3
ENDMDL
MODEL 8
REMARK VINA RESULT:      -3.1     13.330     13.930
REMARK  3 active torsions:
REMARK  status: ('A' for Active; 'I' for Inactive)
REMARK    1  A    between atoms: C_2  and  C_3 
REMARK    2  A    between atoms: C_2  and  N_6 
REMARK    3  A    between atoms: C_3  and  O_5 
ROOT
HETATM    1  C   UNK N   1      23.376  11.730   9.520  0.00  0.00     0.043 C 
HETATM    2  C   UNK N   1      22.692  12.109  10.819  0.00  0.00     0.169 C 
ENDROOT
BRANCH   2   3
HETATM    3  C   UNK N   1      21.211  12.287  10.928  0.00  0.00     0.162 C 
HETATM    4  O   UNK N   1      20.608  12.913  10.074  0.00  0.00    -0.648 OA
BRANCH   3   5
HETATM    5  O   UNK N   1      20.537  11.758  11.969  0.00  0.00    -0.775 OA
HETATM    6  H   UNK N   1      20.293  10.854  11.958  0.00  0.00     0.167 HD
ENDBRANCH   3   5
ENDBRANCH   2   3
BRANCH   2   7
HETATM    7  N   UNK N   1      23.518  12.303  11.999  0.00  0.00    -0.418 N 
HETATM    8  H   UNK N   1      23.327  11.770  12.848  0.00  0.00     0.150 HD
HETATM    9  H   UNK N   1      24.288  12.971  11.978  0.00  0.00     0.150 HD
ENDBRANCH   2   7
TORSDOF 3
ENDMDL
MODEL 9
REMARK VINA RESULT:      -3.0     15.667     16.084
REMARK  3 active torsions:
REMARK  status: ('A' for Active; 'I' for Inactive)
REMARK    1  A    between atoms: C_2  and  C_3 
REMARK    2  A    between atoms: C_2  and  N_6 
REMARK    3  A    between atoms: C_3  and  O_5 
ROOT
HETATM    1  C   UNK N   1      20.422  16.934   3.375  0.00  0.00     0.043 C 
HETATM    2  C   UNK N   1      19.830  17.565   2.130  0.00  0.00     0.169 C 
ENDROOT
BRANCH   2   3
HETATM    3  C   UNK N   1      20.277  17.199   0.750  0.00  0.00     0.162 C 
HETATM    4  O   UNK N   1      20.591  16.049   0.497  0.00  0.00    -0.648 OA
BRANCH   3   5
HETATM    5  O   UNK N   1      20.334  18.136  -0.218  0.00  0.00    -0.775 OA
HETATM    6  H   UNK N   1      19.770  18.883  -0.179  0.00  0.00     0.167 HD
ENDBRANCH   3   5
ENDBRANCH   2   3
BRANCH   2   7
HETATM    7  N   UNK N   1      18.787  18.563   2.296  0.00  0.00    -0.418 N 
HETATM    8  H   UNK N   1      18.067  18.672   1.580  0.00  0.00     0.150 HD
HETATM    9  H   UNK N   1      18.774  19.155   3.126  0.00  0.00     0.150 HD
ENDBRANCH   2   7
TORSDOF 3
ENDMDL
