MODEL 1
REMARK VINA RESULT:      -6.8      0.000      0.000
REMARK  18 active torsions:
REMARK  status: ('A' for Active; 'I' for Inactive)
REMARK    1  A    between atoms: C_35  and  C_10 
REMARK    2  A    between atoms: C_18  and  C_15 
REMARK    3  A    between atoms: O_44  and  C_15 
REMARK    4  A    between atoms: C_22  and  C_16 
REMARK    5  A    between atoms: O_43  and  C_16 
REMARK    6  A    between atoms: C_26  and  C_17 
REMARK    7  A    between atoms: O_45  and  C_17 
REMARK    8  A    between atoms: C_24  and  C_18 
REMARK    9  A    between atoms: O_44  and  C_20 
REMARK   10  A    between atoms: O_46  and  C_21 
REMARK   11  A    between atoms: C_27  and  O_39 
REMARK   12  A    between atoms: C_29  and  O_40 
REMARK   13  A    between atoms: C_30  and  O_41 
REMARK   14  A    between atoms: C_31  and  O_42 
REMARK   15  A    between atoms: C_32  and  O_48 
REMARK   16  A    between atoms: C_33  and  O_46 
REMARK   17  A    between atoms: C_34  and  O_48 
REMARK   18  A    between atoms: O_45  and  C_35 
ROOT
HETATM    1  C   UNK N   1      27.410  15.815   6.829  0.00  0.00     0.013 C 
HETATM    2  C   UNK N   1      27.430  18.731   6.637  0.00  0.00     0.027 C 
HETATM    3  C   UNK N   1      31.439  16.098   3.911  0.00  0.00     0.012 C 
HETATM    4  C   UNK N   1      30.379  15.159   4.507  0.00  0.00     0.010 C 
HETATM    5  C   UNK N   1      25.798  20.381   4.644  0.00  0.00     0.068 C 
HETATM    6  C   UNK N   1      29.083  18.465   4.815  0.00  0.00    -0.007 C 
HETATM    7  C   UNK N   1      28.111  15.456   5.527  0.00  0.00     0.021 C 
HETATM    8  C   UNK N   1      31.322  17.398   4.678  0.00  0.00     0.038 C 
HETATM    9  C   UNK N   1      29.544  15.979   5.507  0.00  0.00     0.021 C 
HETATM   10  C   UNK N   1      25.358  18.994   4.345  0.00  0.00    -0.066 C 
HETATM   11  C   UNK N   1      29.870  17.371   5.048  0.00  0.00    -0.072 C 
HETATM   12  C   UNK N   1      27.308  20.220   4.650  0.00  0.00     0.138 C 
HETATM   13  C   UNK N   1      26.346  18.084   4.519  0.00  0.00    -0.031 C 
HETATM   14  C   UNK N   1      27.302  15.711   4.218  0.00  0.00     0.156 C 
HETATM   15  C   UNK N   1      26.041  16.595   4.360  0.00  0.00     0.184 C 
HETATM   16  C   UNK N   1      27.592  18.759   5.120  0.00  0.00     0.026 C 
ENDROOT
BRANCH  15  17
HETATM   17  O   UNK N   1      25.128  16.247   5.414  0.00  0.00    -0.346 OA
BRANCH  17  18
HETATM   18  C   UNK N   1      24.346  15.062   5.282  0.00  0.00     0.292 C 
HETATM   19  C   UNK N   1      23.546  14.688   6.549  0.00  0.00     0.205 C 
HETATM   20  C   UNK N   1      22.842  13.338   6.293  0.00  0.00     0.196 C 
HETATM   21  C   UNK N   1      21.982  13.470   5.024  0.00  0.00     0.181 C 
HETATM   22  C   UNK N   1      22.855  13.935   3.840  0.00  0.00     0.180 C 
HETATM   23  O   UNK N   1      23.522  15.132   4.146  0.00  0.00    -0.348 OA
BRANCH  19  24
HETATM   24  O   UNK N   1      22.588  15.663   6.843  0.00  0.00    -0.388 OA
HETATM   25  H   UNK N   1      22.116  16.393   7.274  0.00  0.00     0.210 HD
ENDBRANCH  19  24
BRANCH  20  26
HETATM   26  O   UNK N   1      22.030  12.971   7.356  0.00  0.00    -0.311 OA
BRANCH  26  27
HETATM   27  C   UNK N   1      22.419  12.914   8.657  0.00  0.00     0.255 C 
HETATM   28  C   UNK N   1      23.236  11.761   9.125  0.00  0.00     0.126 C 
HETATM   29  O   UNK N   1      22.127  13.802   9.444  0.00  0.00    -0.266 OA
ENDBRANCH  26  27
ENDBRANCH  20  26
BRANCH  21  30
HETATM   30  O   UNK N   1      21.372  12.249   4.724  0.00  0.00    -0.390 OA
HETATM   31  H   UNK N   1      21.912  11.489   4.458  0.00  0.00     0.210 HD
ENDBRANCH  21  30
BRANCH  22  32
HETATM   32  C   UNK N   1      21.971  14.310   2.656  0.00  0.00     0.203 C 
BRANCH  32  33
HETATM   33  O   UNK N   1      21.802  15.692   2.484  0.00  0.00    -0.374 OA
BRANCH  33  34
HETATM   34  C   UNK N   1      20.443  16.008   2.189  0.00  0.00     0.071 C 
HETATM   35  C   UNK N   1      19.604  14.740   2.251  0.00  0.00     0.050 C 
HETATM   36  C   UNK N   1      20.192  16.688   0.832  0.00  0.00     0.050 C 
BRANCH  34  37
HETATM   37  C   UNK N   1      19.955  16.989   3.214  0.00  0.00    -0.000 C 
HETATM   38  C   UNK N   1      20.027  16.740   4.521  0.00  0.00     0.010 C 
ENDBRANCH  34  37
ENDBRANCH  33  34
ENDBRANCH  32  33
ENDBRANCH  22  32
ENDBRANCH  17  18
ENDBRANCH  15  17
BRANCH  14  39
HETATM   39  O   UNK N   1      28.094  16.199   3.173  0.00  0.00    -0.392 OA
HETATM   40  H   UNK N   1      28.669  15.932   2.439  0.00  0.00     0.210 HD
ENDBRANCH  14  39
BRANCH  10  41
HETATM   41  C   UNK N   1      23.915  18.679   3.975  0.00  0.00     0.035 C 
HETATM   42  C   UNK N   1      23.039  18.660   5.221  0.00  0.00     0.017 C 
BRANCH  41  43
HETATM   43  C   UNK N   1      23.358  19.577   2.871  0.00  0.00     0.187 C 
BRANCH  43  44
HETATM   44  O   UNK N   1      22.469  20.520   3.333  0.00  0.00    -0.321 OA
BRANCH  44  45
HETATM   45  C   UNK N   1      21.169  20.508   2.943  0.00  0.00     0.254 C 
HETATM   46  C   UNK N   1      20.833  20.357   1.502  0.00  0.00     0.126 C 
HETATM   47  O   UNK N   1      20.266  20.636   3.761  0.00  0.00    -0.266 OA
ENDBRANCH  44  45
ENDBRANCH  43  44
ENDBRANCH  41  43
ENDBRANCH  10  41
BRANCH  12  48
HETATM   48  O   UNK N   1      27.725  20.388   3.322  0.00  0.00    -0.394 OA
HETATM   49  H   UNK N   1      27.948  20.229   2.391  0.00  0.00     0.210 HD
ENDBRANCH  12  48
BRANCH   8  50
HETATM   50  C   UNK N   1      32.225  17.282   5.911  0.00  0.00     0.176 C 
BRANCH  50  51
HETATM   51  O   UNK N   1      33.511  17.753   5.648  0.00  0.00    -0.395 OA
HETATM   52  C   UNK N   1      34.245  17.380   6.775  0.00  0.00     0.201 C 
ENDBRANCH  50  51
ENDBRANCH   8  50
TORSDOF 18
ENDMDL
MODEL 2
REMARK VINA RESULT:      -6.8      2.861      5.175
REMARK  18 active torsions:
REMARK  status: ('A' for Active; 'I' for Inactive)
REMARK    1  A    between atoms: C_35  and  C_10 
REMARK    2  A    between atoms: C_18  and  C_15 
REMARK    3  A    between atoms: O_44  and  C_15 
REMARK    4  A    between atoms: C_22  and  C_16 
REMARK    5  A    between atoms: O_43  and  C_16 
REMARK    6  A    between atoms: C_26  and  C_17 
REMARK    7  A    between atoms: O_45  and  C_17 
REMARK    8  A    between atoms: C_24  and  C_18 
REMARK    9  A    between atoms: O_44  and  C_20 
REMARK   10  A    between atoms: O_46  and  C_21 
REMARK   11  A    between atoms: C_27  and  O_39 
REMARK   12  A    between atoms: C_29  and  O_40 
REMARK   13  A    between atoms: C_30  and  O_41 
REMARK   14  A    between atoms: C_31  and  O_42 
REMARK   15  A    between atoms: C_32  and  O_48 
REMARK   16  A    between atoms: C_33  and  O_46 
REMARK   17  A    between atoms: C_34  and  O_48 
REMARK   18  A    between atoms: O_45  and  C_35 
ROOT
HETATM    1  C   UNK N   1      29.018  14.508   5.321  0.00  0.00     0.013 C 
HETATM    2  C   UNK N   1      28.590  17.127   6.547  0.00  0.00     0.027 C 
HETATM    3  C   UNK N   1      32.911  16.726   3.140  0.00  0.00     0.012 C 
HETATM    4  C   UNK N   1      32.016  15.477   3.151  0.00  0.00     0.010 C 
HETATM    5  C   UNK N   1      26.694  19.283   5.490  0.00  0.00     0.068 C 
HETATM    6  C   UNK N   1      30.235  18.006   4.922  0.00  0.00    -0.007 C 
HETATM    7  C   UNK N   1      29.746  14.923   4.051  0.00  0.00     0.021 C 
HETATM    8  C   UNK N   1      32.609  17.466   4.427  0.00  0.00     0.038 C 
HETATM    9  C   UNK N   1      31.081  15.587   4.369  0.00  0.00     0.021 C 
HETATM   10  C   UNK N   1      26.466  18.164   4.539  0.00  0.00    -0.066 C 
HETATM   11  C   UNK N   1      31.184  17.059   4.651  0.00  0.00    -0.072 C 
HETATM   12  C   UNK N   1      28.211  19.354   5.509  0.00  0.00     0.138 C 
HETATM   13  C   UNK N   1      27.585  17.432   4.316  0.00  0.00    -0.031 C 
HETATM   14  C   UNK N   1      28.887  15.659   2.977  0.00  0.00     0.156 C 
HETATM   15  C   UNK N   1      27.508  16.178   3.447  0.00  0.00     0.184 C 
HETATM   16  C   UNK N   1      28.722  17.903   5.240  0.00  0.00     0.026 C 
ENDROOT
BRANCH  15  17
HETATM   17  O   UNK N   1      26.676  15.241   4.151  0.00  0.00    -0.346 OA
BRANCH  17  18
HETATM   18  C   UNK N   1      25.991  14.236   3.405  0.00  0.00     0.292 C 
HETATM   19  C   UNK N   1      25.018  14.791   2.341  0.00  0.00     0.205 C 
HETATM   20  C   UNK N   1      24.277  13.598   1.698  0.00  0.00     0.196 C 
HETATM   21  C   UNK N   1      25.324  12.619   1.140  0.00  0.00     0.181 C 
HETATM   22  C   UNK N   1      26.301  12.197   2.258  0.00  0.00     0.180 C 
HETATM   23  O   UNK N   1      26.900  13.318   2.853  0.00  0.00    -0.348 OA
BRANCH  19  24
HETATM   24  O   UNK N   1      25.708  15.499   1.352  0.00  0.00    -0.388 OA
HETATM   25  H   UNK N   1      26.192  15.715   0.540  0.00  0.00     0.210 HD
ENDBRANCH  19  24
BRANCH  20  26
HETATM   26  O   UNK N   1      23.443  14.006   0.667  0.00  0.00    -0.311 OA
BRANCH  26  27
HETATM   27  C   UNK N   1      22.088  14.082   0.739  0.00  0.00     0.255 C 
HETATM   28  C   UNK N   1      21.292  12.830   0.860  0.00  0.00     0.126 C 
HETATM   29  O   UNK N   1      21.513  15.160   0.726  0.00  0.00    -0.266 OA
ENDBRANCH  26  27
ENDBRANCH  20  26
BRANCH  21  30
HETATM   30  O   UNK N   1      24.695  11.494   0.600  0.00  0.00    -0.390 OA
HETATM   31  H   UNK N   1      24.846  11.250  -0.326  0.00  0.00     0.210 HD
ENDBRANCH  21  30
BRANCH  22  32
HETATM   32  C   UNK N   1      27.479  11.435   1.661  0.00  0.00     0.203 C 
BRANCH  32  33
HETATM   33  O   UNK N   1      28.649  12.199   1.538  0.00  0.00    -0.374 OA
BRANCH  33  34
HETATM   34  C   UNK N   1      29.797  11.439   1.913  0.00  0.00     0.071 C 
HETATM   35  C   UNK N   1      31.055  12.243   1.615  0.00  0.00     0.050 C 
HETATM   36  C   UNK N   1      29.936  10.060   1.244  0.00  0.00     0.050 C 
BRANCH  34  37
HETATM   37  C   UNK N   1      29.713  11.154   3.383  0.00  0.00    -0.000 C 
HETATM   38  C   UNK N   1      30.745  11.354   4.203  0.00  0.00     0.010 C 
ENDBRANCH  34  37
ENDBRANCH  33  34
ENDBRANCH  32  33
ENDBRANCH  22  32
ENDBRANCH  17  18
ENDBRANCH  15  17
BRANCH  14  39
HETATM   39  O   UNK N   1      29.578  16.695   2.341  0.00  0.00    -0.392 OA
HETATM   40  H   UNK N   1      29.593  17.656   2.205  0.00  0.00     0.210 HD
ENDBRANCH  14  39
BRANCH  10  41
HETATM   41  C   UNK N   1      25.083  17.865   3.978  0.00  0.00     0.035 C 
HETATM   42  C   UNK N   1      24.203  17.227   5.045  0.00  0.00     0.017 C 
BRANCH  41  43
HETATM   43  C   UNK N   1      24.423  19.069   3.307  0.00  0.00     0.187 C 
BRANCH  43  44
HETATM   44  O   UNK N   1      23.081  19.184   3.590  0.00  0.00    -0.321 OA
BRANCH  44  45
HETATM   45  C   UNK N   1      22.320  20.139   2.999  0.00  0.00     0.254 C 
HETATM   46  C   UNK N   1      20.942  19.810   2.546  0.00  0.00     0.126 C 
HETATM   47  O   UNK N   1      22.759  21.269   2.817  0.00  0.00    -0.266 OA
ENDBRANCH  44  45
ENDBRANCH  43  44
ENDBRANCH  41  43
ENDBRANCH  10  41
BRANCH  12  48
HETATM   48  O   UNK N   1      28.577  20.197   4.450  0.00  0.00    -0.394 OA
HETATM   49  H   UNK N   1      28.710  20.974   3.884  0.00  0.00     0.210 HD
ENDBRANCH  12  48
BRANCH   8  50
HETATM   50  C   UNK N   1      33.538  16.900   5.506  0.00  0.00     0.176 C 
BRANCH  50  51
HETATM   51  O   UNK N   1      34.217  17.915   6.178  0.00  0.00    -0.395 OA
HETATM   52  C   UNK N   1      33.627  17.938   7.443  0.00  0.00     0.201 C 
ENDBRANCH  50  51
ENDBRANCH   8  50
TORSDOF 18
ENDMDL
MODEL 3
REMARK VINA RESULT:      -6.7      2.585      3.603
REMARK  18 active torsions:
REMARK  status: ('A' for Active; 'I' for Inactive)
REMARK    1  A    between atoms: C_35  and  C_10 
REMARK    2  A    between atoms: C_18  and  C_15 
REMARK    3  A    between atoms: O_44  and  C_15 
REMARK    4  A    between atoms: C_22  and  C_16 
REMARK    5  A    between atoms: O_43  and  C_16 
REMARK    6  A    between atoms: C_26  and  C_17 
REMARK    7  A    between atoms: O_45  and  C_17 
REMARK    8  A    between atoms: C_24  and  C_18 
REMARK    9  A    between atoms: O_44  and  C_20 
REMARK   10  A    between atoms: O_46  and  C_21 
REMARK   11  A    between atoms: C_27  and  O_39 
REMARK   12  A    between atoms: C_29  and  O_40 
REMARK   13  A    between atoms: C_30  and  O_41 
REMARK   14  A    between atoms: C_31  and  O_42 
REMARK   15  A    between atoms: C_32  and  O_48 
REMARK   16  A    between atoms: C_33  and  O_46 
REMARK   17  A    between atoms: C_34  and  O_48 
REMARK   18  A    between atoms: O_45  and  C_35 
ROOT
HETATM    1  C   UNK N   1      28.997  14.298   4.849  0.00  0.00     0.013 C 
HETATM    2  C   UNK N   1      28.390  16.640   6.490  0.00  0.00     0.027 C 
HETATM    3  C   UNK N   1      33.000  16.928   3.472  0.00  0.00     0.012 C 
HETATM    4  C   UNK N   1      32.144  15.688   3.173  0.00  0.00     0.010 C 
HETATM    5  C   UNK N   1      26.532  18.931   5.678  0.00  0.00     0.068 C 
HETATM    6  C   UNK N   1      30.144  17.824   5.208  0.00  0.00    -0.007 C 
HETATM    7  C   UNK N   1      29.820  14.949   3.747  0.00  0.00     0.021 C 
HETATM    8  C   UNK N   1      32.566  17.413   4.839  0.00  0.00     0.038 C 
HETATM    9  C   UNK N   1      31.104  15.560   4.300  0.00  0.00     0.021 C 
HETATM   10  C   UNK N   1      26.420  18.005   4.521  0.00  0.00    -0.066 C 
HETATM   11  C   UNK N   1      31.139  16.955   4.855  0.00  0.00    -0.072 C 
HETATM   12  C   UNK N   1      28.039  19.016   5.846  0.00  0.00     0.138 C 
HETATM   13  C   UNK N   1      27.574  17.340   4.271  0.00  0.00    -0.031 C 
HETATM   14  C   UNK N   1      29.037  15.861   2.752  0.00  0.00     0.156 C 
HETATM   15  C   UNK N   1      27.608  16.267   3.184  0.00  0.00     0.184 C 
HETATM   16  C   UNK N   1      28.613  17.646   5.365  0.00  0.00     0.026 C 
ENDROOT
BRANCH  15  17
HETATM   17  O   UNK N   1      26.745  15.206   3.626  0.00  0.00    -0.346 OA
BRANCH  17  18
HETATM   18  C   UNK N   1      26.113  14.382   2.647  0.00  0.00     0.292 C 
HETATM   19  C   UNK N   1      26.465  12.882   2.762  0.00  0.00     0.205 C 
HETATM   20  C   UNK N   1      25.800  12.141   1.581  0.00  0.00     0.196 C 
HETATM   21  C   UNK N   1      24.291  12.436   1.610  0.00  0.00     0.181 C 
HETATM   22  C   UNK N   1      24.049  13.960   1.584  0.00  0.00     0.180 C 
HETATM   23  O   UNK N   1      24.724  14.594   2.639  0.00  0.00    -0.348 OA
BRANCH  19  24
HETATM   24  O   UNK N   1      25.999  12.349   3.967  0.00  0.00    -0.388 OA
HETATM   25  H   UNK N   1      25.542  11.787   4.613  0.00  0.00     0.210 HD
ENDBRANCH  19  24
BRANCH  20  26
HETATM   26  O   UNK N   1      25.997  10.770   1.658  0.00  0.00    -0.311 OA
BRANCH  26  27
HETATM   27  C   UNK N   1      26.883  10.062   0.910  0.00  0.00     0.255 C 
HETATM   28  C   UNK N   1      26.527   8.686   0.466  0.00  0.00     0.126 C 
HETATM   29  O   UNK N   1      27.957  10.540   0.578  0.00  0.00    -0.266 OA
ENDBRANCH  26  27
ENDBRANCH  20  26
BRANCH  21  30
HETATM   30  O   UNK N   1      23.659  11.829   0.520  0.00  0.00    -0.390 OA
HETATM   31  H   UNK N   1      23.120  11.034   0.652  0.00  0.00     0.210 HD
ENDBRANCH  21  30
BRANCH  22  32
HETATM   32  C   UNK N   1      22.581  14.260   1.866  0.00  0.00     0.203 C 
BRANCH  32  33
HETATM   33  O   UNK N   1      21.932  14.953   0.834  0.00  0.00    -0.374 OA
BRANCH  33  34
HETATM   34  C   UNK N   1      20.715  15.537   1.297  0.00  0.00     0.071 C 
HETATM   35  C   UNK N   1      19.619  14.482   1.303  0.00  0.00     0.050 C 
HETATM   36  C   UNK N   1      20.211  16.753   0.502  0.00  0.00     0.050 C 
BRANCH  34  37
HETATM   37  C   UNK N   1      20.938  16.046   2.690  0.00  0.00    -0.000 C 
HETATM   38  C   UNK N   1      19.982  16.672   3.376  0.00  0.00     0.010 C 
ENDBRANCH  34  37
ENDBRANCH  33  34
ENDBRANCH  32  33
ENDBRANCH  22  32
ENDBRANCH  17  18
ENDBRANCH  15  17
BRANCH  14  39
HETATM   39  O   UNK N   1      29.751  17.005   2.382  0.00  0.00    -0.392 OA
HETATM   40  H   UNK N   1      29.788  17.969   2.485  0.00  0.00     0.210 HD
ENDBRANCH  14  39
BRANCH  10  41
HETATM   41  C   UNK N   1      25.099  17.798   3.793  0.00  0.00     0.035 C 
HETATM   42  C   UNK N   1      24.129  17.012   4.664  0.00  0.00     0.017 C 
BRANCH  41  43
HETATM   43  C   UNK N   1      24.494  19.091   3.248  0.00  0.00     0.187 C 
BRANCH  43  44
HETATM   44  O   UNK N   1      23.130  19.168   3.416  0.00  0.00    -0.321 OA
BRANCH  44  45
HETATM   45  C   UNK N   1      22.433  20.253   2.994  0.00  0.00     0.254 C 
HETATM   46  C   UNK N   1      20.968  20.145   2.763  0.00  0.00     0.126 C 
HETATM   47  O   UNK N   1      22.998  21.320   2.784  0.00  0.00    -0.266 OA
ENDBRANCH  44  45
ENDBRANCH  43  44
ENDBRANCH  41  43
ENDBRANCH  10  41
BRANCH  12  48
HETATM   48  O   UNK N   1      28.471  20.044   4.997  0.00  0.00    -0.394 OA
HETATM   49  H   UNK N   1      28.526  20.695   4.280  0.00  0.00     0.210 HD
ENDBRANCH  12  48
BRANCH   8  50
HETATM   50  C   UNK N   1      33.415  16.669   5.876  0.00  0.00     0.176 C 
BRANCH  50  51
HETATM   51  O   UNK N   1      34.434  17.477   6.376  0.00  0.00    -0.395 OA
HETATM   52  C   UNK N   1      33.955  17.898   7.617  0.00  0.00     0.201 C 
ENDBRANCH  50  51
ENDBRANCH   8  50
TORSDOF 18
ENDMDL
MODEL 4
REMARK VINA RESULT:      -6.6      2.890      8.569
REMARK  18 active torsions:
REMARK  status: ('A' for Active; 'I' for Inactive)
REMARK    1  A    between atoms: C_35  and  C_10 
REMARK    2  A    between atoms: C_18  and  C_15 
REMARK    3  A    between atoms: O_44  and  C_15 
REMARK    4  A    between atoms: C_22  and  C_16 
REMARK    5  A    between atoms: O_43  and  C_16 
REMARK    6  A    between atoms: C_26  and  C_17 
REMARK    7  A    between atoms: O_45  and  C_17 
REMARK    8  A    between atoms: C_24  and  C_18 
REMARK    9  A    between atoms: O_44  and  C_20 
REMARK   10  A    between atoms: O_46  and  C_21 
REMARK   11  A    between atoms: C_27  and  O_39 
REMARK   12  A    between atoms: C_29  and  O_40 
REMARK   13  A    between atoms: C_30  and  O_41 
REMARK   14  A    between atoms: C_31  and  O_42 
REMARK   15  A    between atoms: C_32  and  O_48 
REMARK   16  A    between atoms: C_33  and  O_46 
REMARK   17  A    between atoms: C_34  and  O_48 
REMARK   18  A    between atoms: O_45  and  C_35 
ROOT
HETATM    1  C   UNK N   1      25.261  16.129   2.738  0.00  0.00     0.013 C 
HETATM    2  C   UNK N   1      26.011  18.890   3.340  0.00  0.00     0.027 C 
HETATM    3  C   UNK N   1      21.635  16.920   6.063  0.00  0.00     0.012 C 
HETATM    4  C   UNK N   1      22.375  15.858   5.235  0.00  0.00     0.010 C 
HETATM    5  C   UNK N   1      28.137  19.740   5.369  0.00  0.00     0.068 C 
HETATM    6  C   UNK N   1      24.463  18.747   5.266  0.00  0.00    -0.007 C 
HETATM    7  C   UNK N   1      24.574  15.748   4.041  0.00  0.00     0.021 C 
HETATM    8  C   UNK N   1      22.037  18.258   5.479  0.00  0.00     0.038 C 
HETATM    9  C   UNK N   1      23.330  16.598   4.281  0.00  0.00     0.021 C 
HETATM   10  C   UNK N   1      28.220  18.257   5.423  0.00  0.00    -0.066 C 
HETATM   11  C   UNK N   1      23.406  17.934   4.962  0.00  0.00    -0.072 C 
HETATM   12  C   UNK N   1      26.639  19.959   5.495  0.00  0.00     0.138 C 
HETATM   13  C   UNK N   1      27.020  17.660   5.224  0.00  0.00    -0.031 C 
HETATM   14  C   UNK N   1      25.502  15.579   5.283  0.00  0.00     0.156 C 
HETATM   15  C   UNK N   1      26.938  16.136   5.140  0.00  0.00     0.184 C 
HETATM   16  C   UNK N   1      25.957  18.710   4.855  0.00  0.00     0.026 C 
ENDROOT
BRANCH  15  17
HETATM   17  O   UNK N   1      27.661  15.750   3.959  0.00  0.00    -0.346 OA
BRANCH  17  18
HETATM   18  C   UNK N   1      28.258  14.455   3.912  0.00  0.00     0.292 C 
HETATM   19  C   UNK N   1      28.001  13.689   2.596  0.00  0.00     0.205 C 
HETATM   20  C   UNK N   1      28.609  12.276   2.736  0.00  0.00     0.196 C 
HETATM   21  C   UNK N   1      30.098  12.421   3.097  0.00  0.00     0.181 C 
HETATM   22  C   UNK N   1      30.251  13.278   4.371  0.00  0.00     0.180 C 
HETATM   23  O   UNK N   1      29.628  14.527   4.216  0.00  0.00    -0.348 OA
BRANCH  19  24
HETATM   24  O   UNK N   1      28.590  14.344   1.511  0.00  0.00    -0.388 OA
HETATM   25  H   UNK N   1      29.235  14.798   0.946  0.00  0.00     0.210 HD
ENDBRANCH  19  24
BRANCH  20  26
HETATM   26  O   UNK N   1      28.496  11.548   1.560  0.00  0.00    -0.311 OA
BRANCH  26  27
HETATM   27  C   UNK N   1      27.976  10.297   1.460  0.00  0.00     0.255 C 
HETATM   28  C   UNK N   1      26.582  10.123   0.967  0.00  0.00     0.126 C 
HETATM   29  O   UNK N   1      28.638   9.311   1.747  0.00  0.00    -0.266 OA
ENDBRANCH  26  27
ENDBRANCH  20  26
BRANCH  21  30
HETATM   30  O   UNK N   1      30.673  11.162   3.290  0.00  0.00    -0.390 OA
HETATM   31  H   UNK N   1      31.359  10.843   2.684  0.00  0.00     0.210 HD
ENDBRANCH  21  30
BRANCH  22  32
HETATM   32  C   UNK N   1      31.718  13.634   4.586  0.00  0.00     0.203 C 
BRANCH  32  33
HETATM   33  O   UNK N   1      31.935  14.978   4.925  0.00  0.00    -0.374 OA
BRANCH  33  34
HETATM   34  C   UNK N   1      33.222  15.414   4.489  0.00  0.00     0.071 C 
HETATM   35  C   UNK N   1      33.155  15.793   3.017  0.00  0.00     0.050 C 
HETATM   36  C   UNK N   1      34.369  14.407   4.678  0.00  0.00     0.050 C 
BRANCH  34  37
HETATM   37  C   UNK N   1      33.614  16.611   5.303  0.00  0.00    -0.000 C 
HETATM   38  C   UNK N   1      34.091  16.498   6.543  0.00  0.00     0.010 C 
ENDBRANCH  34  37
ENDBRANCH  33  34
ENDBRANCH  32  33
ENDBRANCH  22  32
ENDBRANCH  17  18
ENDBRANCH  15  17
BRANCH  14  39
HETATM   39  O   UNK N   1      24.931  16.071   6.462  0.00  0.00    -0.392 OA
HETATM   40  H   UNK N   1      24.139  16.494   6.829  0.00  0.00     0.210 HD
ENDBRANCH  14  39
BRANCH  10  41
HETATM   41  C   UNK N   1      29.552  17.540   5.595  0.00  0.00     0.035 C 
HETATM   42  C   UNK N   1      30.561  18.041   4.570  0.00  0.00     0.017 C 
BRANCH  41  43
HETATM   43  C   UNK N   1      30.087  17.583   7.026  0.00  0.00     0.187 C 
BRANCH  43  44
HETATM   44  O   UNK N   1      29.218  17.050   7.950  0.00  0.00    -0.321 OA
BRANCH  44  45
HETATM   45  C   UNK N   1      28.815  17.769   9.028  0.00  0.00     0.254 C 
HETATM   46  C   UNK N   1      29.758  18.719   9.676  0.00  0.00     0.126 C 
HETATM   47  O   UNK N   1      27.687  17.634   9.487  0.00  0.00    -0.266 OA
ENDBRANCH  44  45
ENDBRANCH  43  44
ENDBRANCH  41  43
ENDBRANCH  10  41
BRANCH  12  48
HETATM   48  O   UNK N   1      26.364  20.007   6.869  0.00  0.00    -0.394 OA
HETATM   49  H   UNK N   1      25.987  19.840   7.747  0.00  0.00     0.210 HD
ENDBRANCH  12  48
BRANCH   8  50
HETATM   50  C   UNK N   1      21.059  18.570   4.341  0.00  0.00     0.176 C 
BRANCH  50  51
HETATM   51  O   UNK N   1      20.817  19.939   4.237  0.00  0.00    -0.395 OA
HETATM   52  C   UNK N   1      21.155  20.243   2.918  0.00  0.00     0.201 C 
ENDBRANCH  50  51
ENDBRANCH   8  50
TORSDOF 18
ENDMDL
MODEL 5
REMARK VINA RESULT:      -6.3      1.665      3.531
REMARK  18 active torsions:
REMARK  status: ('A' for Active; 'I' for Inactive)
REMARK    1  A    between atoms: C_35  and  C_10 
REMARK    2  A    between atoms: C_18  and  C_15 
REMARK    3  A    between atoms: O_44  and  C_15 
REMARK    4  A    between atoms: C_22  and  C_16 
REMARK    5  A    between atoms: O_43  and  C_16 
REMARK    6  A    between atoms: C_26  and  C_17 
REMARK    7  A    between atoms: O_45  and  C_17 
REMARK    8  A    between atoms: C_24  and  C_18 
REMARK    9  A    between atoms: O_44  and  C_20 
REMARK   10  A    between atoms: O_46  and  C_21 
REMARK   11  A    between atoms: C_27  and  O_39 
REMARK   12  A    between atoms: C_29  and  O_40 
REMARK   13  A    between atoms: C_30  and  O_41 
REMARK   14  A    between atoms: C_31  and  O_42 
REMARK   15  A    between atoms: C_32  and  O_48 
REMARK   16  A    between atoms: C_33  and  O_46 
REMARK   17  A    between atoms: C_34  and  O_48 
REMARK   18  A    between atoms: O_45  and  C_35 
ROOT
HETATM    1  C   UNK N   1      27.196  15.190   6.267  0.00  0.00     0.013 C 
HETATM    2  C   UNK N   1      27.424  18.094   6.512  0.00  0.00     0.027 C 
HETATM    3  C   UNK N   1      31.106  15.647   3.213  0.00  0.00     0.012 C 
HETATM    4  C   UNK N   1      30.006  14.700   3.718  0.00  0.00     0.010 C 
HETATM    5  C   UNK N   1      25.835  20.135   4.878  0.00  0.00     0.068 C 
HETATM    6  C   UNK N   1      28.973  17.999   4.585  0.00  0.00    -0.007 C 
HETATM    7  C   UNK N   1      27.812  14.988   4.891  0.00  0.00     0.021 C 
HETATM    8  C   UNK N   1      31.119  16.819   4.170  0.00  0.00     0.038 C 
HETATM    9  C   UNK N   1      29.278  15.411   4.872  0.00  0.00     0.021 C 
HETATM   10  C   UNK N   1      25.280  18.842   4.399  0.00  0.00    -0.066 C 
HETATM   11  C   UNK N   1      29.686  16.833   4.610  0.00  0.00    -0.072 C 
HETATM   12  C   UNK N   1      27.328  19.874   4.779  0.00  0.00     0.138 C 
HETATM   13  C   UNK N   1      26.205  17.852   4.382  0.00  0.00    -0.031 C 
HETATM   14  C   UNK N   1      26.969  15.494   3.680  0.00  0.00     0.156 C 
HETATM   15  C   UNK N   1      25.784  16.428   4.019  0.00  0.00     0.184 C 
HETATM   16  C   UNK N   1      27.522  18.343   5.010  0.00  0.00     0.026 C 
ENDROOT
BRANCH  15  17
HETATM   17  O   UNK N   1      24.894  15.986   5.057  0.00  0.00    -0.346 OA
BRANCH  17  18
HETATM   18  C   UNK N   1      23.679  15.335   4.689  0.00  0.00     0.292 C 
HETATM   19  C   UNK N   1      23.834  14.312   3.541  0.00  0.00     0.205 C 
HETATM   20  C   UNK N   1      22.430  13.776   3.184  0.00  0.00     0.196 C 
HETATM   21  C   UNK N   1      21.790  13.198   4.458  0.00  0.00     0.181 C 
HETATM   22  C   UNK N   1      21.768  14.268   5.570  0.00  0.00     0.180 C 
HETATM   23  O   UNK N   1      23.056  14.768   5.813  0.00  0.00    -0.348 OA
BRANCH  19  24
HETATM   24  O   UNK N   1      24.654  13.247   3.926  0.00  0.00    -0.388 OA
HETATM   25  H   UNK N   1      25.202  12.447   3.897  0.00  0.00     0.210 HD
ENDBRANCH  19  24
BRANCH  20  26
HETATM   26  O   UNK N   1      22.489  12.784   2.216  0.00  0.00    -0.311 OA
BRANCH  26  27
HETATM   27  C   UNK N   1      22.263  12.969   0.888  0.00  0.00     0.255 C 
HETATM   28  C   UNK N   1      23.362  12.709  -0.082  0.00  0.00     0.126 C 
HETATM   29  O   UNK N   1      21.170  13.325   0.476  0.00  0.00    -0.266 OA
ENDBRANCH  26  27
ENDBRANCH  20  26
BRANCH  21  30
HETATM   30  O   UNK N   1      20.492  12.754   4.189  0.00  0.00    -0.390 OA
HETATM   31  H   UNK N   1      20.300  12.285   3.363  0.00  0.00     0.210 HD
ENDBRANCH  21  30
BRANCH  22  32
HETATM   32  C   UNK N   1      21.373  13.632   6.898  0.00  0.00     0.203 C 
BRANCH  32  33
HETATM   33  O   UNK N   1      20.180  14.135   7.439  0.00  0.00    -0.374 OA
BRANCH  33  34
HETATM   34  C   UNK N   1      20.424  14.819   8.667  0.00  0.00     0.071 C 
HETATM   35  C   UNK N   1      21.637  14.209   9.353  0.00  0.00     0.050 C 
HETATM   36  C   UNK N   1      19.257  14.832   9.670  0.00  0.00     0.050 C 
BRANCH  34  37
HETATM   37  C   UNK N   1      20.689  16.262   8.356  0.00  0.00    -0.000 C 
HETATM   38  C   UNK N   1      19.874  17.235   8.763  0.00  0.00     0.010 C 
ENDBRANCH  34  37
ENDBRANCH  33  34
ENDBRANCH  32  33
ENDBRANCH  22  32
ENDBRANCH  17  18
ENDBRANCH  15  17
BRANCH  14  39
HETATM   39  O   UNK N   1      27.749  16.082   2.678  0.00  0.00    -0.392 OA
HETATM   40  H   UNK N   1      28.072  16.931   2.337  0.00  0.00     0.210 HD
ENDBRANCH  14  39
BRANCH  10  41
HETATM   41  C   UNK N   1      23.804  18.684   4.064  0.00  0.00     0.035 C 
HETATM   42  C   UNK N   1      22.977  18.588   5.340  0.00  0.00     0.017 C 
BRANCH  41  43
HETATM   43  C   UNK N   1      23.281  19.744   3.096  0.00  0.00     0.187 C 
BRANCH  43  44
HETATM   44  O   UNK N   1      22.069  20.276   3.472  0.00  0.00    -0.321 OA
BRANCH  44  45
HETATM   45  C   UNK N   1      21.033  20.346   2.599  0.00  0.00     0.254 C 
HETATM   46  C   UNK N   1      19.898  19.393   2.722  0.00  0.00     0.126 C 
HETATM   47  O   UNK N   1      21.027  21.175   1.696  0.00  0.00    -0.266 OA
ENDBRANCH  44  45
ENDBRANCH  43  44
ENDBRANCH  41  43
ENDBRANCH  10  41
BRANCH  12  48
HETATM   48  O   UNK N   1      27.699  20.214   3.470  0.00  0.00    -0.394 OA
HETATM   49  H   UNK N   1      28.020  20.695   2.691  0.00  0.00     0.210 HD
ENDBRANCH  12  48
BRANCH   8  50
HETATM   50  C   UNK N   1      32.063  16.456   5.322  0.00  0.00     0.176 C 
BRANCH  50  51
HETATM   51  O   UNK N   1      32.010  17.404   6.343  0.00  0.00    -0.395 OA
HETATM   52  C   UNK N   1      33.344  17.573   6.717  0.00  0.00     0.201 C 
ENDBRANCH  50  51
ENDBRANCH   8  50
TORSDOF 18
ENDMDL
MODEL 6
REMARK VINA RESULT:      -6.2     12.440     16.339
REMARK  18 active torsions:
REMARK  status: ('A' for Active; 'I' for Inactive)
REMARK    1  A    between atoms: C_35  and  C_10 
REMARK    2  A    between atoms: C_18  and  C_15 
REMARK    3  A    between atoms: O_44  and  C_15 
REMARK    4  A    between atoms: C_22  and  C_16 
REMARK    5  A    between atoms: O_43  and  C_16 
REMARK    6  A    between atoms: C_26  and  C_17 
REMARK    7  A    between atoms: O_45  and  C_17 
REMARK    8  A    between atoms: C_24  and  C_18 
REMARK    9  A    between atoms: O_44  and  C_20 
REMARK   10  A    between atoms: O_46  and  C_21 
REMARK   11  A    between atoms: C_27  and  O_39 
REMARK   12  A    between atoms: C_29  and  O_40 
REMARK   13  A    between atoms: C_30  and  O_41 
REMARK   14  A    between atoms: C_31  and  O_42 
REMARK   15  A    between atoms: C_32  and  O_48 
REMARK   16  A    between atoms: C_33  and  O_46 
REMARK   17  A    between atoms: C_34  and  O_48 
REMARK   18  A    between atoms: O_45  and  C_35 
ROOT
HETATM    1  C   UNK N   1      27.815  27.136  -7.744  0.00  0.00     0.013 C 
HETATM    2  C   UNK N   1      30.305  27.473  -6.252  0.00  0.00     0.027 C 
HETATM    3  C   UNK N   1      25.647  28.220  -3.390  0.00  0.00     0.012 C 
HETATM    4  C   UNK N   1      25.418  27.689  -4.813  0.00  0.00     0.010 C 
HETATM    5  C   UNK N   1      31.908  25.212  -4.957  0.00  0.00     0.068 C 
HETATM    6  C   UNK N   1      28.921  27.447  -4.201  0.00  0.00    -0.007 C 
HETATM    7  C   UNK N   1      26.876  26.738  -6.614  0.00  0.00     0.021 C 
HETATM    8  C   UNK N   1      27.028  28.840  -3.395  0.00  0.00     0.038 C 
HETATM    9  C   UNK N   1      26.736  27.860  -5.590  0.00  0.00     0.021 C 
HETATM   10  C   UNK N   1      30.801  24.477  -5.623  0.00  0.00    -0.066 C 
HETATM   11  C   UNK N   1      27.700  28.011  -4.448  0.00  0.00    -0.072 C 
HETATM   12  C   UNK N   1      31.145  26.302  -4.226  0.00  0.00     0.138 C 
HETATM   13  C   UNK N   1      29.643  25.179  -5.636  0.00  0.00    -0.031 C 
HETATM   14  C   UNK N   1      27.097  25.319  -6.006  0.00  0.00     0.156 C 
HETATM   15  C   UNK N   1      28.427  24.621  -6.374  0.00  0.00     0.184 C 
HETATM   16  C   UNK N   1      29.873  26.596  -5.080  0.00  0.00     0.026 C 
ENDROOT
BRANCH  15  17
HETATM   17  O   UNK N   1      28.771  24.591  -7.769  0.00  0.00    -0.346 OA
BRANCH  17  18
HETATM   18  C   UNK N   1      27.945  23.848  -8.665  0.00  0.00     0.292 C 
HETATM   19  C   UNK N   1      27.521  24.630  -9.927  0.00  0.00     0.205 C 
HETATM   20  C   UNK N   1      26.551  23.743 -10.738  0.00  0.00     0.196 C 
HETATM   21  C   UNK N   1      27.248  22.404 -11.034  0.00  0.00     0.181 C 
HETATM   22  C   UNK N   1      27.714  21.749  -9.717  0.00  0.00     0.180 C 
HETATM   23  O   UNK N   1      28.541  22.618  -8.988  0.00  0.00    -0.348 OA
BRANCH  19  24
HETATM   24  O   UNK N   1      28.630  24.948 -10.717  0.00  0.00    -0.388 OA
HETATM   25  H   UNK N   1      29.543  25.103 -11.007  0.00  0.00     0.210 HD
ENDBRANCH  19  24
BRANCH  20  26
HETATM   26  O   UNK N   1      26.187  24.340 -11.937  0.00  0.00    -0.311 OA
BRANCH  26  27
HETATM   27  C   UNK N   1      25.120  25.163 -12.111  0.00  0.00     0.255 C 
HETATM   28  C   UNK N   1      25.304  26.635 -11.980  0.00  0.00     0.126 C 
HETATM   29  O   UNK N   1      24.017  24.719 -12.392  0.00  0.00    -0.266 OA
ENDBRANCH  26  27
ENDBRANCH  20  26
BRANCH  21  30
HETATM   30  O   UNK N   1      26.380  21.548 -11.718  0.00  0.00    -0.390 OA
HETATM   31  H   UNK N   1      25.703  21.912 -12.308  0.00  0.00     0.210 HD
ENDBRANCH  21  30
BRANCH  22  32
HETATM   32  C   UNK N   1      28.619  20.560 -10.018  0.00  0.00     0.203 C 
BRANCH  32  33
HETATM   33  O   UNK N   1      29.956  20.749  -9.634  0.00  0.00    -0.374 OA
BRANCH  33  34
HETATM   34  C   UNK N   1      30.466  19.592  -8.972  0.00  0.00     0.071 C 
HETATM   35  C   UNK N   1      30.262  18.372  -9.858  0.00  0.00     0.050 C 
HETATM   36  C   UNK N   1      29.862  19.291  -7.589  0.00  0.00     0.050 C 
BRANCH  34  37
HETATM   37  C   UNK N   1      31.929  19.800  -8.723  0.00  0.00    -0.000 C 
HETATM   38  C   UNK N   1      32.518  19.406  -7.594  0.00  0.00     0.010 C 
ENDBRANCH  34  37
ENDBRANCH  33  34
ENDBRANCH  32  33
ENDBRANCH  22  32
ENDBRANCH  17  18
ENDBRANCH  15  17
BRANCH  14  39
HETATM   39  O   UNK N   1      26.928  25.287  -4.617  0.00  0.00    -0.392 OA
HETATM   40  H   UNK N   1      26.794  24.695  -3.860  0.00  0.00     0.210 HD
ENDBRANCH  14  39
BRANCH  10  41
HETATM   41  C   UNK N   1      31.027  23.123  -6.281  0.00  0.00     0.035 C 
HETATM   42  C   UNK N   1      32.303  23.144  -7.113  0.00  0.00     0.017 C 
BRANCH  41  43
HETATM   43  C   UNK N   1      30.976  21.952  -5.301  0.00  0.00     0.187 C 
BRANCH  43  44
HETATM   44  O   UNK N   1      30.472  22.295  -4.067  0.00  0.00    -0.321 OA
BRANCH  44  45
HETATM   45  C   UNK N   1      31.249  22.247  -2.956  0.00  0.00     0.254 C 
HETATM   46  C   UNK N   1      32.489  21.426  -2.957  0.00  0.00     0.126 C 
HETATM   47  O   UNK N   1      30.933  22.858  -1.942  0.00  0.00    -0.266 OA
ENDBRANCH  44  45
ENDBRANCH  43  44
ENDBRANCH  41  43
ENDBRANCH  10  41
BRANCH  12  48
HETATM   48  O   UNK N   1      30.778  25.759  -2.986  0.00  0.00    -0.394 OA
HETATM   49  H   UNK N   1      30.480  25.154  -2.289  0.00  0.00     0.210 HD
ENDBRANCH  12  48
BRANCH   8  50
HETATM   50  C   UNK N   1      26.871  30.300  -3.835  0.00  0.00     0.176 C 
BRANCH  50  51
HETATM   51  O   UNK N   1      27.982  31.062  -3.480  0.00  0.00    -0.395 OA
HETATM   52  C   UNK N   1      28.041  30.948  -2.090  0.00  0.00     0.201 C 
ENDBRANCH  50  51
ENDBRANCH   8  50
TORSDOF 18
ENDMDL
MODEL 7
REMARK VINA RESULT:      -6.2      8.669     14.064
REMARK  18 active torsions:
REMARK  status: ('A' for Active; 'I' for Inactive)
REMARK    1  A    between atoms: C_35  and  C_10 
REMARK    2  A    between atoms: C_18  and  C_15 
REMARK    3  A    between atoms: O_44  and  C_15 
REMARK    4  A    between atoms: C_22  and  C_16 
REMARK    5  A    between atoms: O_43  and  C_16 
REMARK    6  A    between atoms: C_26  and  C_17 
REMARK    7  A    between atoms: O_45  and  C_17 
REMARK    8  A    between atoms: C_24  and  C_18 
REMARK    9  A    between atoms: O_44  and  C_20 
REMARK   10  A    between atoms: O_46  and  C_21 
REMARK   11  A    between atoms: C_27  and  O_39 
REMARK   12  A    between atoms: C_29  and  O_40 
REMARK   13  A    between atoms: C_30  and  O_41 
REMARK   14  A    between atoms: C_31  and  O_42 
REMARK   15  A    between atoms: C_32  and  O_48 
REMARK   16  A    between atoms: C_33  and  O_46 
REMARK   17  A    between atoms: C_34  and  O_48 
REMARK   18  A    between atoms: O_45  and  C_35 
ROOT
HETATM    1  C   UNK N   1      33.728  10.195  13.213  0.00  0.00     0.013 C 
HETATM    2  C   UNK N   1      34.401  12.561  14.792  0.00  0.00     0.027 C 
HETATM    3  C   UNK N   1      37.420   8.051  15.782  0.00  0.00     0.012 C 
HETATM    4  C   UNK N   1      36.471   7.906  14.583  0.00  0.00     0.010 C 
HETATM    5  C   UNK N   1      36.261  14.817  13.889  0.00  0.00     0.068 C 
HETATM    6  C   UNK N   1      36.455  11.359  15.469  0.00  0.00    -0.007 C 
HETATM    7  C   UNK N   1      35.069   9.475  13.225  0.00  0.00     0.021 C 
HETATM    8  C   UNK N   1      36.872   9.193  16.612  0.00  0.00     0.038 C 
HETATM    9  C   UNK N   1      35.470   9.075  14.641  0.00  0.00     0.021 C 
HETATM   10  C   UNK N   1      36.228  13.933  12.694  0.00  0.00    -0.066 C 
HETATM   11  C   UNK N   1      36.211  10.016  15.547  0.00  0.00    -0.072 C 
HETATM   12  C   UNK N   1      36.540  13.814  14.994  0.00  0.00     0.138 C 
HETATM   13  C   UNK N   1      36.113  12.622  13.018  0.00  0.00    -0.031 C 
HETATM   14  C   UNK N   1      36.206  10.128  12.381  0.00  0.00     0.156 C 
HETATM   15  C   UNK N   1      35.957  11.580  11.911  0.00  0.00     0.184 C 
HETATM   16  C   UNK N   1      35.902  12.465  14.535  0.00  0.00     0.026 C 
ENDROOT
BRANCH  15  17
HETATM   17  O   UNK N   1      34.694  11.842  11.276  0.00  0.00    -0.346 OA
BRANCH  17  18
HETATM   18  C   UNK N   1      34.571  11.615   9.873  0.00  0.00     0.292 C 
HETATM   19  C   UNK N   1      33.392  10.695   9.483  0.00  0.00     0.205 C 
HETATM   20  C   UNK N   1      33.454  10.456   7.958  0.00  0.00     0.196 C 
HETATM   21  C   UNK N   1      33.444  11.822   7.251  0.00  0.00     0.181 C 
HETATM   22  C   UNK N   1      34.602  12.697   7.777  0.00  0.00     0.180 C 
HETATM   23  O   UNK N   1      34.537  12.832   9.173  0.00  0.00    -0.348 OA
BRANCH  19  24
HETATM   24  O   UNK N   1      32.167  11.282   9.813  0.00  0.00    -0.388 OA
HETATM   25  H   UNK N   1      31.276  11.419  10.170  0.00  0.00     0.210 HD
ENDBRANCH  19  24
BRANCH  20  26
HETATM   26  O   UNK N   1      32.376   9.706   7.511  0.00  0.00    -0.311 OA
BRANCH  26  27
HETATM   27  C   UNK N   1      32.202   8.376   7.728  0.00  0.00     0.255 C 
HETATM   28  C   UNK N   1      31.064   7.916   8.570  0.00  0.00     0.126 C 
HETATM   29  O   UNK N   1      32.952   7.550   7.229  0.00  0.00    -0.266 OA
ENDBRANCH  26  27
ENDBRANCH  20  26
BRANCH  21  30
HETATM   30  O   UNK N   1      33.557  11.652   5.869  0.00  0.00    -0.390 OA
HETATM   31  H   UNK N   1      32.768  11.478   5.334  0.00  0.00     0.210 HD
ENDBRANCH  21  30
BRANCH  22  32
HETATM   32  C   UNK N   1      34.446  14.127   7.271  0.00  0.00     0.203 C 
BRANCH  32  33
HETATM   33  O   UNK N   1      33.140  14.452   6.873  0.00  0.00    -0.374 OA
BRANCH  33  34
HETATM   34  C   UNK N   1      32.865  15.833   7.101  0.00  0.00     0.071 C 
HETATM   35  C   UNK N   1      33.034  16.144   8.582  0.00  0.00     0.050 C 
HETATM   36  C   UNK N   1      31.474  16.321   6.661  0.00  0.00     0.050 C 
BRANCH  34  37
HETATM   37  C   UNK N   1      33.837  16.645   6.299  0.00  0.00    -0.000 C 
HETATM   38  C   UNK N   1      33.436  17.561   5.417  0.00  0.00     0.010 C 
ENDBRANCH  34  37
ENDBRANCH  33  34
ENDBRANCH  32  33
ENDBRANCH  22  32
ENDBRANCH  17  18
ENDBRANCH  15  17
BRANCH  14  39
HETATM   39  O   UNK N   1      37.459  10.052  13.000  0.00  0.00    -0.392 OA
HETATM   40  H   UNK N   1      38.289   9.550  13.023  0.00  0.00     0.210 HD
ENDBRANCH  14  39
BRANCH  10  41
HETATM   41  C   UNK N   1      36.235  14.503  11.283  0.00  0.00     0.035 C 
HETATM   42  C   UNK N   1      35.697  15.928  11.282  0.00  0.00     0.017 C 
BRANCH  41  43
HETATM   43  C   UNK N   1      37.586  14.377  10.580  0.00  0.00     0.187 C 
BRANCH  43  44
HETATM   44  O   UNK N   1      37.478  14.189   9.221  0.00  0.00    -0.321 OA
BRANCH  44  45
HETATM   45  C   UNK N   1      38.116  13.163   8.603  0.00  0.00     0.254 C 
HETATM   46  C   UNK N   1      38.615  12.015   9.406  0.00  0.00     0.126 C 
HETATM   47  O   UNK N   1      38.302  13.176   7.393  0.00  0.00    -0.266 OA
ENDBRANCH  44  45
ENDBRANCH  43  44
ENDBRANCH  41  43
ENDBRANCH  10  41
BRANCH  12  48
HETATM   48  O   UNK N   1      37.934  13.687  15.066  0.00  0.00    -0.394 OA
HETATM   49  H   UNK N   1      38.871  13.583  14.834  0.00  0.00     0.210 HD
ENDBRANCH  12  48
BRANCH   8  50
HETATM   50  C   UNK N   1      35.850   8.598  17.587  0.00  0.00     0.176 C 
BRANCH  50  51
HETATM   51  O   UNK N   1      34.998   9.577  18.094  0.00  0.00    -0.395 OA
HETATM   52  C   UNK N   1      34.143   8.876  18.945  0.00  0.00     0.201 C 
ENDBRANCH  50  51
ENDBRANCH   8  50
TORSDOF 18
ENDMDL
MODEL 8
REMARK VINA RESULT:      -6.2      2.666      8.997
REMARK  18 active torsions:
REMARK  status: ('A' for Active; 'I' for Inactive)
REMARK    1  A    between atoms: C_35  and  C_10 
REMARK    2  A    between atoms: C_18  and  C_15 
REMARK    3  A    between atoms: O_44  and  C_15 
REMARK    4  A    between atoms: C_22  and  C_16 
REMARK    5  A    between atoms: O_43  and  C_16 
REMARK    6  A    between atoms: C_26  and  C_17 
REMARK    7  A    between atoms: O_45  and  C_17 
REMARK    8  A    between atoms: C_24  and  C_18 
REMARK    9  A    between atoms: O_44  and  C_20 
REMARK   10  A    between atoms: O_46  and  C_21 
REMARK   11  A    between atoms: C_27  and  O_39 
REMARK   12  A    between atoms: C_29  and  O_40 
REMARK   13  A    between atoms: C_30  and  O_41 
REMARK   14  A    between atoms: C_31  and  O_42 
REMARK   15  A    between atoms: C_32  and  O_48 
REMARK   16  A    between atoms: C_33  and  O_46 
REMARK   17  A    between atoms: C_34  and  O_48 
REMARK   18  A    between atoms: O_45  and  C_35 
ROOT
HETATM    1  C   UNK N   1      21.478  14.319   1.673  0.00  0.00     0.013 C 
HETATM    2  C   UNK N   1      20.273  12.426   3.546  0.00  0.00     0.027 C 
HETATM    3  C   UNK N   1      24.213  10.402   0.257  0.00  0.00     0.012 C 
HETATM    4  C   UNK N   1      24.052  11.927   0.160  0.00  0.00     0.010 C 
HETATM    5  C   UNK N   1      21.123  12.041   6.460  0.00  0.00     0.068 C 
HETATM    6  C   UNK N   1      22.125  10.888   2.973  0.00  0.00    -0.007 C 
HETATM    7  C   UNK N   1      22.845  13.676   1.484  0.00  0.00     0.021 C 
HETATM    8  C   UNK N   1      22.918   9.883   0.844  0.00  0.00     0.038 C 
HETATM    9  C   UNK N   1      22.724  12.297   0.844  0.00  0.00     0.021 C 
HETATM   10  C   UNK N   1      22.007  13.149   6.014  0.00  0.00    -0.066 C 
HETATM   11  C   UNK N   1      22.495  11.062   1.668  0.00  0.00    -0.072 C 
HETATM   12  C   UNK N   1      21.308  11.040   5.332  0.00  0.00     0.138 C 
HETATM   13  C   UNK N   1      22.357  13.045   4.709  0.00  0.00    -0.031 C 
HETATM   14  C   UNK N   1      23.813  13.750   2.704  0.00  0.00     0.156 C 
HETATM   15  C   UNK N   1      23.176  14.156   4.054  0.00  0.00     0.184 C 
HETATM   16  C   UNK N   1      21.605  11.876   4.048  0.00  0.00     0.026 C 
ENDROOT
BRANCH  15  17
HETATM   17  O   UNK N   1      22.345  15.328   4.045  0.00  0.00    -0.346 OA
BRANCH  17  18
HETATM   18  C   UNK N   1      22.928  16.581   3.691  0.00  0.00     0.292 C 
HETATM   19  C   UNK N   1      21.978  17.788   3.852  0.00  0.00     0.205 C 
HETATM   20  C   UNK N   1      22.707  19.047   3.332  0.00  0.00     0.196 C 
HETATM   21  C   UNK N   1      24.036  19.188   4.094  0.00  0.00     0.181 C 
HETATM   22  C   UNK N   1      24.870  17.898   3.946  0.00  0.00     0.180 C 
HETATM   23  O   UNK N   1      24.141  16.777   4.373  0.00  0.00    -0.348 OA
BRANCH  19  24
HETATM   24  O   UNK N   1      21.627  17.975   5.193  0.00  0.00    -0.388 OA
HETATM   25  H   UNK N   1      21.360  18.390   6.028  0.00  0.00     0.210 HD
ENDBRANCH  19  24
BRANCH  20  26
HETATM   26  O   UNK N   1      21.951  20.194   3.521  0.00  0.00    -0.311 OA
BRANCH  26  27
HETATM   27  C   UNK N   1      20.764  20.460   2.915  0.00  0.00     0.255 C 
HETATM   28  C   UNK N   1      20.740  20.747   1.454  0.00  0.00     0.126 C 
HETATM   29  O   UNK N   1      19.716  20.449   3.542  0.00  0.00    -0.266 OA
ENDBRANCH  26  27
ENDBRANCH  20  26
BRANCH  21  30
HETATM   30  O   UNK N   1      24.755  20.285   3.611  0.00  0.00    -0.390 OA
HETATM   31  H   UNK N   1      25.627  20.496   3.980  0.00  0.00     0.210 HD
ENDBRANCH  21  30
BRANCH  22  32
HETATM   32  C   UNK N   1      26.061  17.935   4.897  0.00  0.00     0.203 C 
BRANCH  32  33
HETATM   33  O   UNK N   1      26.093  19.066   5.727  0.00  0.00    -0.374 OA
BRANCH  33  34
HETATM   34  C   UNK N   1      27.409  19.614   5.793  0.00  0.00     0.071 C 
HETATM   35  C   UNK N   1      27.342  21.020   6.370  0.00  0.00     0.050 C 
HETATM   36  C   UNK N   1      28.177  19.674   4.461  0.00  0.00     0.050 C 
BRANCH  34  37
HETATM   37  C   UNK N   1      28.239  18.738   6.684  0.00  0.00    -0.000 C 
HETATM   38  C   UNK N   1      28.197  18.838   8.012  0.00  0.00     0.010 C 
ENDBRANCH  34  37
ENDBRANCH  33  34
ENDBRANCH  32  33
ENDBRANCH  22  32
ENDBRANCH  17  18
ENDBRANCH  15  17
BRANCH  14  39
HETATM   39  O   UNK N   1      24.561  12.581   2.880  0.00  0.00    -0.392 OA
HETATM   40  H   UNK N   1      24.572  11.627   2.703  0.00  0.00     0.210 HD
ENDBRANCH  14  39
BRANCH  10  41
HETATM   41  C   UNK N   1      22.371  14.299   6.943  0.00  0.00     0.035 C 
HETATM   42  C   UNK N   1      21.145  15.154   7.236  0.00  0.00     0.017 C 
BRANCH  41  43
HETATM   43  C   UNK N   1      23.100  13.854   8.209  0.00  0.00     0.187 C 
BRANCH  43  44
HETATM   44  O   UNK N   1      22.296  13.841   9.326  0.00  0.00    -0.321 OA
BRANCH  44  45
HETATM   45  C   UNK N   1      22.110  12.704  10.042  0.00  0.00     0.254 C 
HETATM   46  C   UNK N   1      23.036  11.555   9.857  0.00  0.00     0.126 C 
HETATM   47  O   UNK N   1      21.177  12.603  10.829  0.00  0.00    -0.266 OA
ENDBRANCH  44  45
ENDBRANCH  43  44
ENDBRANCH  41  43
ENDBRANCH  10  41
BRANCH  12  48
HETATM   48  O   UNK N   1      22.427  10.268   5.673  0.00  0.00    -0.394 OA
HETATM   49  H   UNK N   1      23.200   9.905   6.135  0.00  0.00     0.210 HD
ENDBRANCH  12  48
BRANCH   8  50
HETATM   50  C   UNK N   1      21.957   9.632  -0.325  0.00  0.00     0.176 C 
BRANCH  50  51
HETATM   51  O   UNK N   1      22.218   8.413  -0.947  0.00  0.00    -0.395 OA
HETATM   52  C   UNK N   1      21.646   8.549  -2.213  0.00  0.00     0.201 C 
ENDBRANCH  50  51
ENDBRANCH   8  50
TORSDOF 18
ENDMDL
MODEL 9
REMARK VINA RESULT:      -6.2      2.209      6.117
REMARK  18 active torsions:
REMARK  status: ('A' for Active; 'I' for Inactive)
REMARK    1  A    between atoms: C_35  and  C_10 
REMARK    2  A    between atoms: C_18  and  C_15 
REMARK    3  A    between atoms: O_44  and  C_15 
REMARK    4  A    between atoms: C_22  and  C_16 
REMARK    5  A    between atoms: O_43  and  C_16 
REMARK    6  A    between atoms: C_26  and  C_17 
REMARK    7  A    between atoms: O_45  and  C_17 
REMARK    8  A    between atoms: C_24  and  C_18 
REMARK    9  A    between atoms: O_44  and  C_20 
REMARK   10  A    between atoms: O_46  and  C_21 
REMARK   11  A    between atoms: C_27  and  O_39 
REMARK   12  A    between atoms: C_29  and  O_40 
REMARK   13  A    between atoms: C_30  and  O_41 
REMARK   14  A    between atoms: C_31  and  O_42 
REMARK   15  A    between atoms: C_32  and  O_48 
REMARK   16  A    between atoms: C_33  and  O_46 
REMARK   17  A    between atoms: C_34  and  O_48 
REMARK   18  A    between atoms: O_45  and  C_35 
ROOT
HETATM    1  C   UNK N   1      26.872  17.622   3.391  0.00  0.00     0.013 C 
HETATM    2  C   UNK N   1      27.612  15.335   1.729  0.00  0.00     0.027 C 
HETATM    3  C   UNK N   1      30.990  16.459   5.944  0.00  0.00     0.012 C 
HETATM    4  C   UNK N   1      29.705  17.300   5.943  0.00  0.00     0.010 C 
HETATM    5  C   UNK N   1      26.534  12.490   2.058  0.00  0.00     0.068 C 
HETATM    6  C   UNK N   1      29.239  14.748   3.498  0.00  0.00    -0.007 C 
HETATM    7  C   UNK N   1      27.529  17.223   4.704  0.00  0.00     0.021 C 
HETATM    8  C   UNK N   1      31.155  15.949   4.528  0.00  0.00     0.038 C 
HETATM    9  C   UNK N   1      29.045  17.137   4.561  0.00  0.00     0.021 C 
HETATM   10  C   UNK N   1      25.784  13.238   3.101  0.00  0.00    -0.066 C 
HETATM   11  C   UNK N   1      29.723  15.883   4.089  0.00  0.00    -0.072 C 
HETATM   12  C   UNK N   1      27.957  12.946   2.329  0.00  0.00     0.138 C 
HETATM   13  C   UNK N   1      26.511  14.243   3.646  0.00  0.00    -0.031 C 
HETATM   14  C   UNK N   1      26.874  16.030   5.466  0.00  0.00     0.156 C 
HETATM   15  C   UNK N   1      25.861  15.184   4.660  0.00  0.00     0.184 C 
HETATM   16  C   UNK N   1      27.852  14.393   2.906  0.00  0.00     0.026 C 
ENDROOT
BRANCH  15  17
HETATM   17  O   UNK N   1      24.839  15.906   3.953  0.00  0.00    -0.346 OA
BRANCH  17  18
HETATM   18  C   UNK N   1      23.741  16.441   4.690  0.00  0.00     0.292 C 
HETATM   19  C   UNK N   1      22.654  17.103   3.814  0.00  0.00     0.205 C 
HETATM   20  C   UNK N   1      21.596  17.727   4.751  0.00  0.00     0.196 C 
HETATM   21  C   UNK N   1      21.064  16.626   5.685  0.00  0.00     0.181 C 
HETATM   22  C   UNK N   1      22.235  15.966   6.444  0.00  0.00     0.180 C 
HETATM   23  O   UNK N   1      23.199  15.472   5.551  0.00  0.00    -0.348 OA
BRANCH  19  24
HETATM   24  O   UNK N   1      22.042  16.164   2.980  0.00  0.00    -0.388 OA
HETATM   25  H   UNK N   1      21.830  15.612   2.211  0.00  0.00     0.210 HD
ENDBRANCH  19  24
BRANCH  20  26
HETATM   26  O   UNK N   1      20.536  18.270   4.040  0.00  0.00    -0.311 OA
BRANCH  26  27
HETATM   27  C   UNK N   1      20.557  19.465   3.392  0.00  0.00     0.255 C 
HETATM   28  C   UNK N   1      20.660  19.488   1.908  0.00  0.00     0.126 C 
HETATM   29  O   UNK N   1      20.472  20.518   4.005  0.00  0.00    -0.266 OA
ENDBRANCH  26  27
ENDBRANCH  20  26
BRANCH  21  30
HETATM   30  O   UNK N   1      20.144  17.162   6.590  0.00  0.00    -0.390 OA
HETATM   31  H   UNK N   1      20.419  17.375   7.494  0.00  0.00     0.210 HD
ENDBRANCH  21  30
BRANCH  22  32
HETATM   32  C   UNK N   1      21.747  14.718   7.171  0.00  0.00     0.203 C 
BRANCH  32  33
HETATM   33  O   UNK N   1      21.839  14.800   8.569  0.00  0.00    -0.374 OA
BRANCH  33  34
HETATM   34  C   UNK N   1      21.627  13.523   9.171  0.00  0.00     0.071 C 
HETATM   35  C   UNK N   1      21.333  12.497   8.087  0.00  0.00     0.050 C 
HETATM   36  C   UNK N   1      20.502  13.456  10.218  0.00  0.00     0.050 C 
BRANCH  34  37
HETATM   37  C   UNK N   1      22.873  13.138   9.909  0.00  0.00    -0.000 C 
HETATM   38  C   UNK N   1      22.845  12.343  10.979  0.00  0.00     0.010 C 
ENDBRANCH  34  37
ENDBRANCH  33  34
ENDBRANCH  32  33
ENDBRANCH  22  32
ENDBRANCH  17  18
ENDBRANCH  15  17
BRANCH  14  39
HETATM   39  O   UNK N   1      27.812  15.182   6.064  0.00  0.00    -0.392 OA
HETATM   40  H   UNK N   1      28.351  15.052   6.860  0.00  0.00     0.210 HD
ENDBRANCH  14  39
BRANCH  10  41
HETATM   41  C   UNK N   1      24.329  12.922   3.415  0.00  0.00     0.035 C 
HETATM   42  C   UNK N   1      23.465  13.105   2.174  0.00  0.00     0.017 C 
BRANCH  41  43
HETATM   43  C   UNK N   1      24.130  11.561   4.081  0.00  0.00     0.187 C 
BRANCH  43  44
HETATM   44  O   UNK N   1      24.981  11.342   5.140  0.00  0.00    -0.321 OA
BRANCH  44  45
HETATM   45  C   UNK N   1      24.581  11.565   6.418  0.00  0.00     0.254 C 
HETATM   46  C   UNK N   1      23.977  10.458   7.206  0.00  0.00     0.126 C 
HETATM   47  O   UNK N   1      24.696  12.673   6.928  0.00  0.00    -0.266 OA
ENDBRANCH  44  45
ENDBRANCH  43  44
ENDBRANCH  41  43
ENDBRANCH  10  41
BRANCH  12  48
HETATM   48  O   UNK N   1      28.469  12.076   3.302  0.00  0.00    -0.394 OA
HETATM   49  H   UNK N   1      29.051  11.489   3.809  0.00  0.00     0.210 HD
ENDBRANCH  12  48
BRANCH   8  50
HETATM   50  C   UNK N   1      31.940  17.011   3.750  0.00  0.00     0.176 C 
BRANCH  50  51
HETATM   51  O   UNK N   1      32.634  16.451   2.679  0.00  0.00    -0.395 OA
HETATM   52  C   UNK N   1      33.305  15.365   3.242  0.00  0.00     0.201 C 
ENDBRANCH  50  51
ENDBRANCH   8  50
TORSDOF 18
ENDMDL
