MODEL 1
REMARK VINA RESULT:      -7.8      0.000      0.000
REMARK  15 active torsions:
REMARK  status: ('A' for Active; 'I' for Inactive)
REMARK    1  A    between atoms: C_10  and  C_9 
REMARK    2  A    between atoms: C_17  and  C_9 
REMARK    3  A    between atoms: C_19  and  C_10 
REMARK    4  A    between atoms: C_20  and  C_11 
REMARK    5  A    between atoms: N_26  and  C_11 
REMARK    6  A    between atoms: C_18  and  C_12 
REMARK    7  A    between atoms: S_35  and  C_12 
REMARK    8  A    between atoms: C_24  and  C_17 
REMARK    9  A    between atoms: C_17  and  N_25 
REMARK   10  A    between atoms: C_23  and  C_18 
REMARK   11  A    between atoms: C_18  and  N_27 
REMARK       I    between atoms: N_27  and  C_19 
REMARK   12  A    between atoms: O_29  and  C_20 
REMARK   13  A    between atoms: C_21  and  O_31 
REMARK   14  A    between atoms: C_22  and  S_35 
REMARK       I    between atoms: N_26  and  C_23 
REMARK   15  A    between atoms: O_33  and  C_24 
ROOT
HETATM    1  C   UNK N   1      25.133  18.854   3.896  0.00  0.00     0.185 C 
ENDROOT
BRANCH   1   2
HETATM    2  C   UNK N   1      25.838  17.556   3.487  0.00  0.00     0.109 C 
BRANCH   2   3
HETATM    3  S   UNK N   1      26.240  16.592   4.994  0.00  0.00    -0.154 SA
BRANCH   3   4
HETATM    4  C   UNK N   1      28.040  16.886   5.061  0.00  0.00     0.114 C 
HETATM    5  C   UNK N   1      28.631  17.070   6.448  0.00  0.00    -0.030 A 
HETATM    6  C   UNK N   1      27.828  17.179   7.592  0.00  0.00     0.009 A 
HETATM    7  C   UNK N   1      30.033  17.188   6.564  0.00  0.00    -0.018 A 
HETATM    8  C   UNK N   1      28.411  17.424   8.839  0.00  0.00     0.001 A 
HETATM    9  C   UNK N   1      29.797  17.580   8.946  0.00  0.00     0.001 A 
HETATM   10  C   UNK N   1      30.607  17.461   7.813  0.00  0.00     0.013 A 
HETATM   11  C   UNK N   1      30.869  17.009   5.348  0.00  0.00    -0.017 A 
HETATM   12  C   UNK N   1      32.198  17.451   5.307  0.00  0.00     0.013 A 
HETATM   13  C   UNK N   1      30.294  16.415   4.197  0.00  0.00    -0.017 A 
HETATM   14  C   UNK N   1      32.940  17.332   4.128  0.00  0.00     0.001 A 
HETATM   15  C   UNK N   1      32.359  16.778   2.983  0.00  0.00     0.001 A 
HETATM   16  C   UNK N   1      31.041  16.317   3.018  0.00  0.00     0.011 A 
HETATM   17  C   UNK N   1      28.877  15.884   4.254  0.00  0.00     0.170 C 
BRANCH  17  18
HETATM   18  O   UNK N   1      28.878  14.640   4.894  0.00  0.00    -0.389 OA
HETATM   19  H   UNK N   1      28.960  14.000   5.618  0.00  0.00     0.210 HD
ENDBRANCH  17  18
ENDBRANCH   3   4
ENDBRANCH   2   3
ENDBRANCH   1   2
BRANCH   1  20
HETATM   20  C   UNK N   1      25.757  20.070   3.211  0.00  0.00     0.241 C 
HETATM   21  N   UNK N   1      26.877  20.671   3.691  0.00  0.00    -0.349 N 
HETATM   22  H   UNK N   1      27.244  21.435   3.191  0.00  0.00     0.163 HD
HETATM   23  O   UNK N   1      25.249  20.515   2.196  0.00  0.00    -0.271 OA
BRANCH  21  24
HETATM   24  C   UNK N   1      27.557  20.254   4.891  0.00  0.00     0.232 C 
BRANCH  24  25
HETATM   25  C   UNK N   1      27.020  20.948   6.105  0.00  0.00     0.158 C 
HETATM   26  O   UNK N   1      27.249  22.131   6.304  0.00  0.00    -0.649 OA
BRANCH  25  27
HETATM   27  O   UNK N   1      26.264  20.259   6.977  0.00  0.00    -0.775 OA
HETATM   28  H   UNK N   1      26.265  19.322   6.999  0.00  0.00     0.167 HD
ENDBRANCH  25  27
ENDBRANCH  24  25
ENDBRANCH  21  24
ENDBRANCH   1  20
BRANCH   1  29
HETATM   29  N   UNK N   1      23.731  18.709   3.543  0.00  0.00    -0.347 N 
HETATM   30  C   UNK N   1      22.765  18.352   4.424  0.00  0.00     0.218 C 
HETATM   31  O   UNK N   1      23.022  18.224   5.613  0.00  0.00    -0.274 OA
HETATM   32  H   UNK N   1      23.467  18.880   2.610  0.00  0.00     0.163 HD
BRANCH  30  33
HETATM   33  C   UNK N   1      21.370  18.123   3.933  0.00  0.00     0.105 C 
BRANCH  33  34
HETATM   34  C   UNK N   1      20.642  19.461   3.878  0.00  0.00     0.044 C 
BRANCH  34  35
HETATM   35  C   UNK N   1      19.975  19.741   2.527  0.00  0.00     0.173 C 
BRANCH  35  36
HETATM   36  C   UNK N   1      20.921  20.122   1.407  0.00  0.00     0.163 C 
HETATM   37  O   UNK N   1      21.978  20.692   1.632  0.00  0.00    -0.648 OA
BRANCH  36  38
HETATM   38  O   UNK N   1      20.591  19.829   0.136  0.00  0.00    -0.775 OA
HETATM   39  H   UNK N   1      19.837  20.224  -0.257  0.00  0.00     0.167 HD
ENDBRANCH  36  38
ENDBRANCH  35  36
BRANCH  35  40
HETATM   40  N   UNK N   1      19.192  18.585   2.127  0.00  0.00    -0.418 N 
HETATM   41  H   UNK N   1      18.588  17.816   2.419  0.00  0.00     0.150 HD
HETATM   42  H   UNK N   1      19.286  18.510   1.114  0.00  0.00     0.150 HD
ENDBRANCH  35  40
ENDBRANCH  34  35
ENDBRANCH  33  34
ENDBRANCH  30  33
ENDBRANCH   1  29
TORSDOF 15
ENDMDL
MODEL 2
REMARK VINA RESULT:      -7.5      4.675      8.775
REMARK  15 active torsions:
REMARK  status: ('A' for Active; 'I' for Inactive)
REMARK    1  A    between atoms: C_10  and  C_9 
REMARK    2  A    between atoms: C_17  and  C_9 
REMARK    3  A    between atoms: C_19  and  C_10 
REMARK    4  A    between atoms: C_20  and  C_11 
REMARK    5  A    between atoms: N_26  and  C_11 
REMARK    6  A    between atoms: C_18  and  C_12 
REMARK    7  A    between atoms: S_35  and  C_12 
REMARK    8  A    between atoms: C_24  and  C_17 
REMARK    9  A    between atoms: C_17  and  N_25 
REMARK   10  A    between atoms: C_23  and  C_18 
REMARK   11  A    between atoms: C_18  and  N_27 
REMARK       I    between atoms: N_27  and  C_19 
REMARK   12  A    between atoms: O_29  and  C_20 
REMARK   13  A    between atoms: C_21  and  O_31 
REMARK   14  A    between atoms: C_22  and  S_35 
REMARK       I    between atoms: N_26  and  C_23 
REMARK   15  A    between atoms: O_33  and  C_24 
ROOT
HETATM    1  C   UNK N   1      21.791  14.772   7.055  0.00  0.00     0.185 C 
ENDROOT
BRANCH   1   2
HETATM    2  C   UNK N   1      22.757  14.536   5.889  0.00  0.00     0.109 C 
BRANCH   2   3
HETATM    3  S   UNK N   1      24.121  15.757   5.986  0.00  0.00    -0.154 SA
BRANCH   3   4
HETATM    4  C   UNK N   1      23.348  17.136   5.074  0.00  0.00     0.114 C 
HETATM    5  C   UNK N   1      24.301  18.182   4.522  0.00  0.00    -0.030 A 
HETATM    6  C   UNK N   1      25.667  18.187   4.836  0.00  0.00     0.009 A 
HETATM    7  C   UNK N   1      23.766  19.208   3.713  0.00  0.00    -0.018 A 
HETATM    8  C   UNK N   1      26.492  19.213   4.367  0.00  0.00     0.001 A 
HETATM    9  C   UNK N   1      25.953  20.250   3.600  0.00  0.00     0.001 A 
HETATM   10  C   UNK N   1      24.594  20.249   3.271  0.00  0.00     0.013 A 
HETATM   11  C   UNK N   1      22.327  19.151   3.343  0.00  0.00    -0.017 A 
HETATM   12  C   UNK N   1      21.656  20.280   2.858  0.00  0.00     0.013 A 
HETATM   13  C   UNK N   1      21.617  17.938   3.522  0.00  0.00    -0.017 A 
HETATM   14  C   UNK N   1      20.286  20.217   2.583  0.00  0.00     0.001 A 
HETATM   15  C   UNK N   1      19.580  19.029   2.795  0.00  0.00     0.001 A 
HETATM   16  C   UNK N   1      20.243  17.891   3.259  0.00  0.00     0.011 A 
HETATM   17  C   UNK N   1      22.352  16.699   3.991  0.00  0.00     0.170 C 
BRANCH  17  18
HETATM   18  O   UNK N   1      23.037  16.136   2.910  0.00  0.00    -0.389 OA
HETATM   19  H   UNK N   1      23.195  15.561   2.145  0.00  0.00     0.210 HD
ENDBRANCH  17  18
ENDBRANCH   3   4
ENDBRANCH   2   3
ENDBRANCH   1   2
BRANCH   1  20
HETATM   20  C   UNK N   1      20.365  15.018   6.561  0.00  0.00     0.241 C 
HETATM   21  N   UNK N   1      19.752  16.222   6.702  0.00  0.00    -0.349 N 
HETATM   22  H   UNK N   1      18.843  16.325   6.340  0.00  0.00     0.163 HD
HETATM   23  O   UNK N   1      19.755  14.117   6.012  0.00  0.00    -0.271 OA
BRANCH  21  24
HETATM   24  C   UNK N   1      20.357  17.357   7.352  0.00  0.00     0.232 C 
BRANCH  24  25
HETATM   25  C   UNK N   1      19.701  17.663   8.662  0.00  0.00     0.158 C 
HETATM   26  O   UNK N   1      19.928  18.710   9.249  0.00  0.00    -0.649 OA
BRANCH  25  27
HETATM   27  O   UNK N   1      18.840  16.776   9.191  0.00  0.00    -0.775 OA
HETATM   28  H   UNK N   1      18.449  16.908  10.033  0.00  0.00     0.167 HD
ENDBRANCH  25  27
ENDBRANCH  24  25
ENDBRANCH  21  24
ENDBRANCH   1  20
BRANCH   1  29
HETATM   29  N   UNK N   1      21.859  13.600   7.912  0.00  0.00    -0.347 N 
HETATM   30  C   UNK N   1      21.467  13.591   9.210  0.00  0.00     0.218 C 
HETATM   31  O   UNK N   1      20.934  14.573   9.707  0.00  0.00    -0.274 OA
HETATM   32  H   UNK N   1      22.210  12.764   7.528  0.00  0.00     0.163 HD
BRANCH  30  33
HETATM   33  C   UNK N   1      21.683  12.361  10.035  0.00  0.00     0.105 C 
BRANCH  33  34
HETATM   34  C   UNK N   1      22.805  12.630  11.032  0.00  0.00     0.044 C 
BRANCH  34  35
HETATM   35  C   UNK N   1      24.178  12.147  10.553  0.00  0.00     0.173 C 
BRANCH  35  36
HETATM   36  C   UNK N   1      25.005  13.179   9.816  0.00  0.00     0.163 C 
HETATM   37  O   UNK N   1      24.864  13.370   8.617  0.00  0.00    -0.648 OA
BRANCH  36  38
HETATM   38  O   UNK N   1      25.916  13.902  10.492  0.00  0.00    -0.775 OA
HETATM   39  H   UNK N   1      25.944  14.834  10.393  0.00  0.00     0.167 HD
ENDBRANCH  36  38
ENDBRANCH  35  36
BRANCH  35  40
HETATM   40  N   UNK N   1      24.934  11.641  11.687  0.00  0.00    -0.418 N 
HETATM   41  H   UNK N   1      25.206  11.770  12.662  0.00  0.00     0.150 HD
HETATM   42  H   UNK N   1      25.390  10.785  11.371  0.00  0.00     0.150 HD
ENDBRANCH  35  40
ENDBRANCH  34  35
ENDBRANCH  33  34
ENDBRANCH  30  33
ENDBRANCH   1  29
TORSDOF 15
ENDMDL
MODEL 3
REMARK VINA RESULT:      -7.5      3.942      9.387
REMARK  15 active torsions:
REMARK  status: ('A' for Active; 'I' for Inactive)
REMARK    1  A    between atoms: C_10  and  C_9 
REMARK    2  A    between atoms: C_17  and  C_9 
REMARK    3  A    between atoms: C_19  and  C_10 
REMARK    4  A    between atoms: C_20  and  C_11 
REMARK    5  A    between atoms: N_26  and  C_11 
REMARK    6  A    between atoms: C_18  and  C_12 
REMARK    7  A    between atoms: S_35  and  C_12 
REMARK    8  A    between atoms: C_24  and  C_17 
REMARK    9  A    between atoms: C_17  and  N_25 
REMARK   10  A    between atoms: C_23  and  C_18 
REMARK   11  A    between atoms: C_18  and  N_27 
REMARK       I    between atoms: N_27  and  C_19 
REMARK   12  A    between atoms: O_29  and  C_20 
REMARK   13  A    between atoms: C_21  and  O_31 
REMARK   14  A    between atoms: C_22  and  S_35 
REMARK       I    between atoms: N_26  and  C_23 
REMARK   15  A    between atoms: O_33  and  C_24 
ROOT
HETATM    1  C   UNK N   1      29.231  17.498   7.213  0.00  0.00     0.185 C 
ENDROOT
BRANCH   1   2
HETATM    2  C   UNK N   1      28.482  16.417   6.427  0.00  0.00     0.109 C 
BRANCH   2   3
HETATM    3  S   UNK N   1      28.003  17.090   4.789  0.00  0.00    -0.154 SA
BRANCH   3   4
HETATM    4  C   UNK N   1      26.220  17.344   5.085  0.00  0.00     0.114 C 
HETATM    5  C   UNK N   1      25.566  18.451   4.275  0.00  0.00    -0.030 A 
HETATM    6  C   UNK N   1      26.309  19.333   3.480  0.00  0.00     0.009 A 
HETATM    7  C   UNK N   1      24.168  18.614   4.382  0.00  0.00    -0.018 A 
HETATM    8  C   UNK N   1      25.673  20.384   2.813  0.00  0.00     0.001 A 
HETATM    9  C   UNK N   1      24.294  20.569   2.952  0.00  0.00     0.001 A 
HETATM   10  C   UNK N   1      23.542  19.687   3.732  0.00  0.00     0.013 A 
HETATM   11  C   UNK N   1      23.391  17.631   5.182  0.00  0.00    -0.017 A 
HETATM   12  C   UNK N   1      22.091  17.915   5.621  0.00  0.00     0.013 A 
HETATM   13  C   UNK N   1      23.996  16.400   5.536  0.00  0.00    -0.017 A 
HETATM   14  C   UNK N   1      21.409  17.000   6.429  0.00  0.00     0.001 A 
HETATM   15  C   UNK N   1      22.022  15.802   6.808  0.00  0.00     0.001 A 
HETATM   16  C   UNK N   1      23.309  15.500   6.360  0.00  0.00     0.011 A 
HETATM   17  C   UNK N   1      25.378  16.064   5.016  0.00  0.00     0.170 C 
BRANCH  17  18
HETATM   18  O   UNK N   1      25.276  15.630   3.691  0.00  0.00    -0.389 OA
HETATM   19  H   UNK N   1      25.270  15.687   2.722  0.00  0.00     0.210 HD
ENDBRANCH  17  18
ENDBRANCH   3   4
ENDBRANCH   2   3
ENDBRANCH   1   2
BRANCH   1  20
HETATM   20  C   UNK N   1      28.390  18.031   8.373  0.00  0.00     0.241 C 
HETATM   21  N   UNK N   1      27.665  19.175   8.270  0.00  0.00    -0.349 N 
HETATM   22  H   UNK N   1      27.124  19.452   9.045  0.00  0.00     0.163 HD
HETATM   23  O   UNK N   1      28.352  17.412   9.423  0.00  0.00    -0.271 OA
BRANCH  21  24
HETATM   24  C   UNK N   1      27.643  20.007   7.094  0.00  0.00     0.232 C 
BRANCH  24  25
HETATM   25  C   UNK N   1      26.514  20.990   7.128  0.00  0.00     0.158 C 
HETATM   26  O   UNK N   1      26.264  21.691   6.161  0.00  0.00    -0.649 OA
BRANCH  25  27
HETATM   27  O   UNK N   1      25.760  21.089   8.237  0.00  0.00    -0.775 OA
HETATM   28  H   UNK N   1      26.141  21.229   9.082  0.00  0.00     0.167 HD
ENDBRANCH  25  27
ENDBRANCH  24  25
ENDBRANCH  21  24
ENDBRANCH   1  20
BRANCH   1  29
HETATM   29  N   UNK N   1      30.469  16.902   7.687  0.00  0.00    -0.347 N 
HETATM   30  C   UNK N   1      31.602  16.830   6.946  0.00  0.00     0.218 C 
HETATM   31  O   UNK N   1      31.664  17.364   5.847  0.00  0.00    -0.274 OA
HETATM   32  H   UNK N   1      30.486  16.530   8.598  0.00  0.00     0.163 HD
BRANCH  30  33
HETATM   33  C   UNK N   1      32.789  16.097   7.488  0.00  0.00     0.105 C 
BRANCH  33  34
HETATM   34  C   UNK N   1      32.972  16.474   8.954  0.00  0.00     0.044 C 
BRANCH  34  35
HETATM   35  C   UNK N   1      34.075  15.676   9.658  0.00  0.00     0.173 C 
BRANCH  35  36
HETATM   36  C   UNK N   1      35.310  16.469  10.029  0.00  0.00     0.163 C 
HETATM   37  O   UNK N   1      35.316  17.691   9.997  0.00  0.00    -0.648 OA
BRANCH  36  38
HETATM   38  O   UNK N   1      36.426  15.817  10.403  0.00  0.00    -0.775 OA
HETATM   39  H   UNK N   1      36.933  15.350   9.767  0.00  0.00     0.167 HD
ENDBRANCH  36  38
ENDBRANCH  35  36
BRANCH  35  40
HETATM   40  N   UNK N   1      33.528  15.045  10.848  0.00  0.00    -0.418 N 
HETATM   41  H   UNK N   1      32.702  14.679  11.321  0.00  0.00     0.150 HD
HETATM   42  H   UNK N   1      34.311  14.910  11.487  0.00  0.00     0.150 HD
ENDBRANCH  35  40
ENDBRANCH  34  35
ENDBRANCH  33  34
ENDBRANCH  30  33
ENDBRANCH   1  29
TORSDOF 15
ENDMDL
MODEL 4
REMARK VINA RESULT:      -7.5      5.685     11.044
REMARK  15 active torsions:
REMARK  status: ('A' for Active; 'I' for Inactive)
REMARK    1  A    between atoms: C_10  and  C_9 
REMARK    2  A    between atoms: C_17  and  C_9 
REMARK    3  A    between atoms: C_19  and  C_10 
REMARK    4  A    between atoms: C_20  and  C_11 
REMARK    5  A    between atoms: N_26  and  C_11 
REMARK    6  A    between atoms: C_18  and  C_12 
REMARK    7  A    between atoms: S_35  and  C_12 
REMARK    8  A    between atoms: C_24  and  C_17 
REMARK    9  A    between atoms: C_17  and  N_25 
REMARK   10  A    between atoms: C_23  and  C_18 
REMARK   11  A    between atoms: C_18  and  N_27 
REMARK       I    between atoms: N_27  and  C_19 
REMARK   12  A    between atoms: O_29  and  C_20 
REMARK   13  A    between atoms: C_21  and  O_31 
REMARK   14  A    between atoms: C_22  and  S_35 
REMARK       I    between atoms: N_26  and  C_23 
REMARK   15  A    between atoms: O_33  and  C_24 
ROOT
HETATM    1  C   UNK N   1      33.382  16.645   7.992  0.00  0.00     0.185 C 
ENDROOT
BRANCH   1   2
HETATM    2  C   UNK N   1      32.388  17.781   8.255  0.00  0.00     0.109 C 
BRANCH   2   3
HETATM    3  S   UNK N   1      30.748  17.061   8.649  0.00  0.00    -0.154 SA
BRANCH   3   4
HETATM    4  C   UNK N   1      29.769  17.804   7.300  0.00  0.00     0.114 C 
HETATM    5  C   UNK N   1      29.548  16.925   6.081  0.00  0.00    -0.030 A 
HETATM    6  C   UNK N   1      30.194  15.691   5.923  0.00  0.00     0.009 A 
HETATM    7  C   UNK N   1      28.704  17.408   5.057  0.00  0.00    -0.018 A 
HETATM    8  C   UNK N   1      30.020  14.952   4.750  0.00  0.00     0.001 A 
HETATM    9  C   UNK N   1      29.216  15.450   3.720  0.00  0.00     0.001 A 
HETATM   10  C   UNK N   1      28.558  16.673   3.872  0.00  0.00     0.013 A 
HETATM   11  C   UNK N   1      27.982  18.689   5.270  0.00  0.00    -0.017 A 
HETATM   12  C   UNK N   1      27.423  19.397   4.198  0.00  0.00     0.013 A 
HETATM   13  C   UNK N   1      27.892  19.220   6.581  0.00  0.00    -0.017 A 
HETATM   14  C   UNK N   1      26.810  20.634   4.418  0.00  0.00     0.001 A 
HETATM   15  C   UNK N   1      26.754  21.173   5.706  0.00  0.00     0.001 A 
HETATM   16  C   UNK N   1      27.290  20.467   6.786  0.00  0.00     0.011 A 
HETATM   17  C   UNK N   1      28.443  18.432   7.750  0.00  0.00     0.170 C 
BRANCH  17  18
HETATM   18  O   UNK N   1      27.532  17.429   8.097  0.00  0.00    -0.389 OA
HETATM   19  H   UNK N   1      27.089  16.566   8.069  0.00  0.00     0.210 HD
ENDBRANCH  17  18
ENDBRANCH   3   4
ENDBRANCH   2   3
ENDBRANCH   1   2
BRANCH   1  20
HETATM   20  C   UNK N   1      34.050  16.790   6.624  0.00  0.00     0.241 C 
HETATM   21  N   UNK N   1      34.524  15.719   5.937  0.00  0.00    -0.349 N 
HETATM   22  H   UNK N   1      34.921  15.876   5.050  0.00  0.00     0.163 HD
HETATM   23  O   UNK N   1      34.155  17.896   6.121  0.00  0.00    -0.271 OA
BRANCH  21  24
HETATM   24  C   UNK N   1      34.481  14.366   6.432  0.00  0.00     0.232 C 
BRANCH  24  25
HETATM   25  C   UNK N   1      33.343  13.594   5.839  0.00  0.00     0.158 C 
HETATM   26  O   UNK N   1      32.533  13.023   6.552  0.00  0.00    -0.649 OA
BRANCH  25  27
HETATM   27  O   UNK N   1      33.207  13.542   4.502  0.00  0.00    -0.775 OA
HETATM   28  H   UNK N   1      33.229  14.315   3.973  0.00  0.00     0.167 HD
ENDBRANCH  25  27
ENDBRANCH  24  25
ENDBRANCH  21  24
ENDBRANCH   1  20
BRANCH   1  29
HETATM   29  N   UNK N   1      34.362  16.675   9.065  0.00  0.00    -0.347 N 
HETATM   30  C   UNK N   1      34.359  15.813  10.111  0.00  0.00     0.218 C 
HETATM   31  O   UNK N   1      33.566  14.883  10.152  0.00  0.00    -0.274 OA
HETATM   32  H   UNK N   1      35.067  17.360   9.031  0.00  0.00     0.163 HD
BRANCH  30  33
HETATM   33  C   UNK N   1      35.346  16.001  11.221  0.00  0.00     0.105 C 
BRANCH  33  34
HETATM   34  C   UNK N   1      36.321  14.829  11.215  0.00  0.00     0.044 C 
BRANCH  34  35
HETATM   35  C   UNK N   1      36.439  14.124  12.571  0.00  0.00     0.173 C 
BRANCH  35  36
HETATM   36  C   UNK N   1      35.166  13.476  13.074  0.00  0.00     0.163 C 
HETATM   37  O   UNK N   1      34.884  13.464  14.263  0.00  0.00    -0.648 OA
BRANCH  36  38
HETATM   38  O   UNK N   1      34.327  12.898  12.195  0.00  0.00    -0.775 OA
HETATM   39  H   UNK N   1      34.585  12.791  11.300  0.00  0.00     0.167 HD
ENDBRANCH  36  38
ENDBRANCH  35  36
BRANCH  35  40
HETATM   40  N   UNK N   1      37.497  13.131  12.508  0.00  0.00    -0.418 N 
HETATM   41  H   UNK N   1      38.258  12.721  11.965  0.00  0.00     0.150 HD
HETATM   42  H   UNK N   1      37.466  12.621  13.391  0.00  0.00     0.150 HD
ENDBRANCH  35  40
ENDBRANCH  34  35
ENDBRANCH  33  34
ENDBRANCH  30  33
ENDBRANCH   1  29
TORSDOF 15
ENDMDL
MODEL 5
REMARK VINA RESULT:      -7.5      4.273      6.577
REMARK  15 active torsions:
REMARK  status: ('A' for Active; 'I' for Inactive)
REMARK    1  A    between atoms: C_10  and  C_9 
REMARK    2  A    between atoms: C_17  and  C_9 
REMARK    3  A    between atoms: C_19  and  C_10 
REMARK    4  A    between atoms: C_20  and  C_11 
REMARK    5  A    between atoms: N_26  and  C_11 
REMARK    6  A    between atoms: C_18  and  C_12 
REMARK    7  A    between atoms: S_35  and  C_12 
REMARK    8  A    between atoms: C_24  and  C_17 
REMARK    9  A    between atoms: C_17  and  N_25 
REMARK   10  A    between atoms: C_23  and  C_18 
REMARK   11  A    between atoms: C_18  and  N_27 
REMARK       I    between atoms: N_27  and  C_19 
REMARK   12  A    between atoms: O_29  and  C_20 
REMARK   13  A    between atoms: C_21  and  O_31 
REMARK   14  A    between atoms: C_22  and  S_35 
REMARK       I    between atoms: N_26  and  C_23 
REMARK   15  A    between atoms: O_33  and  C_24 
ROOT
HETATM    1  C   UNK N   1      25.306  17.155   4.977  0.00  0.00     0.185 C 
ENDROOT
BRANCH   1   2
HETATM    2  C   UNK N   1      25.410  15.864   5.797  0.00  0.00     0.109 C 
BRANCH   2   3
HETATM    3  S   UNK N   1      24.109  14.696   5.242  0.00  0.00    -0.154 SA
BRANCH   3   4
HETATM    4  C   UNK N   1      23.398  14.256   6.864  0.00  0.00     0.114 C 
HETATM    5  C   UNK N   1      22.166  15.041   7.282  0.00  0.00    -0.030 A 
HETATM    6  C   UNK N   1      21.704  16.147   6.556  0.00  0.00     0.009 A 
HETATM    7  C   UNK N   1      21.511  14.664   8.474  0.00  0.00    -0.018 A 
HETATM    8  C   UNK N   1      20.613  16.887   7.021  0.00  0.00     0.001 A 
HETATM    9  C   UNK N   1      19.990  16.537   8.222  0.00  0.00     0.001 A 
HETATM   10  C   UNK N   1      20.435  15.427   8.948  0.00  0.00     0.013 A 
HETATM   11  C   UNK N   1      21.979  13.452   9.196  0.00  0.00    -0.017 A 
HETATM   12  C   UNK N   1      21.628  13.220  10.532  0.00  0.00     0.013 A 
HETATM   13  C   UNK N   1      22.829  12.536   8.527  0.00  0.00    -0.017 A 
HETATM   14  C   UNK N   1      22.139  12.107  11.208  0.00  0.00     0.001 A 
HETATM   15  C   UNK N   1      23.006  11.225  10.557  0.00  0.00     0.001 A 
HETATM   16  C   UNK N   1      23.347  11.435   9.219  0.00  0.00     0.011 A 
HETATM   17  C   UNK N   1      23.164  12.752   7.066  0.00  0.00     0.170 C 
BRANCH  17  18
HETATM   18  O   UNK N   1      22.089  12.326   6.281  0.00  0.00    -0.389 OA
HETATM   19  H   UNK N   1      21.431  12.345   5.568  0.00  0.00     0.210 HD
ENDBRANCH  17  18
ENDBRANCH   3   4
ENDBRANCH   2   3
ENDBRANCH   1   2
BRANCH   1  20
HETATM   20  C   UNK N   1      26.470  17.289   3.994  0.00  0.00     0.241 C 
HETATM   21  N   UNK N   1      27.463  18.198   4.175  0.00  0.00    -0.349 N 
HETATM   22  H   UNK N   1      28.198  18.218   3.520  0.00  0.00     0.163 HD
HETATM   23  O   UNK N   1      26.524  16.555   3.022  0.00  0.00    -0.271 OA
BRANCH  21  24
HETATM   24  C   UNK N   1      27.503  19.134   5.269  0.00  0.00     0.232 C 
BRANCH  24  25
HETATM   25  C   UNK N   1      27.105  20.511   4.837  0.00  0.00     0.158 C 
HETATM   26  O   UNK N   1      26.711  20.723   3.700  0.00  0.00    -0.649 OA
BRANCH  25  27
HETATM   27  O   UNK N   1      27.170  21.524   5.719  0.00  0.00    -0.775 OA
HETATM   28  H   UNK N   1      27.831  21.559   6.382  0.00  0.00     0.167 HD
ENDBRANCH  25  27
ENDBRANCH  24  25
ENDBRANCH  21  24
ENDBRANCH   1  20
BRANCH   1  29
HETATM   29  N   UNK N   1      24.029  17.121   4.284  0.00  0.00    -0.347 N 
HETATM   30  C   UNK N   1      23.309  18.228   3.978  0.00  0.00     0.218 C 
HETATM   31  O   UNK N   1      23.759  19.344   4.192  0.00  0.00    -0.274 OA
HETATM   32  H   UNK N   1      23.666  16.244   4.022  0.00  0.00     0.163 HD
BRANCH  30  33
HETATM   33  C   UNK N   1      21.953  18.075   3.362  0.00  0.00     0.105 C 
BRANCH  33  34
HETATM   34  C   UNK N   1      20.998  19.060   4.027  0.00  0.00     0.044 C 
BRANCH  34  35
HETATM   35  C   UNK N   1      20.350  20.042   3.045  0.00  0.00     0.173 C 
BRANCH  35  36
HETATM   36  C   UNK N   1      21.315  20.794   2.153  0.00  0.00     0.163 C 
HETATM   37  O   UNK N   1      21.318  20.636   0.942  0.00  0.00    -0.648 OA
BRANCH  36  38
HETATM   38  O   UNK N   1      22.190  21.655   2.704  0.00  0.00    -0.775 OA
HETATM   39  H   UNK N   1      22.623  22.292   2.170  0.00  0.00     0.167 HD
ENDBRANCH  36  38
ENDBRANCH  35  36
BRANCH  35  40
HETATM   40  N   UNK N   1      19.382  19.335   2.224  0.00  0.00    -0.418 N 
HETATM   41  H   UNK N   1      18.413  19.040   2.103  0.00  0.00     0.150 HD
HETATM   42  H   UNK N   1      19.894  18.979   1.417  0.00  0.00     0.150 HD
ENDBRANCH  35  40
ENDBRANCH  34  35
ENDBRANCH  33  34
ENDBRANCH  30  33
ENDBRANCH   1  29
TORSDOF 15
ENDMDL
MODEL 6
REMARK VINA RESULT:      -7.2      4.683      9.502
REMARK  15 active torsions:
REMARK  status: ('A' for Active; 'I' for Inactive)
REMARK    1  A    between atoms: C_10  and  C_9 
REMARK    2  A    between atoms: C_17  and  C_9 
REMARK    3  A    between atoms: C_19  and  C_10 
REMARK    4  A    between atoms: C_20  and  C_11 
REMARK    5  A    between atoms: N_26  and  C_11 
REMARK    6  A    between atoms: C_18  and  C_12 
REMARK    7  A    between atoms: S_35  and  C_12 
REMARK    8  A    between atoms: C_24  and  C_17 
REMARK    9  A    between atoms: C_17  and  N_25 
REMARK   10  A    between atoms: C_23  and  C_18 
REMARK   11  A    between atoms: C_18  and  N_27 
REMARK       I    between atoms: N_27  and  C_19 
REMARK   12  A    between atoms: O_29  and  C_20 
REMARK   13  A    between atoms: C_21  and  O_31 
REMARK   14  A    between atoms: C_22  and  S_35 
REMARK       I    between atoms: N_26  and  C_23 
REMARK   15  A    between atoms: O_33  and  C_24 
ROOT
HETATM    1  C   UNK N   1      28.649  16.819   6.204  0.00  0.00     0.185 C 
ENDROOT
BRANCH   1   2
HETATM    2  C   UNK N   1      27.310  16.460   6.857  0.00  0.00     0.109 C 
BRANCH   2   3
HETATM    3  S   UNK N   1      26.479  15.172   5.850  0.00  0.00    -0.154 SA
BRANCH   3   4
HETATM    4  C   UNK N   1      25.153  14.700   7.011  0.00  0.00     0.114 C 
HETATM    5  C   UNK N   1      23.744  15.099   6.605  0.00  0.00    -0.030 A 
HETATM    6  C   UNK N   1      23.492  15.924   5.500  0.00  0.00     0.009 A 
HETATM    7  C   UNK N   1      22.671  14.661   7.411  0.00  0.00    -0.018 A 
HETATM    8  C   UNK N   1      22.186  16.328   5.209  0.00  0.00     0.001 A 
HETATM    9  C   UNK N   1      21.128  15.926   6.031  0.00  0.00     0.001 A 
HETATM   10  C   UNK N   1      21.368  15.093   7.128  0.00  0.00     0.013 A 
HETATM   11  C   UNK N   1      22.955  13.739   8.541  0.00  0.00    -0.017 A 
HETATM   12  C   UNK N   1      22.028  13.547   9.574  0.00  0.00     0.013 A 
HETATM   13  C   UNK N   1      24.204  13.071   8.590  0.00  0.00    -0.017 A 
HETATM   14  C   UNK N   1      22.349  12.727  10.660  0.00  0.00     0.001 A 
HETATM   15  C   UNK N   1      23.596  12.099  10.724  0.00  0.00     0.001 A 
HETATM   16  C   UNK N   1      24.520  12.266   9.690  0.00  0.00     0.011 A 
HETATM   17  C   UNK N   1      25.185  13.229   7.447  0.00  0.00     0.170 C 
BRANCH  17  18
HETATM   18  O   UNK N   1      24.790  12.408   6.386  0.00  0.00    -0.389 OA
HETATM   19  H   UNK N   1      24.875  11.761   5.668  0.00  0.00     0.210 HD
ENDBRANCH  17  18
ENDBRANCH   3   4
ENDBRANCH   2   3
ENDBRANCH   1   2
BRANCH   1  20
HETATM   20  C   UNK N   1      28.484  17.913   5.149  0.00  0.00     0.241 C 
HETATM   21  N   UNK N   1      28.636  17.663   3.822  0.00  0.00    -0.349 N 
HETATM   22  H   UNK N   1      28.491  18.404   3.191  0.00  0.00     0.163 HD
HETATM   23  O   UNK N   1      28.194  19.045   5.497  0.00  0.00    -0.271 OA
BRANCH  21  24
HETATM   24  C   UNK N   1      28.998  16.376   3.286  0.00  0.00     0.232 C 
BRANCH  24  25
HETATM   25  C   UNK N   1      30.478  16.247   3.101  0.00  0.00     0.158 C 
HETATM   26  O   UNK N   1      31.011  15.149   3.053  0.00  0.00    -0.649 OA
BRANCH  25  27
HETATM   27  O   UNK N   1      31.226  17.357   2.971  0.00  0.00    -0.775 OA
HETATM   28  H   UNK N   1      31.693  17.725   3.696  0.00  0.00     0.167 HD
ENDBRANCH  25  27
ENDBRANCH  24  25
ENDBRANCH  21  24
ENDBRANCH   1  20
BRANCH   1  29
HETATM   29  N   UNK N   1      29.545  17.241   7.268  0.00  0.00    -0.347 N 
HETATM   30  C   UNK N   1      30.896  17.252   7.155  0.00  0.00     0.218 C 
HETATM   31  O   UNK N   1      31.435  16.990   6.089  0.00  0.00    -0.274 OA
HETATM   32  H   UNK N   1      29.149  17.535   8.119  0.00  0.00     0.163 HD
BRANCH  30  33
HETATM   33  C   UNK N   1      31.730  17.598   8.349  0.00  0.00     0.105 C 
BRANCH  33  34
HETATM   34  C   UNK N   1      32.666  16.432   8.649  0.00  0.00     0.044 C 
BRANCH  34  35
HETATM   35  C   UNK N   1      34.145  16.833   8.704  0.00  0.00     0.173 C 
BRANCH  35  36
HETATM   36  C   UNK N   1      34.524  18.020   7.843  0.00  0.00     0.163 C 
HETATM   37  O   UNK N   1      34.463  17.967   6.623  0.00  0.00    -0.648 OA
BRANCH  36  38
HETATM   38  O   UNK N   1      34.939  19.156   8.431  0.00  0.00    -0.775 OA
HETATM   39  H   UNK N   1      35.140  19.909   7.909  0.00  0.00     0.167 HD
ENDBRANCH  36  38
ENDBRANCH  35  36
BRANCH  35  40
HETATM   40  N   UNK N   1      34.523  17.094  10.082  0.00  0.00    -0.418 N 
HETATM   41  H   UNK N   1      34.759  17.791  10.789  0.00  0.00     0.150 HD
HETATM   42  H   UNK N   1      34.572  16.186  10.544  0.00  0.00     0.150 HD
ENDBRANCH  35  40
ENDBRANCH  34  35
ENDBRANCH  33  34
ENDBRANCH  30  33
ENDBRANCH   1  29
TORSDOF 15
ENDMDL
MODEL 7
REMARK VINA RESULT:      -7.2      3.062      5.440
REMARK  15 active torsions:
REMARK  status: ('A' for Active; 'I' for Inactive)
REMARK    1  A    between atoms: C_10  and  C_9 
REMARK    2  A    between atoms: C_17  and  C_9 
REMARK    3  A    between atoms: C_19  and  C_10 
REMARK    4  A    between atoms: C_20  and  C_11 
REMARK    5  A    between atoms: N_26  and  C_11 
REMARK    6  A    between atoms: C_18  and  C_12 
REMARK    7  A    between atoms: S_35  and  C_12 
REMARK    8  A    between atoms: C_24  and  C_17 
REMARK    9  A    between atoms: C_17  and  N_25 
REMARK   10  A    between atoms: C_23  and  C_18 
REMARK   11  A    between atoms: C_18  and  N_27 
REMARK       I    between atoms: N_27  and  C_19 
REMARK   12  A    between atoms: O_29  and  C_20 
REMARK   13  A    between atoms: C_21  and  O_31 
REMARK   14  A    between atoms: C_22  and  S_35 
REMARK       I    between atoms: N_26  and  C_23 
REMARK   15  A    between atoms: O_33  and  C_24 
ROOT
HETATM    1  C   UNK N   1      21.375  16.623   5.630  0.00  0.00     0.185 C 
ENDROOT
BRANCH   1   2
HETATM    2  C   UNK N   1      22.872  16.328   5.490  0.00  0.00     0.109 C 
BRANCH   2   3
HETATM    3  S   UNK N   1      23.679  17.726   4.619  0.00  0.00    -0.154 SA
BRANCH   3   4
HETATM    4  C   UNK N   1      25.426  17.299   4.931  0.00  0.00     0.114 C 
HETATM    5  C   UNK N   1      26.126  16.526   3.826  0.00  0.00    -0.030 A 
HETATM    6  C   UNK N   1      25.436  16.022   2.715  0.00  0.00     0.009 A 
HETATM    7  C   UNK N   1      27.507  16.269   3.967  0.00  0.00    -0.018 A 
HETATM    8  C   UNK N   1      26.106  15.251   1.762  0.00  0.00     0.001 A 
HETATM    9  C   UNK N   1      27.465  14.963   1.923  0.00  0.00     0.001 A 
HETATM   10  C   UNK N   1      28.165  15.471   3.021  0.00  0.00     0.013 A 
HETATM   11  C   UNK N   1      28.231  16.863   5.121  0.00  0.00    -0.017 A 
HETATM   12  C   UNK N   1      29.484  16.379   5.520  0.00  0.00     0.013 A 
HETATM   13  C   UNK N   1      27.622  17.913   5.851  0.00  0.00    -0.017 A 
HETATM   14  C   UNK N   1      30.112  16.911   6.651  0.00  0.00     0.001 A 
HETATM   15  C   UNK N   1      29.492  17.922   7.391  0.00  0.00     0.001 A 
HETATM   16  C   UNK N   1      28.253  18.426   6.990  0.00  0.00     0.011 A 
HETATM   17  C   UNK N   1      26.295  18.478   5.388  0.00  0.00     0.170 C 
BRANCH  17  18
HETATM   18  O   UNK N   1      26.516  19.352   4.319  0.00  0.00    -0.389 OA
HETATM   19  H   UNK N   1      26.988  19.987   3.758  0.00  0.00     0.210 HD
ENDBRANCH  17  18
ENDBRANCH   3   4
ENDBRANCH   2   3
ENDBRANCH   1   2
BRANCH   1  20
HETATM   20  C   UNK N   1      21.045  17.208   7.004  0.00  0.00     0.241 C 
HETATM   21  N   UNK N   1      20.695  16.423   8.055  0.00  0.00    -0.349 N 
HETATM   22  H   UNK N   1      20.519  16.858   8.921  0.00  0.00     0.163 HD
HETATM   23  O   UNK N   1      21.108  18.414   7.175  0.00  0.00    -0.271 OA
BRANCH  21  24
HETATM   24  C   UNK N   1      20.565  14.990   7.977  0.00  0.00     0.232 C 
BRANCH  24  25
HETATM   25  C   UNK N   1      20.420  14.370   9.332  0.00  0.00     0.158 C 
HETATM   26  O   UNK N   1      19.318  14.217   9.838  0.00  0.00    -0.649 OA
BRANCH  25  27
HETATM   27  O   UNK N   1      21.518  13.965   9.992  0.00  0.00    -0.775 OA
HETATM   28  H   UNK N   1      22.373  14.021   9.611  0.00  0.00     0.167 HD
ENDBRANCH  25  27
ENDBRANCH  24  25
ENDBRANCH  21  24
ENDBRANCH   1  20
BRANCH   1  29
HETATM   29  N   UNK N   1      21.018  17.543   4.564  0.00  0.00    -0.347 N 
HETATM   30  C   UNK N   1      19.848  17.487   3.881  0.00  0.00     0.218 C 
HETATM   31  O   UNK N   1      18.974  16.696   4.205  0.00  0.00    -0.274 OA
HETATM   32  H   UNK N   1      21.662  18.248   4.323  0.00  0.00     0.163 HD
BRANCH  30  33
HETATM   33  C   UNK N   1      19.627  18.413   2.725  0.00  0.00     0.105 C 
BRANCH  33  34
HETATM   34  C   UNK N   1      20.981  18.881   2.204  0.00  0.00     0.044 C 
BRANCH  34  35
HETATM   35  C   UNK N   1      21.164  20.402   2.256  0.00  0.00     0.173 C 
BRANCH  35  36
HETATM   36  C   UNK N   1      20.861  21.132   0.964  0.00  0.00     0.163 C 
HETATM   37  O   UNK N   1      21.070  20.616  -0.124  0.00  0.00    -0.648 OA
BRANCH  36  38
HETATM   38  O   UNK N   1      20.353  22.377   1.013  0.00  0.00    -0.775 OA
HETATM   39  H   UNK N   1      20.079  22.741   1.833  0.00  0.00     0.167 HD
ENDBRANCH  36  38
ENDBRANCH  35  36
BRANCH  35  40
HETATM   40  N   UNK N   1      20.348  20.950   3.325  0.00  0.00    -0.418 N 
HETATM   41  H   UNK N   1      20.300  21.254   4.298  0.00  0.00     0.150 HD
HETATM   42  H   UNK N   1      19.417  21.094   2.932  0.00  0.00     0.150 HD
ENDBRANCH  35  40
ENDBRANCH  34  35
ENDBRANCH  33  34
ENDBRANCH  30  33
ENDBRANCH   1  29
TORSDOF 15
ENDMDL
MODEL 8
REMARK VINA RESULT:      -7.2     10.881     13.960
REMARK  15 active torsions:
REMARK  status: ('A' for Active; 'I' for Inactive)
REMARK    1  A    between atoms: C_10  and  C_9 
REMARK    2  A    between atoms: C_17  and  C_9 
REMARK    3  A    between atoms: C_19  and  C_10 
REMARK    4  A    between atoms: C_20  and  C_11 
REMARK    5  A    between atoms: N_26  and  C_11 
REMARK    6  A    between atoms: C_18  and  C_12 
REMARK    7  A    between atoms: S_35  and  C_12 
REMARK    8  A    between atoms: C_24  and  C_17 
REMARK    9  A    between atoms: C_17  and  N_25 
REMARK   10  A    between atoms: C_23  and  C_18 
REMARK   11  A    between atoms: C_18  and  N_27 
REMARK       I    between atoms: N_27  and  C_19 
REMARK   12  A    between atoms: O_29  and  C_20 
REMARK   13  A    between atoms: C_21  and  O_31 
REMARK   14  A    between atoms: C_22  and  S_35 
REMARK       I    between atoms: N_26  and  C_23 
REMARK   15  A    between atoms: O_33  and  C_24 
ROOT
HETATM    1  C   UNK N   1      30.737  21.748  -5.547  0.00  0.00     0.185 C 
ENDROOT
BRANCH   1   2
HETATM    2  C   UNK N   1      30.636  23.271  -5.412  0.00  0.00     0.109 C 
BRANCH   2   3
HETATM    3  S   UNK N   1      30.321  23.999  -7.066  0.00  0.00    -0.154 SA
BRANCH   3   4
HETATM    4  C   UNK N   1      28.869  25.028  -6.662  0.00  0.00     0.114 C 
HETATM    5  C   UNK N   1      27.811  25.137  -7.748  0.00  0.00    -0.030 A 
HETATM    6  C   UNK N   1      28.011  24.626  -9.037  0.00  0.00     0.009 A 
HETATM    7  C   UNK N   1      26.618  25.827  -7.446  0.00  0.00    -0.018 A 
HETATM    8  C   UNK N   1      27.042  24.817 -10.026  0.00  0.00     0.001 A 
HETATM    9  C   UNK N   1      25.878  25.535  -9.738  0.00  0.00     0.001 A 
HETATM   10  C   UNK N   1      25.664  26.039  -8.451  0.00  0.00     0.013 A 
HETATM   11  C   UNK N   1      26.400  26.309  -6.057  0.00  0.00    -0.017 A 
HETATM   12  C   UNK N   1      25.437  27.283  -5.766  0.00  0.00     0.013 A 
HETATM   13  C   UNK N   1      27.212  25.795  -5.015  0.00  0.00    -0.017 A 
HETATM   14  C   UNK N   1      25.301  27.768  -4.462  0.00  0.00     0.001 A 
HETATM   15  C   UNK N   1      26.128  27.286  -3.442  0.00  0.00     0.001 A 
HETATM   16  C   UNK N   1      27.078  26.300  -3.716  0.00  0.00     0.011 A 
HETATM   17  C   UNK N   1      28.214  24.700  -5.313  0.00  0.00     0.170 C 
BRANCH  17  18
HETATM   18  O   UNK N   1      27.545  23.475  -5.392  0.00  0.00    -0.389 OA
HETATM   19  H   UNK N   1      27.429  22.512  -5.416  0.00  0.00     0.210 HD
ENDBRANCH  17  18
ENDBRANCH   3   4
ENDBRANCH   2   3
ENDBRANCH   1   2
BRANCH   1  20
HETATM   20  C   UNK N   1      30.877  21.073  -4.183  0.00  0.00     0.241 C 
HETATM   21  N   UNK N   1      31.906  20.233  -3.897  0.00  0.00    -0.349 N 
HETATM   22  H   UNK N   1      31.954  19.849  -2.992  0.00  0.00     0.163 HD
HETATM   23  O   UNK N   1      30.053  21.298  -3.312  0.00  0.00    -0.271 OA
BRANCH  21  24
HETATM   24  C   UNK N   1      32.929  19.870  -4.844  0.00  0.00     0.232 C 
BRANCH  24  25
HETATM   25  C   UNK N   1      33.984  19.009  -4.220  0.00  0.00     0.158 C 
HETATM   26  O   UNK N   1      35.165  19.316  -4.288  0.00  0.00    -0.649 OA
BRANCH  25  27
HETATM   27  O   UNK N   1      33.622  17.892  -3.567  0.00  0.00    -0.775 OA
HETATM   28  H   UNK N   1      32.753  17.773  -3.237  0.00  0.00     0.167 HD
ENDBRANCH  25  27
ENDBRANCH  24  25
ENDBRANCH  21  24
ENDBRANCH   1  20
BRANCH   1  29
HETATM   29  N   UNK N   1      29.540  21.299  -6.239  0.00  0.00    -0.347 N 
HETATM   30  C   UNK N   1      29.542  20.357  -7.213  0.00  0.00     0.218 C 
HETATM   31  O   UNK N   1      30.568  19.755  -7.497  0.00  0.00    -0.274 OA
HETATM   32  H   UNK N   1      28.678  21.703  -5.986  0.00  0.00     0.163 HD
BRANCH  30  33
HETATM   33  C   UNK N   1      28.270  20.048  -7.939  0.00  0.00     0.105 C 
BRANCH  33  34
HETATM   34  C   UNK N   1      27.453  21.329  -8.064  0.00  0.00     0.044 C 
BRANCH  34  35
HETATM   35  C   UNK N   1      25.986  21.085  -8.439  0.00  0.00     0.173 C 
BRANCH  35  36
HETATM   36  C   UNK N   1      24.985  21.984  -7.745  0.00  0.00     0.163 C 
HETATM   37  O   UNK N   1      25.287  22.628  -6.751  0.00  0.00    -0.648 OA
BRANCH  36  38
HETATM   38  O   UNK N   1      23.734  22.078  -8.231  0.00  0.00    -0.775 OA
HETATM   39  H   UNK N   1      23.004  21.819  -7.704  0.00  0.00     0.167 HD
ENDBRANCH  36  38
ENDBRANCH  35  36
BRANCH  35  40
HETATM   40  N   UNK N   1      25.830  21.205  -9.878  0.00  0.00    -0.418 N 
HETATM   41  H   UNK N   1      25.514  21.777 -10.661  0.00  0.00     0.150 HD
HETATM   42  H   UNK N   1      26.195  20.342 -10.281  0.00  0.00     0.150 HD
ENDBRANCH  35  40
ENDBRANCH  34  35
ENDBRANCH  33  34
ENDBRANCH  30  33
ENDBRANCH   1  29
TORSDOF 15
ENDMDL
MODEL 9
REMARK VINA RESULT:      -7.1      6.987     10.950
REMARK  15 active torsions:
REMARK  status: ('A' for Active; 'I' for Inactive)
REMARK    1  A    between atoms: C_10  and  C_9 
REMARK    2  A    between atoms: C_17  and  C_9 
REMARK    3  A    between atoms: C_19  and  C_10 
REMARK    4  A    between atoms: C_20  and  C_11 
REMARK    5  A    between atoms: N_26  and  C_11 
REMARK    6  A    between atoms: C_18  and  C_12 
REMARK    7  A    between atoms: S_35  and  C_12 
REMARK    8  A    between atoms: C_24  and  C_17 
REMARK    9  A    between atoms: C_17  and  N_25 
REMARK   10  A    between atoms: C_23  and  C_18 
REMARK   11  A    between atoms: C_18  and  N_27 
REMARK       I    between atoms: N_27  and  C_19 
REMARK   12  A    between atoms: O_29  and  C_20 
REMARK   13  A    between atoms: C_21  and  O_31 
REMARK   14  A    between atoms: C_22  and  S_35 
REMARK       I    between atoms: N_26  and  C_23 
REMARK   15  A    between atoms: O_33  and  C_24 
ROOT
HETATM    1  C   UNK N   1      35.234  15.203   9.410  0.00  0.00     0.185 C 
ENDROOT
BRANCH   1   2
HETATM    2  C   UNK N   1      34.523  16.537   9.658  0.00  0.00     0.109 C 
BRANCH   2   3
HETATM    3  S   UNK N   1      34.582  17.541   8.124  0.00  0.00    -0.154 SA
BRANCH   3   4
HETATM    4  C   UNK N   1      32.796  17.630   7.761  0.00  0.00     0.114 C 
HETATM    5  C   UNK N   1      32.404  17.422   6.308  0.00  0.00    -0.030 A 
HETATM    6  C   UNK N   1      33.356  17.337   5.283  0.00  0.00     0.009 A 
HETATM    7  C   UNK N   1      31.029  17.368   5.992  0.00  0.00    -0.018 A 
HETATM    8  C   UNK N   1      32.946  17.222   3.952  0.00  0.00     0.001 A 
HETATM    9  C   UNK N   1      31.585  17.210   3.636  0.00  0.00     0.001 A 
HETATM   10  C   UNK N   1      30.627  17.281   4.652  0.00  0.00     0.013 A 
HETATM   11  C   UNK N   1      30.038  17.399   7.099  0.00  0.00    -0.017 A 
HETATM   12  C   UNK N   1      28.691  17.703   6.862  0.00  0.00     0.013 A 
HETATM   13  C   UNK N   1      30.476  17.153   8.424  0.00  0.00    -0.017 A 
HETATM   14  C   UNK N   1      27.794  17.793   7.931  0.00  0.00     0.001 A 
HETATM   15  C   UNK N   1      28.236  17.585   9.240  0.00  0.00     0.001 A 
HETATM   16  C   UNK N   1      29.573  17.262   9.487  0.00  0.00     0.011 A 
HETATM   17  C   UNK N   1      31.919  16.767   8.678  0.00  0.00     0.170 C 
BRANCH  17  18
HETATM   18  O   UNK N   1      32.093  15.414   8.371  0.00  0.00    -0.389 OA
HETATM   19  H   UNK N   1      31.911  14.552   7.965  0.00  0.00     0.210 HD
ENDBRANCH  17  18
ENDBRANCH   3   4
ENDBRANCH   2   3
ENDBRANCH   1   2
BRANCH   1  20
HETATM   20  C   UNK N   1      34.615  14.076  10.238  0.00  0.00     0.241 C 
HETATM   21  N   UNK N   1      34.986  13.840  11.523  0.00  0.00    -0.349 N 
HETATM   22  H   UNK N   1      34.532  13.115  12.011  0.00  0.00     0.163 HD
HETATM   23  O   UNK N   1      33.753  13.370   9.743  0.00  0.00    -0.271 OA
BRANCH  21  24
HETATM   24  C   UNK N   1      36.006  14.587  12.213  0.00  0.00     0.232 C 
BRANCH  24  25
HETATM   25  C   UNK N   1      36.043  14.261  13.674  0.00  0.00     0.158 C 
HETATM   26  O   UNK N   1      35.149  13.612  14.194  0.00  0.00    -0.649 OA
BRANCH  25  27
HETATM   27  O   UNK N   1      37.082  14.680  14.417  0.00  0.00    -0.775 OA
HETATM   28  H   UNK N   1      37.370  15.572  14.405  0.00  0.00     0.167 HD
ENDBRANCH  25  27
ENDBRANCH  24  25
ENDBRANCH  21  24
ENDBRANCH   1  20
BRANCH   1  29
HETATM   29  N   UNK N   1      35.141  14.925   7.987  0.00  0.00    -0.347 N 
HETATM   30  C   UNK N   1      36.113  14.302   7.276  0.00  0.00     0.218 C 
HETATM   31  O   UNK N   1      37.100  13.845   7.836  0.00  0.00    -0.274 OA
HETATM   32  H   UNK N   1      34.327  15.207   7.510  0.00  0.00     0.163 HD
BRANCH  30  33
HETATM   33  C   UNK N   1      35.966  14.165   5.793  0.00  0.00     0.105 C 
BRANCH  33  34
HETATM   34  C   UNK N   1      35.369  12.797   5.482  0.00  0.00     0.044 C 
BRANCH  34  35
HETATM   35  C   UNK N   1      33.953  12.866   4.898  0.00  0.00     0.173 C 
BRANCH  35  36
HETATM   36  C   UNK N   1      32.871  13.272   5.875  0.00  0.00     0.163 C 
HETATM   37  O   UNK N   1      31.972  14.034   5.550  0.00  0.00    -0.648 OA
BRANCH  36  38
HETATM   38  O   UNK N   1      32.897  12.787   7.130  0.00  0.00    -0.775 OA
HETATM   39  H   UNK N   1      32.247  13.054   7.751  0.00  0.00     0.167 HD
ENDBRANCH  36  38
ENDBRANCH  35  36
BRANCH  35  40
HETATM   40  N   UNK N   1      33.944  13.770   3.761  0.00  0.00    -0.418 N 
HETATM   41  H   UNK N   1      33.709  14.696   3.404  0.00  0.00     0.150 HD
HETATM   42  H   UNK N   1      34.350  13.255   2.980  0.00  0.00     0.150 HD
ENDBRANCH  35  40
ENDBRANCH  34  35
ENDBRANCH  33  34
ENDBRANCH  30  33
ENDBRANCH   1  29
TORSDOF 15
ENDMDL
