MODEL 1
REMARK VINA RESULT:      -4.8      0.000      0.000
REMARK  4 active torsions:
REMARK  status: ('A' for Active; 'I' for Inactive)
REMARK    1  A    between atoms: C_5  and  N_9 
REMARK    2  A    between atoms: C_6  and  C_7 
REMARK    3  A    between atoms: O_11  and  C_7 
REMARK    4  A    between atoms: O_12  and  N_9 
ROOT
HETATM    1  C   UNK N   1      35.894  13.616   9.177  0.00  0.00     0.012 C 
HETATM    2  C   UNK N   1      34.700  15.674   8.334  0.00  0.00     0.049 C 
HETATM    3  C   UNK N   1      35.760  15.129   9.244  0.00  0.00     0.017 C 
HETATM    4  C   UNK N   1      34.641  17.114   8.843  0.00  0.00     0.178 C 
HETATM    5  C   UNK N   1      35.347  15.721  10.599  0.00  0.00     0.180 C 
HETATM    6  N   UNK N   1      34.786  17.048  10.302  0.00  0.00    -0.390 N 
HETATM    7  H   UNK N   1      34.545  17.776  10.975  0.00  0.00     0.155 HD
ENDROOT
BRANCH   4   8
HETATM    8  N   UNK N   1      33.414  17.826   8.464  0.00  0.00    -0.181 NA
HETATM    9  C   UNK N   1      33.166  17.670   7.036  0.00  0.00     0.146 C 
BRANCH   8  10
HETATM   10  O   UNK N   1      32.357  17.290   9.125  0.00  0.00    -0.311 OA
HETATM   11  H   UNK N   1      31.704  16.585   8.990  0.00  0.00     0.237 HD
ENDBRANCH   8  10
ENDBRANCH   4   8
BRANCH   5  12
HETATM   12  C   UNK N   1      34.326  14.885  11.348  0.00  0.00     0.163 C 
HETATM   13  O   UNK N   1      34.676  14.100  12.216  0.00  0.00    -0.648 OA
BRANCH  12  14
HETATM   14  O   UNK N   1      33.021  14.969  11.021  0.00  0.00    -0.775 OA
HETATM   15  H   UNK N   1      32.592  15.774  10.810  0.00  0.00     0.167 HD
ENDBRANCH  12  14
ENDBRANCH   5  12
TORSDOF 4
ENDMDL
MODEL 2
REMARK VINA RESULT:      -4.7      2.102      4.118
REMARK  4 active torsions:
REMARK  status: ('A' for Active; 'I' for Inactive)
REMARK    1  A    between atoms: C_5  and  N_9 
REMARK    2  A    between atoms: C_6  and  C_7 
REMARK    3  A    between atoms: O_11  and  C_7 
REMARK    4  A    between atoms: O_12  and  N_9 
ROOT
HETATM    1  C   UNK N   1      34.719  15.278   6.686  0.00  0.00     0.012 C 
HETATM    2  C   UNK N   1      35.520  15.166   9.077  0.00  0.00     0.049 C 
HETATM    3  C   UNK N   1      34.355  15.385   8.158  0.00  0.00     0.017 C 
HETATM    4  C   UNK N   1      34.890  15.609  10.398  0.00  0.00     0.178 C 
HETATM    5  C   UNK N   1      33.828  16.745   8.637  0.00  0.00     0.180 C 
HETATM    6  N   UNK N   1      34.049  16.772  10.091  0.00  0.00    -0.390 N 
HETATM    7  H   UNK N   1      33.690  17.460  10.752  0.00  0.00     0.155 HD
ENDROOT
BRANCH   4   8
HETATM    8  N   UNK N   1      35.872  15.927  11.444  0.00  0.00    -0.181 NA
HETATM    9  C   UNK N   1      35.954  14.831  12.401  0.00  0.00     0.146 C 
BRANCH   8  10
HETATM   10  O   UNK N   1      37.098  16.076  10.884  0.00  0.00    -0.311 OA
HETATM   11  H   UNK N   1      37.509  15.981  10.010  0.00  0.00     0.237 HD
ENDBRANCH   8  10
ENDBRANCH   4   8
BRANCH   5  12
HETATM   12  C   UNK N   1      34.516  17.932   7.989  0.00  0.00     0.163 C 
HETATM   13  O   UNK N   1      35.200  18.697   8.651  0.00  0.00    -0.648 OA
BRANCH  12  14
HETATM   14  O   UNK N   1      34.331  18.179   6.677  0.00  0.00    -0.775 OA
HETATM   15  H   UNK N   1      34.907  17.870   6.006  0.00  0.00     0.167 HD
ENDBRANCH  12  14
ENDBRANCH   5  12
TORSDOF 4
ENDMDL
MODEL 3
REMARK VINA RESULT:      -4.6     13.978     15.095
REMARK  4 active torsions:
REMARK  status: ('A' for Active; 'I' for Inactive)
REMARK    1  A    between atoms: C_5  and  N_9 
REMARK    2  A    between atoms: C_6  and  C_7 
REMARK    3  A    between atoms: O_11  and  C_7 
REMARK    4  A    between atoms: O_12  and  N_9 
ROOT
HETATM    1  C   UNK N   1      30.571  24.629  -4.483  0.00  0.00     0.012 C 
HETATM    2  C   UNK N   1      32.266  22.793  -4.124  0.00  0.00     0.049 C 
HETATM    3  C   UNK N   1      30.872  23.141  -4.556  0.00  0.00     0.017 C 
HETATM    4  C   UNK N   1      32.138  21.272  -4.050  0.00  0.00     0.178 C 
HETATM    5  C   UNK N   1      30.028  22.226  -3.658  0.00  0.00     0.180 C 
HETATM    6  N   UNK N   1      30.809  20.990  -3.497  0.00  0.00    -0.390 N 
HETATM    7  H   UNK N   1      30.490  20.114  -3.084  0.00  0.00     0.155 HD
ENDROOT
BRANCH   4   8
HETATM    8  N   UNK N   1      33.191  20.628  -3.252  0.00  0.00    -0.181 NA
HETATM    9  C   UNK N   1      34.504  20.997  -3.767  0.00  0.00     0.146 C 
BRANCH   8  10
HETATM   10  O   UNK N   1      33.117  21.063  -1.970  0.00  0.00    -0.311 OA
HETATM   11  H   UNK N   1      33.340  21.860  -1.464  0.00  0.00     0.237 HD
ENDBRANCH   8  10
ENDBRANCH   4   8
BRANCH   5  12
HETATM   12  C   UNK N   1      29.715  22.819  -2.298  0.00  0.00     0.163 C 
HETATM   13  O   UNK N   1      30.588  22.937  -1.450  0.00  0.00    -0.648 OA
BRANCH  12  14
HETATM   14  O   UNK N   1      28.451  23.177  -1.997  0.00  0.00    -0.775 OA
HETATM   15  H   UNK N   1      27.700  22.668  -2.231  0.00  0.00     0.167 HD
ENDBRANCH  12  14
ENDBRANCH   5  12
TORSDOF 4
ENDMDL
MODEL 4
REMARK VINA RESULT:      -4.4     19.445     20.347
REMARK  4 active torsions:
REMARK  status: ('A' for Active; 'I' for Inactive)
REMARK    1  A    between atoms: C_5  and  N_9 
REMARK    2  A    between atoms: C_6  and  C_7 
REMARK    3  A    between atoms: O_11  and  C_7 
REMARK    4  A    between atoms: O_12  and  N_9 
ROOT
HETATM    1  C   UNK N   1      27.882  28.805  -5.258  0.00  0.00     0.012 C 
HETATM    2  C   UNK N   1      26.984  26.748  -6.413  0.00  0.00     0.049 C 
HETATM    3  C   UNK N   1      26.670  28.101  -5.848  0.00  0.00     0.017 C 
HETATM    4  C   UNK N   1      25.564  26.232  -6.645  0.00  0.00     0.178 C 
HETATM    5  C   UNK N   1      25.526  27.779  -4.877  0.00  0.00     0.180 C 
HETATM    6  N   UNK N   1      24.761  26.691  -5.506  0.00  0.00    -0.390 N 
HETATM    7  H   UNK N   1      23.855  26.328  -5.209  0.00  0.00     0.155 HD
ENDROOT
BRANCH   4   8
HETATM    8  N   UNK N   1      25.481  24.773  -6.798  0.00  0.00    -0.181 NA
HETATM    9  C   UNK N   1      26.759  24.247  -7.263  0.00  0.00     0.146 C 
BRANCH   8  10
HETATM   10  O   UNK N   1      25.218  24.206  -5.594  0.00  0.00    -0.311 OA
HETATM   11  H   UNK N   1      25.534  24.275  -4.680  0.00  0.00     0.237 HD
ENDBRANCH   8  10
ENDBRANCH   4   8
BRANCH   5  12
HETATM   12  C   UNK N   1      25.992  27.352  -3.498  0.00  0.00     0.163 C 
HETATM   13  O   UNK N   1      26.190  28.178  -2.620  0.00  0.00    -0.648 OA
BRANCH  12  14
HETATM   14  O   UNK N   1      26.242  26.051  -3.248  0.00  0.00    -0.775 OA
HETATM   15  H   UNK N   1      26.734  25.499  -3.822  0.00  0.00     0.167 HD
ENDBRANCH  12  14
ENDBRANCH   5  12
TORSDOF 4
ENDMDL
MODEL 5
REMARK VINA RESULT:      -4.4      2.645      4.603
REMARK  4 active torsions:
REMARK  status: ('A' for Active; 'I' for Inactive)
REMARK    1  A    between atoms: C_5  and  N_9 
REMARK    2  A    between atoms: C_6  and  C_7 
REMARK    3  A    between atoms: O_11  and  C_7 
REMARK    4  A    between atoms: O_12  and  N_9 
ROOT
HETATM    1  C   UNK N   1      34.895  15.061   8.062  0.00  0.00     0.012 C 
HETATM    2  C   UNK N   1      35.691  13.385   9.775  0.00  0.00     0.049 C 
HETATM    3  C   UNK N   1      34.646  14.397   9.408  0.00  0.00     0.017 C 
HETATM    4  C   UNK N   1      35.308  13.141  11.234  0.00  0.00     0.178 C 
HETATM    5  C   UNK N   1      34.653  15.317  10.637  0.00  0.00     0.180 C 
HETATM    6  N   UNK N   1      34.922  14.443  11.790  0.00  0.00    -0.390 N 
HETATM    7  H   UNK N   1      34.854  14.693  12.776  0.00  0.00     0.155 HD
ENDROOT
BRANCH   4   8
HETATM    8  N   UNK N   1      36.376  12.521  12.031  0.00  0.00    -0.181 NA
HETATM    9  C   UNK N   1      37.074  11.518  11.236  0.00  0.00     0.146 C 
BRANCH   8  10
HETATM   10  O   UNK N   1      37.281  13.466  12.386  0.00  0.00    -0.311 OA
HETATM   11  H   UNK N   1      37.946  14.027  11.956  0.00  0.00     0.237 HD
ENDBRANCH   8  10
ENDBRANCH   4   8
BRANCH   5  12
HETATM   12  C   UNK N   1      35.692  16.420  10.573  0.00  0.00     0.163 C 
HETATM   13  O   UNK N   1      35.393  17.540  10.186  0.00  0.00    -0.648 OA
BRANCH  12  14
HETATM   14  O   UNK N   1      36.973  16.154  10.896  0.00  0.00    -0.775 OA
HETATM   15  H   UNK N   1      37.249  15.357  11.302  0.00  0.00     0.167 HD
ENDBRANCH  12  14
ENDBRANCH   5  12
TORSDOF 4
ENDMDL
MODEL 6
REMARK VINA RESULT:      -4.2      4.363      5.874
REMARK  4 active torsions:
REMARK  status: ('A' for Active; 'I' for Inactive)
REMARK    1  A    between atoms: C_5  and  N_9 
REMARK    2  A    between atoms: C_6  and  C_7 
REMARK    3  A    between atoms: O_11  and  C_7 
REMARK    4  A    between atoms: O_12  and  N_9 
ROOT
HETATM    1  C   UNK N   1      36.956  10.731  15.532  0.00  0.00     0.012 C 
HETATM    2  C   UNK N   1      36.437  11.953  13.385  0.00  0.00     0.049 C 
HETATM    3  C   UNK N   1      37.130  12.001  14.715  0.00  0.00     0.017 C 
HETATM    4  C   UNK N   1      36.569  13.420  12.975  0.00  0.00     0.178 C 
HETATM    5  C   UNK N   1      36.558  13.290  15.321  0.00  0.00     0.180 C 
HETATM    6  N   UNK N   1      36.367  14.214  14.192  0.00  0.00    -0.390 N 
HETATM    7  H   UNK N   1      36.140  15.207  14.245  0.00  0.00     0.155 HD
ENDROOT
BRANCH   4   8
HETATM    8  N   UNK N   1      35.633  13.825  11.917  0.00  0.00    -0.181 NA
HETATM    9  C   UNK N   1      35.763  12.937  10.768  0.00  0.00     0.146 C 
BRANCH   8  10
HETATM   10  O   UNK N   1      34.360  13.721  12.374  0.00  0.00    -0.311 OA
HETATM   11  H   UNK N   1      33.897  13.721  13.227  0.00  0.00     0.237 HD
ENDBRANCH   8  10
ENDBRANCH   4   8
BRANCH   5  12
HETATM   12  C   UNK N   1      35.244  13.094  16.054  0.00  0.00     0.163 C 
HETATM   13  O   UNK N   1      34.187  13.042  15.442  0.00  0.00    -0.648 OA
BRANCH  12  14
HETATM   14  O   UNK N   1      35.231  13.026  17.400  0.00  0.00    -0.775 OA
HETATM   15  H   UNK N   1      34.453  13.106  17.914  0.00  0.00     0.167 HD
ENDBRANCH  12  14
ENDBRANCH   5  12
TORSDOF 4
ENDMDL
MODEL 7
REMARK VINA RESULT:      -4.2     13.943     15.105
REMARK  4 active torsions:
REMARK  status: ('A' for Active; 'I' for Inactive)
REMARK    1  A    between atoms: C_5  and  N_9 
REMARK    2  A    between atoms: C_6  and  C_7 
REMARK    3  A    between atoms: O_11  and  C_7 
REMARK    4  A    between atoms: O_12  and  N_9 
ROOT
HETATM    1  C   UNK N   1      31.873  23.513  -4.987  0.00  0.00     0.012 C 
HETATM    2  C   UNK N   1      33.143  21.358  -5.330  0.00  0.00     0.049 C 
HETATM    3  C   UNK N   1      31.801  22.002  -5.144  0.00  0.00     0.017 C 
HETATM    4  C   UNK N   1      32.746  19.891  -5.172  0.00  0.00     0.178 C 
HETATM    5  C   UNK N   1      31.238  21.216  -3.952  0.00  0.00     0.180 C 
HETATM    6  N   UNK N   1      31.740  19.842  -4.105  0.00  0.00    -0.390 N 
HETATM    7  H   UNK N   1      31.449  19.021  -3.575  0.00  0.00     0.155 HD
ENDROOT
BRANCH   4   8
HETATM    8  N   UNK N   1      33.877  19.000  -4.876  0.00  0.00    -0.181 NA
HETATM    9  C   UNK N   1      35.054  19.787  -4.527  0.00  0.00     0.146 C 
BRANCH   8  10
HETATM   10  O   UNK N   1      33.572  18.223  -3.807  0.00  0.00    -0.311 OA
HETATM   11  H   UNK N   1      34.015  17.576  -3.235  0.00  0.00     0.237 HD
ENDBRANCH   8  10
ENDBRANCH   4   8
BRANCH   5  12
HETATM   12  C   UNK N   1      31.650  21.769  -2.601  0.00  0.00     0.163 C 
HETATM   13  O   UNK N   1      31.025  22.681  -2.081  0.00  0.00    -0.648 OA
BRANCH  12  14
HETATM   14  O   UNK N   1      32.748  21.286  -1.986  0.00  0.00    -0.775 OA
HETATM   15  H   UNK N   1      32.716  20.703  -1.254  0.00  0.00     0.167 HD
ENDBRANCH  12  14
ENDBRANCH   5  12
TORSDOF 4
ENDMDL
MODEL 8
REMARK VINA RESULT:      -4.2     19.575     20.311
REMARK  4 active torsions:
REMARK  status: ('A' for Active; 'I' for Inactive)
REMARK    1  A    between atoms: C_5  and  N_9 
REMARK    2  A    between atoms: C_6  and  C_7 
REMARK    3  A    between atoms: O_11  and  C_7 
REMARK    4  A    between atoms: O_12  and  N_9 
ROOT
HETATM    1  C   UNK N   1      27.078  26.988  -7.834  0.00  0.00     0.012 C 
HETATM    2  C   UNK N   1      26.956  28.247  -5.650  0.00  0.00     0.049 C 
HETATM    3  C   UNK N   1      27.494  27.048  -6.373  0.00  0.00     0.017 C 
HETATM    4  C   UNK N   1      27.307  27.859  -4.214  0.00  0.00     0.178 C 
HETATM    5  C   UNK N   1      27.016  25.899  -5.476  0.00  0.00     0.180 C 
HETATM    6  N   UNK N   1      27.066  26.416  -4.100  0.00  0.00    -0.390 N 
HETATM    7  H   UNK N   1      26.955  25.879  -3.239  0.00  0.00     0.155 HD
ENDROOT
BRANCH   4   8
HETATM    8  N   UNK N   1      26.553  28.604  -3.197  0.00  0.00    -0.181 NA
HETATM    9  C   UNK N   1      26.484  30.014  -3.560  0.00  0.00     0.146 C 
BRANCH   8  10
HETATM   10  O   UNK N   1      25.282  28.133  -3.141  0.00  0.00    -0.311 OA
HETATM   11  H   UNK N   1      24.444  28.366  -2.711  0.00  0.00     0.237 HD
ENDBRANCH   8  10
ENDBRANCH   4   8
BRANCH   5  12
HETATM   12  C   UNK N   1      25.613  25.415  -5.794  0.00  0.00     0.163 C 
HETATM   13  O   UNK N   1      24.636  26.071  -5.467  0.00  0.00    -0.648 OA
BRANCH  12  14
HETATM   14  O   UNK N   1      25.437  24.223  -6.399  0.00  0.00    -0.775 OA
HETATM   15  H   UNK N   1      25.865  23.437  -6.127  0.00  0.00     0.167 HD
ENDBRANCH  12  14
ENDBRANCH   5  12
TORSDOF 4
ENDMDL
MODEL 9
REMARK VINA RESULT:      -4.2      2.840      3.821
REMARK  4 active torsions:
REMARK  status: ('A' for Active; 'I' for Inactive)
REMARK    1  A    between atoms: C_5  and  N_9 
REMARK    2  A    between atoms: C_6  and  C_7 
REMARK    3  A    between atoms: O_11  and  C_7 
REMARK    4  A    between atoms: O_12  and  N_9 
ROOT
HETATM    1  C   UNK N   1      31.593  14.873   6.549  0.00  0.00     0.012 C 
HETATM    2  C   UNK N   1      30.372  16.779   7.667  0.00  0.00     0.049 C 
HETATM    3  C   UNK N   1      31.686  16.263   7.159  0.00  0.00     0.017 C 
HETATM    4  C   UNK N   1      30.860  18.008   8.435  0.00  0.00     0.178 C 
HETATM    5  C   UNK N   1      32.581  16.409   8.398  0.00  0.00     0.180 C 
HETATM    6  N   UNK N   1      32.116  17.621   9.089  0.00  0.00    -0.390 N 
HETATM    7  H   UNK N   1      32.573  18.097   9.866  0.00  0.00     0.155 HD
ENDROOT
BRANCH   4   8
HETATM    8  N   UNK N   1      29.890  18.519   9.412  0.00  0.00    -0.181 NA
HETATM    9  C   UNK N   1      28.564  18.589   8.810  0.00  0.00     0.146 C 
BRANCH   8  10
HETATM   10  O   UNK N   1      29.816  17.667  10.465  0.00  0.00    -0.311 OA
HETATM   11  H   UNK N   1      29.196  17.012  10.822  0.00  0.00     0.237 HD
ENDBRANCH   8  10
ENDBRANCH   4   8
BRANCH   5  12
HETATM   12  C   UNK N   1      32.521  15.222   9.342  0.00  0.00     0.163 C 
HETATM   13  O   UNK N   1      33.274  14.270   9.199  0.00  0.00    -0.648 OA
BRANCH  12  14
HETATM   14  O   UNK N   1      31.595  15.190  10.320  0.00  0.00    -0.775 OA
HETATM   15  H   UNK N   1      31.623  15.741  11.077  0.00  0.00     0.167 HD
ENDBRANCH  12  14
ENDBRANCH   5  12
TORSDOF 4
ENDMDL
