MODEL 1
REMARK VINA RESULT:      -5.2      0.000      0.000
REMARK  5 active torsions:
REMARK  status: ('A' for Active; 'I' for Inactive)
REMARK    1  A    between atoms: C_2  and  N_1 
REMARK    2  A    between atoms: C_2  and  C_3 
REMARK    3  A    between atoms: C_2  and  C_10 
REMARK    4  A    between atoms: C_3  and  C_4 
REMARK    5  A    between atoms: C_10  and  O_11 
ROOT
HETATM    1  C   UNK N   1      33.303  17.259   8.536  0.00  0.00     0.177 C 
ENDROOT
BRANCH   1   2
HETATM    2  N   UNK N   1      31.998  17.813   8.831  0.00  0.00    -0.417 N 
HETATM    3  H   UNK N   1      31.459  18.270   8.096  0.00  0.00     0.150 HD
HETATM    4  H   UNK N   1      31.617  17.747   9.775  0.00  0.00     0.150 HD
ENDBRANCH   1   2
BRANCH   1   5
HETATM    5  C   UNK N   1      33.721  15.857   9.006  0.00  0.00     0.082 C 
BRANCH   5   6
HETATM    6  C   UNK N   1      34.569  15.625  10.237  0.00  0.00     0.038 A 
HETATM    7  C   UNK N   1      34.442  14.490  11.018  0.00  0.00     0.180 A 
HETATM    8  O   UNK N   1      35.311  14.580  12.009  0.00  0.00    -0.247 OA
HETATM    9  N   UNK N   1      36.001  15.681  11.947  0.00  0.00    -0.226 N 
HETATM   10  C   UNK N   1      35.568  16.354  10.860  0.00  0.00     0.273 A 
HETATM   11  H   UNK N   1      36.705  15.968  12.572  0.00  0.00     0.198 HD
HETATM   12  O   UNK N   1      36.020  17.430  10.524  0.00  0.00    -0.266 OA
ENDBRANCH   5   6
ENDBRANCH   1   5
BRANCH   1  13
HETATM   13  C   UNK N   1      34.227  18.132   7.746  0.00  0.00     0.163 C 
HETATM   14  O   UNK N   1      34.315  18.002   6.535  0.00  0.00    -0.648 OA
BRANCH  13  15
HETATM   15  O   UNK N   1      34.968  19.068   8.372  0.00  0.00    -0.775 OA
HETATM   16  H   UNK N   1      35.810  19.300   8.035  0.00  0.00     0.167 HD
ENDBRANCH  13  15
ENDBRANCH   1  13
TORSDOF 5
ENDMDL
MODEL 2
REMARK VINA RESULT:      -5.0     12.349     13.742
REMARK  5 active torsions:
REMARK  status: ('A' for Active; 'I' for Inactive)
REMARK    1  A    between atoms: C_2  and  N_1 
REMARK    2  A    between atoms: C_2  and  C_3 
REMARK    3  A    between atoms: C_2  and  C_10 
REMARK    4  A    between atoms: C_3  and  C_4 
REMARK    5  A    between atoms: C_10  and  O_11 
ROOT
HETATM    1  C   UNK N   1      23.733  12.178  11.065  0.00  0.00     0.177 C 
ENDROOT
BRANCH   1   2
HETATM    2  N   UNK N   1      25.150  12.477  11.046  0.00  0.00    -0.417 N 
HETATM    3  H   UNK N   1      25.802  11.836  10.594  0.00  0.00     0.150 HD
HETATM    4  H   UNK N   1      25.497  13.331  11.485  0.00  0.00     0.150 HD
ENDBRANCH   1   2
BRANCH   1   5
HETATM    5  C   UNK N   1      22.890  12.130   9.781  0.00  0.00     0.082 C 
BRANCH   5   6
HETATM    6  C   UNK N   1      21.902  13.215   9.411  0.00  0.00     0.038 A 
HETATM    7  C   UNK N   1      22.177  14.166   8.445  0.00  0.00     0.180 A 
HETATM    8  O   UNK N   1      21.130  14.965   8.351  0.00  0.00    -0.247 OA
HETATM    9  N   UNK N   1      20.186  14.621   9.177  0.00  0.00    -0.226 N 
HETATM   10  C   UNK N   1      20.630  13.539   9.851  0.00  0.00     0.273 A 
HETATM   11  H   UNK N   1      19.314  15.064   9.289  0.00  0.00     0.198 HD
HETATM   12  O   UNK N   1      19.974  12.974  10.702  0.00  0.00    -0.266 OA
ENDBRANCH   5   6
ENDBRANCH   1   5
BRANCH   1  13
HETATM   13  C   UNK N   1      23.132  11.915  12.411  0.00  0.00     0.163 C 
HETATM   14  O   UNK N   1      23.794  12.070  13.425  0.00  0.00    -0.648 OA
BRANCH  13  15
HETATM   15  O   UNK N   1      21.852  11.505  12.507  0.00  0.00    -0.775 OA
HETATM   16  H   UNK N   1      21.539  11.132  13.307  0.00  0.00     0.167 HD
ENDBRANCH  13  15
ENDBRANCH   1  13
TORSDOF 5
ENDMDL
MODEL 3
REMARK VINA RESULT:      -4.9     13.244     14.820
REMARK  5 active torsions:
REMARK  status: ('A' for Active; 'I' for Inactive)
REMARK    1  A    between atoms: C_2  and  N_1 
REMARK    2  A    between atoms: C_2  and  C_3 
REMARK    3  A    between atoms: C_2  and  C_10 
REMARK    4  A    between atoms: C_3  and  C_4 
REMARK    5  A    between atoms: C_10  and  O_11 
ROOT
HETATM    1  C   UNK N   1      20.258  19.434   2.471  0.00  0.00     0.177 C 
ENDROOT
BRANCH   1   2
HETATM    2  N   UNK N   1      19.246  18.451   2.142  0.00  0.00    -0.417 N 
HETATM    3  H   UNK N   1      19.351  17.486   2.453  0.00  0.00     0.150 HD
HETATM    4  H   UNK N   1      18.428  18.725   1.598  0.00  0.00     0.150 HD
ENDBRANCH   1   2
BRANCH   1   5
HETATM    5  C   UNK N   1      20.755  19.645   3.910  0.00  0.00     0.082 C 
BRANCH   5   6
HETATM    6  C   UNK N   1      21.530  18.592   4.671  0.00  0.00     0.038 A 
HETATM    7  C   UNK N   1      22.386  17.707   4.041  0.00  0.00     0.180 A 
HETATM    8  O   UNK N   1      22.909  16.920   4.965  0.00  0.00    -0.247 OA
HETATM    9  N   UNK N   1      22.468  17.213   6.153  0.00  0.00    -0.226 N 
HETATM   10  C   UNK N   1      21.611  18.246   6.009  0.00  0.00     0.273 A 
HETATM   11  H   UNK N   1      22.713  16.767   6.996  0.00  0.00     0.198 HD
HETATM   12  O   UNK N   1      21.026  18.756   6.944  0.00  0.00    -0.266 OA
ENDBRANCH   5   6
ENDBRANCH   1   5
BRANCH   1  13
HETATM   13  C   UNK N   1      20.797  20.235   1.328  0.00  0.00     0.163 C 
HETATM   14  O   UNK N   1      21.416  21.267   1.533  0.00  0.00    -0.648 OA
BRANCH  13  15
HETATM   15  O   UNK N   1      20.600  19.817   0.061  0.00  0.00    -0.775 OA
HETATM   16  H   UNK N   1      21.081  20.207  -0.641  0.00  0.00     0.167 HD
ENDBRANCH  13  15
ENDBRANCH   1  13
TORSDOF 5
ENDMDL
MODEL 4
REMARK VINA RESULT:      -4.9      5.731      7.831
REMARK  5 active torsions:
REMARK  status: ('A' for Active; 'I' for Inactive)
REMARK    1  A    between atoms: C_2  and  N_1 
REMARK    2  A    between atoms: C_2  and  C_3 
REMARK    3  A    between atoms: C_2  and  C_10 
REMARK    4  A    between atoms: C_3  and  C_4 
REMARK    5  A    between atoms: C_10  and  O_11 
ROOT
HETATM    1  C   UNK N   1      36.046  13.770  14.947  0.00  0.00     0.177 C 
ENDROOT
BRANCH   1   2
HETATM    2  N   UNK N   1      37.229  14.400  15.498  0.00  0.00    -0.417 N 
HETATM    3  H   UNK N   1      37.861  13.866  16.094  0.00  0.00     0.150 HD
HETATM    4  H   UNK N   1      37.430  15.378  15.290  0.00  0.00     0.150 HD
ENDBRANCH   1   2
BRANCH   1   5
HETATM    5  C   UNK N   1      34.960  13.148  15.839  0.00  0.00     0.082 C 
BRANCH   5   6
HETATM    6  C   UNK N   1      35.157  12.908  17.320  0.00  0.00     0.038 A 
HETATM    7  C   UNK N   1      35.287  11.637  17.851  0.00  0.00     0.180 A 
HETATM    8  O   UNK N   1      35.444  11.756  19.157  0.00  0.00    -0.247 OA
HETATM    9  N   UNK N   1      35.428  13.001  19.533  0.00  0.00    -0.226 N 
HETATM   10  C   UNK N   1      35.252  13.744  18.419  0.00  0.00     0.273 A 
HETATM   11  H   UNK N   1      35.525  13.338  20.453  0.00  0.00     0.198 HD
HETATM   12  O   UNK N   1      35.193  14.957  18.436  0.00  0.00    -0.266 OA
ENDBRANCH   5   6
ENDBRANCH   1   5
BRANCH   1  13
HETATM   13  C   UNK N   1      35.939  13.759  13.454  0.00  0.00     0.163 C 
HETATM   14  O   UNK N   1      34.846  13.788  12.913  0.00  0.00    -0.648 OA
BRANCH  13  15
HETATM   15  O   UNK N   1      37.055  13.717  12.700  0.00  0.00    -0.775 OA
HETATM   16  H   UNK N   1      37.356  14.489  12.265  0.00  0.00     0.167 HD
ENDBRANCH  13  15
ENDBRANCH   1  13
TORSDOF 5
ENDMDL
MODEL 5
REMARK VINA RESULT:      -4.8      3.977      5.534
REMARK  5 active torsions:
REMARK  status: ('A' for Active; 'I' for Inactive)
REMARK    1  A    between atoms: C_2  and  N_1 
REMARK    2  A    between atoms: C_2  and  C_3 
REMARK    3  A    between atoms: C_2  and  C_10 
REMARK    4  A    between atoms: C_3  and  C_4 
REMARK    5  A    between atoms: C_10  and  O_11 
ROOT
HETATM    1  C   UNK N   1      29.765  17.521   8.319  0.00  0.00     0.177 C 
ENDROOT
BRANCH   1   2
HETATM    2  N   UNK N   1      29.020  17.201   7.120  0.00  0.00    -0.417 N 
HETATM    3  H   UNK N   1      28.001  17.219   7.131  0.00  0.00     0.150 HD
HETATM    4  H   UNK N   1      29.516  16.958   6.261  0.00  0.00     0.150 HD
ENDBRANCH   1   2
BRANCH   1   5
HETATM    5  C   UNK N   1      31.239  17.121   8.498  0.00  0.00     0.082 C 
BRANCH   5   6
HETATM    6  C   UNK N   1      32.291  17.383   7.443  0.00  0.00     0.038 A 
HETATM    7  C   UNK N   1      33.490  18.008   7.736  0.00  0.00     0.180 A 
HETATM    8  O   UNK N   1      34.189  18.090   6.619  0.00  0.00    -0.247 OA
HETATM    9  N   UNK N   1      33.550  17.571   5.611  0.00  0.00    -0.226 N 
HETATM   10  C   UNK N   1      32.369  17.122   6.086  0.00  0.00     0.273 A 
HETATM   11  H   UNK N   1      33.867  17.516   4.680  0.00  0.00     0.198 HD
HETATM   12  O   UNK N   1      31.537  16.580   5.386  0.00  0.00    -0.266 OA
ENDBRANCH   5   6
ENDBRANCH   1   5
BRANCH   1  13
HETATM   13  C   UNK N   1      29.018  18.266   9.381  0.00  0.00     0.163 C 
HETATM   14  O   UNK N   1      29.622  18.908  10.226  0.00  0.00    -0.648 OA
BRANCH  13  15
HETATM   15  O   UNK N   1      27.671  18.230   9.408  0.00  0.00    -0.775 OA
HETATM   16  H   UNK N   1      27.184  19.019   9.533  0.00  0.00     0.167 HD
ENDBRANCH  13  15
ENDBRANCH   1  13
TORSDOF 5
ENDMDL
MODEL 6
REMARK VINA RESULT:      -4.7      2.930      5.027
REMARK  5 active torsions:
REMARK  status: ('A' for Active; 'I' for Inactive)
REMARK    1  A    between atoms: C_2  and  N_1 
REMARK    2  A    between atoms: C_2  and  C_3 
REMARK    3  A    between atoms: C_2  and  C_10 
REMARK    4  A    between atoms: C_3  and  C_4 
REMARK    5  A    between atoms: C_10  and  O_11 
ROOT
HETATM    1  C   UNK N   1      33.368  17.560   8.695  0.00  0.00     0.177 C 
ENDROOT
BRANCH   1   2
HETATM    2  N   UNK N   1      33.846  16.670   9.733  0.00  0.00    -0.417 N 
HETATM    3  H   UNK N   1      34.348  15.817   9.484  0.00  0.00     0.150 HD
HETATM    4  H   UNK N   1      33.681  16.895  10.714  0.00  0.00     0.150 HD
ENDBRANCH   1   2
BRANCH   1   5
HETATM    5  C   UNK N   1      31.870  17.777   8.430  0.00  0.00     0.082 C 
BRANCH   5   6
HETATM    6  C   UNK N   1      31.078  16.922   7.465  0.00  0.00     0.038 A 
HETATM    7  C   UNK N   1      31.548  15.706   6.999  0.00  0.00     0.180 A 
HETATM    8  O   UNK N   1      30.639  15.206   6.182  0.00  0.00    -0.247 OA
HETATM    9  N   UNK N   1      29.607  15.991   6.069  0.00  0.00    -0.226 N 
HETATM   10  C   UNK N   1      29.846  17.065   6.852  0.00  0.00     0.273 A 
HETATM   11  H   UNK N   1      28.807  15.832   5.519  0.00  0.00     0.198 HD
HETATM   12  O   UNK N   1      29.064  17.988   6.964  0.00  0.00    -0.266 OA
ENDBRANCH   5   6
ENDBRANCH   1   5
BRANCH   1  13
HETATM   13  C   UNK N   1      34.419  18.260   7.891  0.00  0.00     0.163 C 
HETATM   14  O   UNK N   1      34.537  18.034   6.698  0.00  0.00    -0.648 OA
BRANCH  13  15
HETATM   15  O   UNK N   1      35.242  19.147   8.486  0.00  0.00    -0.775 OA
HETATM   16  H   UNK N   1      35.213  19.262   9.414  0.00  0.00     0.167 HD
ENDBRANCH  13  15
ENDBRANCH   1  13
TORSDOF 5
ENDMDL
MODEL 7
REMARK VINA RESULT:      -4.6      1.804      4.399
REMARK  5 active torsions:
REMARK  status: ('A' for Active; 'I' for Inactive)
REMARK    1  A    between atoms: C_2  and  N_1 
REMARK    2  A    between atoms: C_2  and  C_3 
REMARK    3  A    between atoms: C_2  and  C_10 
REMARK    4  A    between atoms: C_3  and  C_4 
REMARK    5  A    between atoms: C_10  and  O_11 
ROOT
HETATM    1  C   UNK N   1      34.579  15.595   9.909  0.00  0.00     0.177 C 
ENDROOT
BRANCH   1   2
HETATM    2  N   UNK N   1      33.714  15.058  10.939  0.00  0.00    -0.417 N 
HETATM    3  H   UNK N   1      32.854  15.545  11.190  0.00  0.00     0.150 HD
HETATM    4  H   UNK N   1      33.965  14.190  11.414  0.00  0.00     0.150 HD
ENDBRANCH   1   2
BRANCH   1   5
HETATM    5  C   UNK N   1      34.422  15.212   8.429  0.00  0.00     0.082 C 
BRANCH   5   6
HETATM    6  C   UNK N   1      33.533  15.980   7.475  0.00  0.00     0.038 A 
HETATM    7  C   UNK N   1      32.310  15.492   7.052  0.00  0.00     0.180 A 
HETATM    8  O   UNK N   1      31.778  16.382   6.234  0.00  0.00    -0.247 OA
HETATM    9  N   UNK N   1      32.550  17.419   6.081  0.00  0.00    -0.226 N 
HETATM   10  C   UNK N   1      33.648  17.203   6.837  0.00  0.00     0.273 A 
HETATM   11  H   UNK N   1      32.369  18.208   5.522  0.00  0.00     0.198 HD
HETATM   12  O   UNK N   1      34.567  17.994   6.910  0.00  0.00    -0.266 OA
ENDBRANCH   5   6
ENDBRANCH   1   5
BRANCH   1  13
HETATM   13  C   UNK N   1      35.638  16.548  10.367  0.00  0.00     0.163 C 
HETATM   14  O   UNK N   1      35.510  17.748  10.185  0.00  0.00    -0.648 OA
BRANCH  13  15
HETATM   15  O   UNK N   1      36.742  16.081  10.984  0.00  0.00    -0.775 OA
HETATM   16  H   UNK N   1      37.548  16.012  10.514  0.00  0.00     0.167 HD
ENDBRANCH  13  15
ENDBRANCH   1  13
TORSDOF 5
ENDMDL
MODEL 8
REMARK VINA RESULT:      -4.6      3.499      5.407
REMARK  5 active torsions:
REMARK  status: ('A' for Active; 'I' for Inactive)
REMARK    1  A    between atoms: C_2  and  N_1 
REMARK    2  A    between atoms: C_2  and  C_3 
REMARK    3  A    between atoms: C_2  and  C_10 
REMARK    4  A    between atoms: C_3  and  C_4 
REMARK    5  A    between atoms: C_10  and  O_11 
ROOT
HETATM    1  C   UNK N   1      32.716  17.328   8.137  0.00  0.00     0.177 C 
ENDROOT
BRANCH   1   2
HETATM    2  N   UNK N   1      32.982  16.583   9.350  0.00  0.00    -0.417 N 
HETATM    3  H   UNK N   1      32.553  16.870  10.230  0.00  0.00     0.150 HD
HETATM    4  H   UNK N   1      33.597  15.769   9.324  0.00  0.00     0.150 HD
ENDBRANCH   1   2
BRANCH   1   5
HETATM    5  C   UNK N   1      31.322  17.371   7.492  0.00  0.00     0.082 C 
BRANCH   5   6
HETATM    6  C   UNK N   1      30.083  17.798   8.250  0.00  0.00     0.038 A 
HETATM    7  C   UNK N   1      30.146  18.607   9.370  0.00  0.00     0.180 A 
HETATM    8  O   UNK N   1      28.912  18.799   9.801  0.00  0.00    -0.247 OA
HETATM    9  N   UNK N   1      28.040  18.184   9.058  0.00  0.00    -0.226 N 
HETATM   10  C   UNK N   1      28.731  17.552   8.086  0.00  0.00     0.273 A 
HETATM   11  H   UNK N   1      27.063  18.180   9.181  0.00  0.00     0.198 HD
HETATM   12  O   UNK N   1      28.198  16.884   7.223  0.00  0.00    -0.266 OA
ENDBRANCH   5   6
ENDBRANCH   1   5
BRANCH   1  13
HETATM   13  C   UNK N   1      33.880  18.057   7.542  0.00  0.00     0.163 C 
HETATM   14  O   UNK N   1      34.152  17.927   6.359  0.00  0.00    -0.648 OA
BRANCH  13  15
HETATM   15  O   UNK N   1      34.635  18.863   8.315  0.00  0.00    -0.775 OA
HETATM   16  H   UNK N   1      35.166  18.498   8.994  0.00  0.00     0.167 HD
ENDBRANCH  13  15
ENDBRANCH   1  13
TORSDOF 5
ENDMDL
MODEL 9
REMARK VINA RESULT:      -4.5     14.270     16.671
REMARK  5 active torsions:
REMARK  status: ('A' for Active; 'I' for Inactive)
REMARK    1  A    between atoms: C_2  and  N_1 
REMARK    2  A    between atoms: C_2  and  C_3 
REMARK    3  A    between atoms: C_2  and  C_10 
REMARK    4  A    between atoms: C_3  and  C_4 
REMARK    5  A    between atoms: C_10  and  O_11 
ROOT
HETATM    1  C   UNK N   1      30.231  22.660  -3.851  0.00  0.00     0.177 C 
ENDROOT
BRANCH   1   2
HETATM    2  N   UNK N   1      30.239  21.457  -4.655  0.00  0.00    -0.417 N 
HETATM    3  H   UNK N   1      31.119  21.094  -5.023  0.00  0.00     0.150 HD
HETATM    4  H   UNK N   1      29.365  20.971  -4.856  0.00  0.00     0.150 HD
ENDBRANCH   1   2
BRANCH   1   5
HETATM    5  C   UNK N   1      29.659  23.988  -4.372  0.00  0.00     0.082 C 
BRANCH   5   6
HETATM    6  C   UNK N   1      28.174  24.262  -4.458  0.00  0.00     0.038 A 
HETATM    7  C   UNK N   1      27.571  24.708  -5.620  0.00  0.00     0.180 A 
HETATM    8  O   UNK N   1      26.281  24.852  -5.380  0.00  0.00    -0.247 OA
HETATM    9  N   UNK N   1      25.981  24.538  -4.154  0.00  0.00    -0.226 N 
HETATM   10  C   UNK N   1      27.131  24.167  -3.552  0.00  0.00     0.273 A 
HETATM   11  H   UNK N   1      25.086  24.565  -3.743  0.00  0.00     0.198 HD
HETATM   12  O   UNK N   1      27.186  23.813  -2.392  0.00  0.00    -0.266 OA
ENDBRANCH   5   6
ENDBRANCH   1   5
BRANCH   1  13
HETATM   13  C   UNK N   1      30.812  22.540  -2.476  0.00  0.00     0.163 C 
HETATM   14  O   UNK N   1      31.868  21.954  -2.301  0.00  0.00    -0.648 OA
BRANCH  13  15
HETATM   15  O   UNK N   1      30.167  23.081  -1.423  0.00  0.00    -0.775 OA
HETATM   16  H   UNK N   1      29.828  22.528  -0.748  0.00  0.00     0.167 HD
ENDBRANCH  13  15
ENDBRANCH   1  13
TORSDOF 5
ENDMDL
