MODEL 1
REMARK VINA RESULT:      -6.9      0.000      0.000
REMARK  30 active torsions:
REMARK  status: ('A' for Active; 'I' for Inactive)
REMARK    1  A    between atoms: C_6  and  C_1 
REMARK    2  A    between atoms: O_31  and  C_1 
REMARK    3  A    between atoms: C_7  and  C_2 
REMARK    4  A    between atoms: O_32  and  C_2 
REMARK    5  A    between atoms: C_8  and  C_3 
REMARK    6  A    between atoms: O_33  and  C_3 
REMARK    7  A    between atoms: C_9  and  C_4 
REMARK    8  A    between atoms: O_34  and  C_4 
REMARK    9  A    between atoms: C_10  and  C_5 
REMARK   10  A    between atoms: O_35  and  C_5 
REMARK   11  A    between atoms: C_11  and  O_36 
REMARK   12  A    between atoms: C_12  and  O_37 
REMARK   13  A    between atoms: C_13  and  O_38 
REMARK   14  A    between atoms: C_14  and  O_39 
REMARK   15  A    between atoms: C_15  and  O_40 
REMARK   16  A    between atoms: C_16  and  O_41 
REMARK   17  A    between atoms: C_17  and  O_42 
REMARK   18  A    between atoms: C_18  and  O_43 
REMARK   19  A    between atoms: C_19  and  O_44 
REMARK   20  A    between atoms: C_20  and  O_45 
REMARK   21  A    between atoms: C_21  and  O_46 
REMARK   22  A    between atoms: C_22  and  O_52 
REMARK   23  A    between atoms: C_23  and  O_53 
REMARK   24  A    between atoms: C_24  and  S_55 
REMARK   25  A    between atoms: C_25  and  S_56 
REMARK   26  A    between atoms: C_26  and  O_52 
REMARK   27  A    between atoms: C_27  and  O_53 
REMARK   28  A    between atoms: C_28  and  S_54 
REMARK   29  A    between atoms: C_29  and  S_55 
REMARK   30  A    between atoms: C_30  and  S_56 
ROOT
HETATM    1  C   UNK N   1      36.340  14.727   8.337  0.00  0.00     0.178 C 
HETATM    2  C   UNK N   1      34.455  16.317   8.791  0.00  0.00     0.181 C 
HETATM    3  C   UNK N   1      34.545  16.016  10.288  0.00  0.00     0.188 C 
HETATM    4  C   UNK N   1      34.874  15.080   7.888  0.00  0.00     0.187 C 
HETATM    5  C   UNK N   1      35.421  14.793  10.495  0.00  0.00     0.215 C 
HETATM    6  O   UNK N   1      36.603  14.868   9.732  0.00  0.00    -0.363 OA
ENDROOT
BRANCH   4   7
HETATM    7  O   UNK N   1      34.893  15.209   6.458  0.00  0.00    -0.348 OA
BRANCH   7   8
HETATM    8  C   UNK N   1      33.639  15.575   5.923  0.00  0.00     0.292 C 
HETATM    9  C   UNK N   1      33.634  16.906   5.193  0.00  0.00     0.203 C 
HETATM   10  C   UNK N   1      32.127  17.271   4.970  0.00  0.00     0.168 C 
HETATM   11  C   UNK N   1      31.208  15.998   4.969  0.00  0.00     0.112 C 
HETATM   12  C   UNK N   1      32.015  14.868   4.275  0.00  0.00     0.164 C 
HETATM   13  O   UNK N   1      33.189  14.543   5.044  0.00  0.00    -0.350 OA
BRANCH   9  14
HETATM   14  O   UNK N   1      34.279  17.908   5.915  0.00  0.00    -0.388 OA
HETATM   15  H   UNK N   1      35.091  18.186   6.367  0.00  0.00     0.210 HD
ENDBRANCH   9  14
BRANCH  10  16
HETATM   16  O   UNK N   1      32.016  17.989   3.777  0.00  0.00    -0.392 OA
HETATM   17  H   UNK N   1      32.155  17.588   2.905  0.00  0.00     0.210 HD
ENDBRANCH  10  16
BRANCH  11  18
HETATM   18  S   UNK N   1      29.496  16.410   4.427  0.00  0.00    -0.124 SA
BRANCH  18  19
HETATM   19  C   UNK N   1      28.552  16.357   6.024  0.00  0.00     0.215 C 
HETATM   20  C   UNK N   1      27.222  17.141   5.972  0.00  0.00     0.188 C 
HETATM   21  C   UNK N   1      27.462  18.641   6.200  0.00  0.00     0.181 C 
HETATM   22  C   UNK N   1      28.237  18.846   7.507  0.00  0.00     0.180 C 
HETATM   23  C   UNK N   1      29.546  18.049   7.395  0.00  0.00     0.178 C 
HETATM   24  O   UNK N   1      29.309  16.661   7.198  0.00  0.00    -0.363 OA
BRANCH  20  25
HETATM   25  O   UNK N   1      26.369  16.648   6.966  0.00  0.00    -0.389 OA
HETATM   26  H   UNK N   1      26.125  15.774   7.309  0.00  0.00     0.210 HD
ENDBRANCH  20  25
BRANCH  21  27
HETATM   27  O   UNK N   1      26.248  19.330   6.246  0.00  0.00    -0.390 OA
HETATM   28  H   UNK N   1      26.209  20.290   6.373  0.00  0.00     0.210 HD
ENDBRANCH  21  27
BRANCH  22  29
HETATM   29  O   UNK N   1      27.485  18.414   8.606  0.00  0.00    -0.390 OA
HETATM   30  H   UNK N   1      26.587  18.596   8.923  0.00  0.00     0.210 HD
ENDBRANCH  22  29
BRANCH  23  31
HETATM   31  C   UNK N   1      30.409  18.233   8.643  0.00  0.00     0.198 C 
BRANCH  31  32
HETATM   32  O   UNK N   1      30.262  17.162   9.528  0.00  0.00    -0.398 OA
HETATM   33  H   UNK N   1      30.714  16.342   9.787  0.00  0.00     0.209 HD
ENDBRANCH  31  32
ENDBRANCH  23  31
ENDBRANCH  18  19
ENDBRANCH  11  18
BRANCH  12  34
HETATM   34  C   UNK N   1      31.241  13.575   4.095  0.00  0.00     0.197 C 
BRANCH  34  35
HETATM   35  O   UNK N   1      30.635  13.193   5.293  0.00  0.00    -0.398 OA
HETATM   36  H   UNK N   1      30.361  12.491   5.905  0.00  0.00     0.209 HD
ENDBRANCH  34  35
ENDBRANCH  12  34
ENDBRANCH   7   8
ENDBRANCH   4   7
BRANCH   1  37
HETATM   37  C   UNK N   1      36.760  13.326   7.890  0.00  0.00     0.198 C 
BRANCH  37  38
HETATM   38  O   UNK N   1      38.114  13.094   8.125  0.00  0.00    -0.398 OA
HETATM   39  H   UNK N   1      38.418  12.480   8.811  0.00  0.00     0.209 HD
ENDBRANCH  37  38
ENDBRANCH   1  37
BRANCH   2  40
HETATM   40  O   UNK N   1      33.155  16.762   8.535  0.00  0.00    -0.390 OA
HETATM   41  H   UNK N   1      32.797  17.581   8.159  0.00  0.00     0.210 HD
ENDBRANCH   2  40
BRANCH   3  42
HETATM   42  O   UNK N   1      35.043  17.136  10.964  0.00  0.00    -0.389 OA
HETATM   43  H   UNK N   1      35.779  17.520  11.466  0.00  0.00     0.210 HD
ENDBRANCH   3  42
BRANCH   5  44
HETATM   44  S   UNK N   1      35.795  14.547  12.235  0.00  0.00    -0.124 SA
BRANCH  44  45
HETATM   45  C   UNK N   1      35.585  12.727  12.250  0.00  0.00     0.112 C 
HETATM   46  C   UNK N   1      36.708  11.904  11.485  0.00  0.00     0.164 C 
HETATM   47  O   UNK N   1      36.627  10.482  11.690  0.00  0.00    -0.350 OA
HETATM   48  C   UNK N   1      35.298  10.045  11.915  0.00  0.00     0.292 C 
HETATM   49  C   UNK N   1      34.877  10.502  13.338  0.00  0.00     0.203 C 
HETATM   50  C   UNK N   1      35.247  12.004  13.583  0.00  0.00     0.168 C 
BRANCH  46  51
HETATM   51  C   UNK N   1      38.128  12.312  11.867  0.00  0.00     0.197 C 
BRANCH  51  52
HETATM   52  O   UNK N   1      38.636  13.236  10.950  0.00  0.00    -0.398 OA
HETATM   53  H   UNK N   1      38.084  13.804  10.389  0.00  0.00     0.209 HD
ENDBRANCH  51  52
ENDBRANCH  46  51
BRANCH  48  54
HETATM   54  O   UNK N   1      34.465  10.716  11.012  0.00  0.00    -0.348 OA
BRANCH  54  55
HETATM   55  C   UNK N   1      34.079  10.214   9.781  0.00  0.00     0.187 C 
HETATM   56  C   UNK N   1      32.618   9.672   9.865  0.00  0.00     0.178 C 
HETATM   57  O   UNK N   1      31.840   9.816   8.670  0.00  0.00    -0.363 OA
HETATM   58  C   UNK N   1      32.645   9.908   7.513  0.00  0.00     0.212 C 
HETATM   59  C   UNK N   1      33.521  11.184   7.511  0.00  0.00     0.188 C 
HETATM   60  C   UNK N   1      34.035  11.487   8.922  0.00  0.00     0.181 C 
BRANCH  56  61
HETATM   61  C   UNK N   1      32.610   8.231  10.360  0.00  0.00     0.198 C 
BRANCH  61  62
HETATM   62  O   UNK N   1      33.846   7.629  10.122  0.00  0.00    -0.398 OA
HETATM   63  H   UNK N   1      34.725   8.031  10.210  0.00  0.00     0.209 HD
ENDBRANCH  61  62
ENDBRANCH  56  61
BRANCH  58  64
HETATM   64  S   UNK N   1      31.596   9.831   6.029  0.00  0.00    -0.148 SA
HETATM   65  H   UNK N   1      30.409   9.177   5.910  0.00  0.00     0.104 HD
ENDBRANCH  58  64
BRANCH  59  66
HETATM   66  O   UNK N   1      32.831  12.303   7.027  0.00  0.00    -0.389 OA
HETATM   67  H   UNK N   1      32.355  12.859   6.390  0.00  0.00     0.210 HD
ENDBRANCH  59  66
BRANCH  60  68
HETATM   68  O   UNK N   1      33.173  12.407   9.546  0.00  0.00    -0.390 OA
HETATM   69  H   UNK N   1      32.626  12.687  10.296  0.00  0.00     0.210 HD
ENDBRANCH  60  68
ENDBRANCH  54  55
ENDBRANCH  48  54
BRANCH  49  70
HETATM   70  O   UNK N   1      33.505  10.293  13.497  0.00  0.00    -0.388 OA
HETATM   71  H   UNK N   1      32.888   9.632  13.145  0.00  0.00     0.210 HD
ENDBRANCH  49  70
BRANCH  50  72
HETATM   72  O   UNK N   1      34.222  12.664  14.271  0.00  0.00    -0.392 OA
HETATM   73  H   UNK N   1      33.421  12.710  14.817  0.00  0.00     0.210 HD
ENDBRANCH  50  72
ENDBRANCH  44  45
ENDBRANCH   5  44
TORSDOF 30
ENDMDL
MODEL 2
REMARK VINA RESULT:      -6.8      8.587     13.901
REMARK  30 active torsions:
REMARK  status: ('A' for Active; 'I' for Inactive)
REMARK    1  A    between atoms: C_6  and  C_1 
REMARK    2  A    between atoms: O_31  and  C_1 
REMARK    3  A    between atoms: C_7  and  C_2 
REMARK    4  A    between atoms: O_32  and  C_2 
REMARK    5  A    between atoms: C_8  and  C_3 
REMARK    6  A    between atoms: O_33  and  C_3 
REMARK    7  A    between atoms: C_9  and  C_4 
REMARK    8  A    between atoms: O_34  and  C_4 
REMARK    9  A    between atoms: C_10  and  C_5 
REMARK   10  A    between atoms: O_35  and  C_5 
REMARK   11  A    between atoms: C_11  and  O_36 
REMARK   12  A    between atoms: C_12  and  O_37 
REMARK   13  A    between atoms: C_13  and  O_38 
REMARK   14  A    between atoms: C_14  and  O_39 
REMARK   15  A    between atoms: C_15  and  O_40 
REMARK   16  A    between atoms: C_16  and  O_41 
REMARK   17  A    between atoms: C_17  and  O_42 
REMARK   18  A    between atoms: C_18  and  O_43 
REMARK   19  A    between atoms: C_19  and  O_44 
REMARK   20  A    between atoms: C_20  and  O_45 
REMARK   21  A    between atoms: C_21  and  O_46 
REMARK   22  A    between atoms: C_22  and  O_52 
REMARK   23  A    between atoms: C_23  and  O_53 
REMARK   24  A    between atoms: C_24  and  S_55 
REMARK   25  A    between atoms: C_25  and  S_56 
REMARK   26  A    between atoms: C_26  and  O_52 
REMARK   27  A    between atoms: C_27  and  O_53 
REMARK   28  A    between atoms: C_28  and  S_54 
REMARK   29  A    between atoms: C_29  and  S_55 
REMARK   30  A    between atoms: C_30  and  S_56 
ROOT
HETATM    1  C   UNK N   1      22.166  13.842   0.827  0.00  0.00     0.178 C 
HETATM    2  C   UNK N   1      20.051  13.037   1.906  0.00  0.00     0.181 C 
HETATM    3  C   UNK N   1      19.484  14.457   1.884  0.00  0.00     0.188 C 
HETATM    4  C   UNK N   1      21.632  13.007   2.048  0.00  0.00     0.187 C 
HETATM    5  C   UNK N   1      20.603  15.431   1.558  0.00  0.00     0.215 C 
HETATM    6  O   UNK N   1      21.383  14.981   0.475  0.00  0.00    -0.363 OA
ENDROOT
BRANCH   4   7
HETATM    7  O   UNK N   1      22.331  11.752   2.036  0.00  0.00    -0.348 OA
BRANCH   7   8
HETATM    8  C   UNK N   1      22.660  11.294   3.330  0.00  0.00     0.292 C 
HETATM    9  C   UNK N   1      22.239   9.864   3.614  0.00  0.00     0.203 C 
HETATM   10  C   UNK N   1      22.395   9.666   5.160  0.00  0.00     0.168 C 
HETATM   11  C   UNK N   1      23.440  10.662   5.777  0.00  0.00     0.112 C 
HETATM   12  C   UNK N   1      24.575  10.819   4.729  0.00  0.00     0.164 C 
HETATM   13  O   UNK N   1      24.068  11.428   3.527  0.00  0.00    -0.350 OA
BRANCH   9  14
HETATM   14  O   UNK N   1      20.927   9.608   3.217  0.00  0.00    -0.388 OA
HETATM   15  H   UNK N   1      20.189   8.980   3.218  0.00  0.00     0.210 HD
ENDBRANCH   9  14
BRANCH  10  16
HETATM   16  O   UNK N   1      22.742   8.336   5.405  0.00  0.00    -0.392 OA
HETATM   17  H   UNK N   1      23.295   7.815   4.802  0.00  0.00     0.210 HD
ENDBRANCH  10  16
BRANCH  11  18
HETATM   18  S   UNK N   1      23.820  10.232   7.528  0.00  0.00    -0.124 SA
BRANCH  18  19
HETATM   19  C   UNK N   1      23.861  11.898   8.345  0.00  0.00     0.215 C 
HETATM   20  C   UNK N   1      23.594  11.838   9.865  0.00  0.00     0.188 C 
HETATM   21  C   UNK N   1      22.087  11.768  10.154  0.00  0.00     0.181 C 
HETATM   22  C   UNK N   1      21.375  12.934   9.457  0.00  0.00     0.180 C 
HETATM   23  C   UNK N   1      21.694  12.837   7.958  0.00  0.00     0.178 C 
HETATM   24  O   UNK N   1      23.091  12.917   7.704  0.00  0.00    -0.363 OA
BRANCH  20  25
HETATM   25  O   UNK N   1      24.132  12.983  10.462  0.00  0.00    -0.389 OA
HETATM   26  H   UNK N   1      25.020  13.345  10.611  0.00  0.00     0.210 HD
ENDBRANCH  20  25
BRANCH  21  27
HETATM   27  O   UNK N   1      21.850  11.809  11.530  0.00  0.00    -0.390 OA
HETATM   28  H   UNK N   1      22.420  11.344  12.161  0.00  0.00     0.210 HD
ENDBRANCH  21  27
BRANCH  22  29
HETATM   29  O   UNK N   1      21.802  14.162   9.978  0.00  0.00    -0.390 OA
HETATM   30  H   UNK N   1      22.201  14.957   9.592  0.00  0.00     0.210 HD
ENDBRANCH  22  29
BRANCH  23  31
HETATM   31  C   UNK N   1      20.983  13.941   7.174  0.00  0.00     0.198 C 
BRANCH  31  32
HETATM   32  O   UNK N   1      21.734  15.119   7.154  0.00  0.00    -0.398 OA
HETATM   33  H   UNK N   1      22.017  15.812   6.536  0.00  0.00     0.209 HD
ENDBRANCH  31  32
ENDBRANCH  23  31
ENDBRANCH  18  19
ENDBRANCH  11  18
BRANCH  12  34
HETATM   34  C   UNK N   1      25.734  11.680   5.198  0.00  0.00     0.197 C 
BRANCH  34  35
HETATM   35  O   UNK N   1      25.668  12.951   4.626  0.00  0.00    -0.398 OA
HETATM   36  H   UNK N   1      26.073  13.817   4.464  0.00  0.00     0.209 HD
ENDBRANCH  34  35
ENDBRANCH  12  34
ENDBRANCH   7   8
ENDBRANCH   4   7
BRANCH   1  37
HETATM   37  C   UNK N   1      23.621  14.277   1.016  0.00  0.00     0.198 C 
BRANCH  37  38
HETATM   38  O   UNK N   1      24.030  14.143   2.342  0.00  0.00    -0.398 OA
HETATM   39  H   UNK N   1      23.404  13.939   3.054  0.00  0.00     0.209 HD
ENDBRANCH  37  38
ENDBRANCH   1  37
BRANCH   2  40
HETATM   40  O   UNK N   1      19.399  12.346   2.931  0.00  0.00    -0.390 OA
HETATM   41  H   UNK N   1      19.429  12.411   3.898  0.00  0.00     0.210 HD
ENDBRANCH   2  40
BRANCH   3  42
HETATM   42  O   UNK N   1      18.439  14.532   0.956  0.00  0.00    -0.389 OA
HETATM   43  H   UNK N   1      17.869  14.051   0.335  0.00  0.00     0.210 HD
ENDBRANCH   3  42
BRANCH   5  44
HETATM   44  S   UNK N   1      19.960  17.080   1.244  0.00  0.00    -0.124 SA
BRANCH  44  45
HETATM   45  C   UNK N   1      20.840  17.923   2.612  0.00  0.00     0.112 C 
HETATM   46  C   UNK N   1      21.522  19.307   2.235  0.00  0.00     0.164 C 
HETATM   47  O   UNK N   1      22.023  20.037   3.370  0.00  0.00    -0.350 OA
HETATM   48  C   UNK N   1      22.430  19.181   4.423  0.00  0.00     0.292 C 
HETATM   49  C   UNK N   1      21.155  18.588   5.081  0.00  0.00     0.203 C 
HETATM   50  C   UNK N   1      20.154  18.058   4.000  0.00  0.00     0.168 C 
BRANCH  46  51
HETATM   51  C   UNK N   1      20.592  20.260   1.490  0.00  0.00     0.197 C 
BRANCH  51  52
HETATM   52  O   UNK N   1      20.896  20.275   0.125  0.00  0.00    -0.398 OA
HETATM   53  H   UNK N   1      20.230  20.233  -0.579  0.00  0.00     0.209 HD
ENDBRANCH  51  52
ENDBRANCH  46  51
BRANCH  48  54
HETATM   54  O   UNK N   1      23.131  18.107   3.860  0.00  0.00    -0.348 OA
BRANCH  54  55
HETATM   55  C   UNK N   1      24.510  17.992   3.846  0.00  0.00     0.187 C 
HETATM   56  C   UNK N   1      25.141  19.097   4.750  0.00  0.00     0.178 C 
HETATM   57  O   UNK N   1      26.348  18.722   5.426  0.00  0.00    -0.363 OA
HETATM   58  C   UNK N   1      27.029  17.674   4.768  0.00  0.00     0.212 C 
HETATM   59  C   UNK N   1      26.212  16.360   4.763  0.00  0.00     0.188 C 
HETATM   60  C   UNK N   1      24.721  16.652   4.566  0.00  0.00     0.181 C 
BRANCH  56  61
HETATM   61  C   UNK N   1      25.326  20.389   3.964  0.00  0.00     0.198 C 
BRANCH  61  62
HETATM   62  O   UNK N   1      25.057  20.178   2.612  0.00  0.00    -0.398 OA
HETATM   63  H   UNK N   1      24.615  19.413   2.211  0.00  0.00     0.209 HD
ENDBRANCH  61  62
ENDBRANCH  56  61
BRANCH  58  64
HETATM   64  S   UNK N   1      28.661  17.429   5.531  0.00  0.00    -0.148 SA
HETATM   65  H   UNK N   1      29.737  18.254   5.424  0.00  0.00     0.104 HD
ENDBRANCH  58  64
BRANCH  59  66
HETATM   66  O   UNK N   1      26.380  15.624   5.944  0.00  0.00    -0.389 OA
HETATM   67  H   UNK N   1      26.848  15.214   6.688  0.00  0.00     0.210 HD
ENDBRANCH  59  66
BRANCH  60  68
HETATM   68  O   UNK N   1      24.089  16.723   5.820  0.00  0.00    -0.390 OA
HETATM   69  H   UNK N   1      23.305  16.633   6.384  0.00  0.00     0.210 HD
ENDBRANCH  60  68
ENDBRANCH  54  55
ENDBRANCH  48  54
BRANCH  49  70
HETATM   70  O   UNK N   1      21.527  17.569   5.961  0.00  0.00    -0.388 OA
HETATM   71  H   UNK N   1      21.769  17.558   6.900  0.00  0.00     0.210 HD
ENDBRANCH  49  70
BRANCH  50  72
HETATM   72  O   UNK N   1      19.583  16.845   4.402  0.00  0.00    -0.392 OA
HETATM   73  H   UNK N   1      19.604  15.920   4.694  0.00  0.00     0.210 HD
ENDBRANCH  50  72
ENDBRANCH  44  45
ENDBRANCH   5  44
TORSDOF 30
ENDMDL
MODEL 3
REMARK VINA RESULT:      -6.7      5.105     11.928
REMARK  30 active torsions:
REMARK  status: ('A' for Active; 'I' for Inactive)
REMARK    1  A    between atoms: C_6  and  C_1 
REMARK    2  A    between atoms: O_31  and  C_1 
REMARK    3  A    between atoms: C_7  and  C_2 
REMARK    4  A    between atoms: O_32  and  C_2 
REMARK    5  A    between atoms: C_8  and  C_3 
REMARK    6  A    between atoms: O_33  and  C_3 
REMARK    7  A    between atoms: C_9  and  C_4 
REMARK    8  A    between atoms: O_34  and  C_4 
REMARK    9  A    between atoms: C_10  and  C_5 
REMARK   10  A    between atoms: O_35  and  C_5 
REMARK   11  A    between atoms: C_11  and  O_36 
REMARK   12  A    between atoms: C_12  and  O_37 
REMARK   13  A    between atoms: C_13  and  O_38 
REMARK   14  A    between atoms: C_14  and  O_39 
REMARK   15  A    between atoms: C_15  and  O_40 
REMARK   16  A    between atoms: C_16  and  O_41 
REMARK   17  A    between atoms: C_17  and  O_42 
REMARK   18  A    between atoms: C_18  and  O_43 
REMARK   19  A    between atoms: C_19  and  O_44 
REMARK   20  A    between atoms: C_20  and  O_45 
REMARK   21  A    between atoms: C_21  and  O_46 
REMARK   22  A    between atoms: C_22  and  O_52 
REMARK   23  A    between atoms: C_23  and  O_53 
REMARK   24  A    between atoms: C_24  and  S_55 
REMARK   25  A    between atoms: C_25  and  S_56 
REMARK   26  A    between atoms: C_26  and  O_52 
REMARK   27  A    between atoms: C_27  and  O_53 
REMARK   28  A    between atoms: C_28  and  S_54 
REMARK   29  A    between atoms: C_29  and  S_55 
REMARK   30  A    between atoms: C_30  and  S_56 
ROOT
HETATM    1  C   UNK N   1      25.950  13.958   3.484  0.00  0.00     0.178 C 
HETATM    2  C   UNK N   1      25.997  15.392   5.540  0.00  0.00     0.181 C 
HETATM    3  C   UNK N   1      24.875  14.559   6.163  0.00  0.00     0.188 C 
HETATM    4  C   UNK N   1      25.910  15.458   3.956  0.00  0.00     0.187 C 
HETATM    5  C   UNK N   1      24.264  13.675   5.091  0.00  0.00     0.215 C 
HETATM    6  O   UNK N   1      25.253  13.035   4.320  0.00  0.00    -0.363 OA
ENDROOT
BRANCH   4   7
HETATM    7  O   UNK N   1      26.916  16.160   3.210  0.00  0.00    -0.348 OA
BRANCH   7   8
HETATM    8  C   UNK N   1      28.213  15.990   3.741  0.00  0.00     0.292 C 
HETATM    9  C   UNK N   1      29.293  15.777   2.697  0.00  0.00     0.203 C 
HETATM   10  C   UNK N   1      30.563  15.296   3.480  0.00  0.00     0.168 C 
HETATM   11  C   UNK N   1      30.539  15.761   4.979  0.00  0.00     0.112 C 
HETATM   12  C   UNK N   1      29.906  17.179   4.995  0.00  0.00     0.164 C 
HETATM   13  O   UNK N   1      28.538  17.123   4.547  0.00  0.00    -0.350 OA
BRANCH   9  14
HETATM   14  O   UNK N   1      28.925  14.838   1.736  0.00  0.00    -0.388 OA
HETATM   15  H   UNK N   1      28.698  13.914   1.552  0.00  0.00     0.210 HD
ENDBRANCH   9  14
BRANCH  10  16
HETATM   16  O   UNK N   1      31.698  15.759   2.813  0.00  0.00    -0.392 OA
HETATM   17  H   UNK N   1      31.968  15.432   1.941  0.00  0.00     0.210 HD
ENDBRANCH  10  16
BRANCH  11  18
HETATM   18  S   UNK N   1      32.154  15.435   5.805  0.00  0.00    -0.124 SA
BRANCH  18  19
HETATM   19  C   UNK N   1      31.655  15.227   7.581  0.00  0.00     0.215 C 
HETATM   20  C   UNK N   1      32.107  16.398   8.482  0.00  0.00     0.188 C 
HETATM   21  C   UNK N   1      33.573  16.227   8.906  0.00  0.00     0.181 C 
HETATM   22  C   UNK N   1      33.764  14.852   9.556  0.00  0.00     0.180 C 
HETATM   23  C   UNK N   1      33.319  13.795   8.534  0.00  0.00     0.178 C 
HETATM   24  O   UNK N   1      31.956  13.956   8.161  0.00  0.00    -0.363 OA
BRANCH  20  25
HETATM   25  O   UNK N   1      31.292  16.431   9.618  0.00  0.00    -0.389 OA
HETATM   26  H   UNK N   1      30.712  15.807  10.084  0.00  0.00     0.210 HD
ENDBRANCH  20  25
BRANCH  21  27
HETATM   27  O   UNK N   1      33.946  17.238   9.796  0.00  0.00    -0.390 OA
HETATM   28  H   UNK N   1      33.642  18.152   9.686  0.00  0.00     0.210 HD
ENDBRANCH  21  27
BRANCH  22  29
HETATM   29  O   UNK N   1      33.016  14.749  10.736  0.00  0.00    -0.390 OA
HETATM   30  H   UNK N   1      33.237  14.773  11.680  0.00  0.00     0.210 HD
ENDBRANCH  22  29
BRANCH  23  31
HETATM   31  C   UNK N   1      33.519  12.382   9.084  0.00  0.00     0.198 C 
BRANCH  31  32
HETATM   32  O   UNK N   1      32.309  11.818   9.497  0.00  0.00    -0.398 OA
HETATM   33  H   UNK N   1      31.429  11.606   9.148  0.00  0.00     0.209 HD
ENDBRANCH  31  32
ENDBRANCH  23  31
ENDBRANCH  18  19
ENDBRANCH  11  18
BRANCH  12  34
HETATM   34  C   UNK N   1      29.889  17.834   6.363  0.00  0.00     0.197 C 
BRANCH  34  35
HETATM   35  O   UNK N   1      28.814  17.368   7.120  0.00  0.00    -0.398 OA
HETATM   36  H   UNK N   1      28.429  16.691   7.700  0.00  0.00     0.209 HD
ENDBRANCH  34  35
ENDBRANCH  12  34
ENDBRANCH   7   8
ENDBRANCH   4   7
BRANCH   1  37
HETATM   37  C   UNK N   1      25.461  13.792   2.044  0.00  0.00     0.198 C 
BRANCH  37  38
HETATM   38  O   UNK N   1      25.166  15.021   1.456  0.00  0.00    -0.398 OA
HETATM   39  H   UNK N   1      25.285  15.858   1.929  0.00  0.00     0.209 HD
ENDBRANCH  37  38
ENDBRANCH   1  37
BRANCH   2  40
HETATM   40  O   UNK N   1      25.959  16.653   6.141  0.00  0.00    -0.390 OA
HETATM   41  H   UNK N   1      25.447  17.022   6.878  0.00  0.00     0.210 HD
ENDBRANCH   2  40
BRANCH   3  42
HETATM   42  O   UNK N   1      25.382  13.811   7.232  0.00  0.00    -0.389 OA
HETATM   43  H   UNK N   1      25.566  13.778   8.184  0.00  0.00     0.210 HD
ENDBRANCH   3  42
BRANCH   5  44
HETATM   44  S   UNK N   1      23.132  12.475   5.805  0.00  0.00    -0.124 SA
BRANCH  44  45
HETATM   45  C   UNK N   1      21.759  13.640   6.140  0.00  0.00     0.112 C 
HETATM   46  C   UNK N   1      20.441  13.407   5.284  0.00  0.00     0.164 C 
HETATM   47  O   UNK N   1      19.320  14.202   5.715  0.00  0.00    -0.350 OA
HETATM   48  C   UNK N   1      19.722  15.435   6.285  0.00  0.00     0.292 C 
HETATM   49  C   UNK N   1      20.339  15.141   7.679  0.00  0.00     0.203 C 
HETATM   50  C   UNK N   1      21.360  13.955   7.609  0.00  0.00     0.168 C 
BRANCH  46  51
HETATM   51  C   UNK N   1      19.964  11.958   5.284  0.00  0.00     0.197 C 
BRANCH  51  52
HETATM   52  O   UNK N   1      18.724  11.850   4.648  0.00  0.00    -0.398 OA
HETATM   53  H   UNK N   1      18.157  11.064   4.695  0.00  0.00     0.209 HD
ENDBRANCH  51  52
ENDBRANCH  46  51
BRANCH  48  54
HETATM   54  O   UNK N   1      20.748  15.963   5.493  0.00  0.00    -0.348 OA
BRANCH  54  55
HETATM   55  C   UNK N   1      20.719  17.216   4.906  0.00  0.00     0.187 C 
HETATM   56  C   UNK N   1      22.066  17.485   4.165  0.00  0.00     0.178 C 
HETATM   57  O   UNK N   1      21.966  18.282   2.978  0.00  0.00    -0.363 OA
HETATM   58  C   UNK N   1      20.821  19.109   2.982  0.00  0.00     0.212 C 
HETATM   59  C   UNK N   1      19.508  18.290   2.960  0.00  0.00     0.188 C 
HETATM   60  C   UNK N   1      19.643  17.032   3.825  0.00  0.00     0.181 C 
BRANCH  56  61
HETATM   61  C   UNK N   1      23.101  18.053   5.128  0.00  0.00     0.198 C 
BRANCH  61  62
HETATM   62  O   UNK N   1      22.943  17.495   6.396  0.00  0.00    -0.398 OA
HETATM   63  H   UNK N   1      22.312  16.808   6.664  0.00  0.00     0.209 HD
ENDBRANCH  61  62
ENDBRANCH  56  61
BRANCH  58  64
HETATM   64  S   UNK N   1      20.895  20.266   1.580  0.00  0.00    -0.148 SA
HETATM   65  H   UNK N   1      21.144  21.601   1.645  0.00  0.00     0.104 HD
ENDBRANCH  58  64
BRANCH  59  66
HETATM   66  O   UNK N   1      19.137  17.913   1.663  0.00  0.00    -0.389 OA
HETATM   67  H   UNK N   1      19.248  17.592   0.754  0.00  0.00     0.210 HD
ENDBRANCH  59  66
BRANCH  60  68
HETATM   68  O   UNK N   1      20.018  15.946   3.014  0.00  0.00    -0.390 OA
HETATM   69  H   UNK N   1      20.573  15.550   2.325  0.00  0.00     0.210 HD
ENDBRANCH  60  68
ENDBRANCH  54  55
ENDBRANCH  48  54
BRANCH  49  70
HETATM   70  O   UNK N   1      20.951  16.300   8.161  0.00  0.00    -0.388 OA
HETATM   71  H   UNK N   1      20.608  17.128   8.532  0.00  0.00     0.210 HD
ENDBRANCH  49  70
BRANCH  50  72
HETATM   72  O   UNK N   1      22.487  14.221   8.394  0.00  0.00    -0.392 OA
HETATM   73  H   UNK N   1      23.439  14.310   8.559  0.00  0.00     0.210 HD
ENDBRANCH  50  72
ENDBRANCH  44  45
ENDBRANCH   5  44
TORSDOF 30
ENDMDL
MODEL 4
REMARK VINA RESULT:      -6.5      1.943      4.267
REMARK  30 active torsions:
REMARK  status: ('A' for Active; 'I' for Inactive)
REMARK    1  A    between atoms: C_6  and  C_1 
REMARK    2  A    between atoms: O_31  and  C_1 
REMARK    3  A    between atoms: C_7  and  C_2 
REMARK    4  A    between atoms: O_32  and  C_2 
REMARK    5  A    between atoms: C_8  and  C_3 
REMARK    6  A    between atoms: O_33  and  C_3 
REMARK    7  A    between atoms: C_9  and  C_4 
REMARK    8  A    between atoms: O_34  and  C_4 
REMARK    9  A    between atoms: C_10  and  C_5 
REMARK   10  A    between atoms: O_35  and  C_5 
REMARK   11  A    between atoms: C_11  and  O_36 
REMARK   12  A    between atoms: C_12  and  O_37 
REMARK   13  A    between atoms: C_13  and  O_38 
REMARK   14  A    between atoms: C_14  and  O_39 
REMARK   15  A    between atoms: C_15  and  O_40 
REMARK   16  A    between atoms: C_16  and  O_41 
REMARK   17  A    between atoms: C_17  and  O_42 
REMARK   18  A    between atoms: C_18  and  O_43 
REMARK   19  A    between atoms: C_19  and  O_44 
REMARK   20  A    between atoms: C_20  and  O_45 
REMARK   21  A    between atoms: C_21  and  O_46 
REMARK   22  A    between atoms: C_22  and  O_52 
REMARK   23  A    between atoms: C_23  and  O_53 
REMARK   24  A    between atoms: C_24  and  S_55 
REMARK   25  A    between atoms: C_25  and  S_56 
REMARK   26  A    between atoms: C_26  and  O_52 
REMARK   27  A    between atoms: C_27  and  O_53 
REMARK   28  A    between atoms: C_28  and  S_54 
REMARK   29  A    between atoms: C_29  and  S_55 
REMARK   30  A    between atoms: C_30  and  S_56 
ROOT
HETATM    1  C   UNK N   1      35.363  11.223   7.837  0.00  0.00     0.178 C 
HETATM    2  C   UNK N   1      32.929  10.693   7.555  0.00  0.00     0.181 C 
HETATM    3  C   UNK N   1      32.893  10.057   8.946  0.00  0.00     0.188 C 
HETATM    4  C   UNK N   1      34.343  10.549   6.848  0.00  0.00     0.187 C 
HETATM    5  C   UNK N   1      34.316   9.863   9.437  0.00  0.00     0.215 C 
HETATM    6  O   UNK N   1      35.100  11.014   9.224  0.00  0.00    -0.363 OA
ENDROOT
BRANCH   4   7
HETATM    7  O   UNK N   1      34.563  11.135   5.555  0.00  0.00    -0.348 OA
BRANCH   7   8
HETATM    8  C   UNK N   1      33.905  12.373   5.394  0.00  0.00     0.292 C 
HETATM    9  C   UNK N   1      34.782  13.482   4.845  0.00  0.00     0.203 C 
HETATM   10  C   UNK N   1      33.977  14.811   5.046  0.00  0.00     0.168 C 
HETATM   11  C   UNK N   1      32.431  14.554   5.129  0.00  0.00     0.112 C 
HETATM   12  C   UNK N   1      32.118  13.406   4.132  0.00  0.00     0.164 C 
HETATM   13  O   UNK N   1      32.772  12.190   4.543  0.00  0.00    -0.350 OA
BRANCH   9  14
HETATM   14  O   UNK N   1      36.015  13.553   5.493  0.00  0.00    -0.388 OA
HETATM   15  H   UNK N   1      36.978  13.606   5.396  0.00  0.00     0.210 HD
ENDBRANCH   9  14
BRANCH  10  16
HETATM   16  O   UNK N   1      34.301  15.687   4.008  0.00  0.00    -0.392 OA
HETATM   17  H   UNK N   1      34.455  15.393   3.097  0.00  0.00     0.210 HD
ENDBRANCH  10  16
BRANCH  11  18
HETATM   18  S   UNK N   1      31.487  16.136   5.080  0.00  0.00    -0.124 SA
BRANCH  18  19
HETATM   19  C   UNK N   1      30.114  15.815   6.287  0.00  0.00     0.215 C 
HETATM   20  C   UNK N   1      28.711  16.087   5.701  0.00  0.00     0.188 C 
HETATM   21  C   UNK N   1      28.374  17.585   5.763  0.00  0.00     0.181 C 
HETATM   22  C   UNK N   1      28.540  18.090   7.201  0.00  0.00     0.180 C 
HETATM   23  C   UNK N   1      29.985  17.793   7.628  0.00  0.00     0.178 C 
HETATM   24  O   UNK N   1      30.279  16.402   7.579  0.00  0.00    -0.363 OA
BRANCH  20  25
HETATM   25  O   UNK N   1      27.767  15.364   6.438  0.00  0.00    -0.389 OA
HETATM   26  H   UNK N   1      27.575  14.427   6.602  0.00  0.00     0.210 HD
ENDBRANCH  20  25
BRANCH  21  27
HETATM   27  O   UNK N   1      27.069  17.811   5.319  0.00  0.00    -0.390 OA
HETATM   28  H   UNK N   1      26.778  17.547   4.433  0.00  0.00     0.210 HD
ENDBRANCH  21  27
BRANCH  22  29
HETATM   29  O   UNK N   1      27.629  17.463   8.059  0.00  0.00    -0.390 OA
HETATM   30  H   UNK N   1      27.280  16.560   8.131  0.00  0.00     0.210 HD
ENDBRANCH  22  29
BRANCH  23  31
HETATM   31  C   UNK N   1      30.256  18.308   9.043  0.00  0.00     0.198 C 
BRANCH  31  32
HETATM   32  O   UNK N   1      30.049  17.309   9.998  0.00  0.00    -0.398 OA
HETATM   33  H   UNK N   1      29.325  16.861  10.463  0.00  0.00     0.209 HD
ENDBRANCH  31  32
ENDBRANCH  23  31
ENDBRANCH  18  19
ENDBRANCH  11  18
BRANCH  12  34
HETATM   34  C   UNK N   1      30.640  13.083   4.005  0.00  0.00     0.197 C 
BRANCH  34  35
HETATM   35  O   UNK N   1      30.264  12.116   4.937  0.00  0.00    -0.398 OA
HETATM   36  H   UNK N   1      29.654  11.812   5.628  0.00  0.00     0.209 HD
ENDBRANCH  34  35
ENDBRANCH  12  34
ENDBRANCH   7   8
ENDBRANCH   4   7
BRANCH   1  37
HETATM   37  C   UNK N   1      36.809  10.820   7.540  0.00  0.00     0.198 C 
BRANCH  37  38
HETATM   38  O   UNK N   1      37.641  11.038   8.637  0.00  0.00    -0.398 OA
HETATM   39  H   UNK N   1      37.510  10.576   9.479  0.00  0.00     0.209 HD
ENDBRANCH  37  38
ENDBRANCH   1  37
BRANCH   2  40
HETATM   40  O   UNK N   1      31.889  10.128   6.814  0.00  0.00    -0.390 OA
HETATM   41  H   UNK N   1      31.813   9.839   5.890  0.00  0.00     0.210 HD
ENDBRANCH   2  40
BRANCH   3  42
HETATM   42  O   UNK N   1      32.145  10.863   9.813  0.00  0.00    -0.389 OA
HETATM   43  H   UNK N   1      31.794  10.982  10.709  0.00  0.00     0.210 HD
ENDBRANCH   3  42
BRANCH   5  44
HETATM   44  S   UNK N   1      34.347   9.379  11.168  0.00  0.00    -0.124 SA
BRANCH  44  45
HETATM   45  C   UNK N   1      35.295  10.820  11.784  0.00  0.00     0.112 C 
HETATM   46  C   UNK N   1      34.544  11.727  12.849  0.00  0.00     0.164 C 
HETATM   47  O   UNK N   1      35.385  12.723  13.462  0.00  0.00    -0.350 OA
HETATM   48  C   UNK N   1      36.420  13.157  12.597  0.00  0.00     0.292 C 
HETATM   49  C   UNK N   1      37.466  12.014  12.489  0.00  0.00     0.203 C 
HETATM   50  C   UNK N   1      36.773  10.635  12.228  0.00  0.00     0.168 C 
BRANCH  46  51
HETATM   51  C   UNK N   1      33.920  10.932  13.992  0.00  0.00     0.197 C 
BRANCH  51  52
HETATM   52  O   UNK N   1      33.813  11.724  15.139  0.00  0.00    -0.398 OA
HETATM   53  H   UNK N   1      34.051  11.423  16.030  0.00  0.00     0.209 HD
ENDBRANCH  51  52
ENDBRANCH  46  51
BRANCH  48  54
HETATM   54  O   UNK N   1      35.874  13.327  11.320  0.00  0.00    -0.348 OA
BRANCH  54  55
HETATM   55  C   UNK N   1      35.740  14.548  10.681  0.00  0.00     0.187 C 
HETATM   56  C   UNK N   1      36.122  14.402   9.175  0.00  0.00     0.178 C 
HETATM   57  O   UNK N   1      35.392  15.241   8.272  0.00  0.00    -0.363 OA
HETATM   58  C   UNK N   1      34.875  16.391   8.907  0.00  0.00     0.212 C 
HETATM   59  C   UNK N   1      33.819  16.040   9.983  0.00  0.00     0.188 C 
HETATM   60  C   UNK N   1      34.222  14.769  10.738  0.00  0.00     0.181 C 
BRANCH  56  61
HETATM   61  C   UNK N   1      37.626  14.563   8.987  0.00  0.00     0.198 C 
BRANCH  61  62
HETATM   62  O   UNK N   1      38.228  14.937  10.187  0.00  0.00    -0.398 OA
HETATM   63  H   UNK N   1      39.140  15.241  10.321  0.00  0.00     0.209 HD
ENDBRANCH  61  62
ENDBRANCH  56  61
BRANCH  58  64
HETATM   64  S   UNK N   1      34.188  17.524   7.660  0.00  0.00    -0.148 SA
HETATM   65  H   UNK N   1      34.894  18.319   6.813  0.00  0.00     0.104 HD
ENDBRANCH  58  64
BRANCH  59  66
HETATM   66  O   UNK N   1      32.542  15.861   9.437  0.00  0.00    -0.389 OA
HETATM   67  H   UNK N   1      31.591  15.668   9.420  0.00  0.00     0.210 HD
ENDBRANCH  59  66
BRANCH  60  68
HETATM   68  O   UNK N   1      33.595  13.657  10.147  0.00  0.00    -0.390 OA
HETATM   69  H   UNK N   1      33.247  12.753  10.193  0.00  0.00     0.210 HD
ENDBRANCH  60  68
ENDBRANCH  54  55
ENDBRANCH  48  54
BRANCH  49  70
HETATM   70  O   UNK N   1      38.371  12.319  11.470  0.00  0.00    -0.388 OA
HETATM   71  H   UNK N   1      38.332  12.250  10.503  0.00  0.00     0.210 HD
ENDBRANCH  49  70
BRANCH  50  72
HETATM   72  O   UNK N   1      37.492   9.885  11.291  0.00  0.00    -0.392 OA
HETATM   73  H   UNK N   1      38.267   9.672  10.747  0.00  0.00     0.210 HD
ENDBRANCH  50  72
ENDBRANCH  44  45
ENDBRANCH   5  44
TORSDOF 30
ENDMDL
MODEL 5
REMARK VINA RESULT:      -6.4      3.079      9.584
REMARK  30 active torsions:
REMARK  status: ('A' for Active; 'I' for Inactive)
REMARK    1  A    between atoms: C_6  and  C_1 
REMARK    2  A    between atoms: O_31  and  C_1 
REMARK    3  A    between atoms: C_7  and  C_2 
REMARK    4  A    between atoms: O_32  and  C_2 
REMARK    5  A    between atoms: C_8  and  C_3 
REMARK    6  A    between atoms: O_33  and  C_3 
REMARK    7  A    between atoms: C_9  and  C_4 
REMARK    8  A    between atoms: O_34  and  C_4 
REMARK    9  A    between atoms: C_10  and  C_5 
REMARK   10  A    between atoms: O_35  and  C_5 
REMARK   11  A    between atoms: C_11  and  O_36 
REMARK   12  A    between atoms: C_12  and  O_37 
REMARK   13  A    between atoms: C_13  and  O_38 
REMARK   14  A    between atoms: C_14  and  O_39 
REMARK   15  A    between atoms: C_15  and  O_40 
REMARK   16  A    between atoms: C_16  and  O_41 
REMARK   17  A    between atoms: C_17  and  O_42 
REMARK   18  A    between atoms: C_18  and  O_43 
REMARK   19  A    between atoms: C_19  and  O_44 
REMARK   20  A    between atoms: C_20  and  O_45 
REMARK   21  A    between atoms: C_21  and  O_46 
REMARK   22  A    between atoms: C_22  and  O_52 
REMARK   23  A    between atoms: C_23  and  O_53 
REMARK   24  A    between atoms: C_24  and  S_55 
REMARK   25  A    between atoms: C_25  and  S_56 
REMARK   26  A    between atoms: C_26  and  O_52 
REMARK   27  A    between atoms: C_27  and  O_53 
REMARK   28  A    between atoms: C_28  and  S_54 
REMARK   29  A    between atoms: C_29  and  S_55 
REMARK   30  A    between atoms: C_30  and  S_56 
ROOT
HETATM    1  C   UNK N   1      28.186  18.241   6.793  0.00  0.00     0.178 C 
HETATM    2  C   UNK N   1      29.048  17.244   4.660  0.00  0.00     0.181 C 
HETATM    3  C   UNK N   1      27.661  16.678   4.348  0.00  0.00     0.188 C 
HETATM    4  C   UNK N   1      29.340  17.339   6.218  0.00  0.00     0.187 C 
HETATM    5  C   UNK N   1      26.795  16.783   5.591  0.00  0.00     0.215 C 
HETATM    6  O   UNK N   1      26.905  18.051   6.194  0.00  0.00    -0.363 OA
ENDROOT
BRANCH   4   7
HETATM    7  O   UNK N   1      30.579  17.895   6.684  0.00  0.00    -0.348 OA
BRANCH   7   8
HETATM    8  C   UNK N   1      31.456  16.920   7.207  0.00  0.00     0.292 C 
HETATM    9  C   UNK N   1      31.276  16.645   8.688  0.00  0.00     0.203 C 
HETATM   10  C   UNK N   1      32.522  15.803   9.127  0.00  0.00     0.168 C 
HETATM   11  C   UNK N   1      33.161  15.027   7.920  0.00  0.00     0.112 C 
HETATM   12  C   UNK N   1      31.986  14.567   7.016  0.00  0.00     0.164 C 
HETATM   13  O   UNK N   1      31.296  15.707   6.470  0.00  0.00    -0.350 OA
BRANCH   9  14
HETATM   14  O   UNK N   1      31.187  17.817   9.437  0.00  0.00    -0.388 OA
HETATM   15  H   UNK N   1      31.497  18.305  10.216  0.00  0.00     0.210 HD
ENDBRANCH   9  14
BRANCH  10  16
HETATM   16  O   UNK N   1      32.135  14.937  10.151  0.00  0.00    -0.392 OA
HETATM   17  H   UNK N   1      31.477  15.175  10.823  0.00  0.00     0.210 HD
ENDBRANCH  10  16
BRANCH  11  18
HETATM   18  S   UNK N   1      34.438  13.831   8.497  0.00  0.00    -0.124 SA
BRANCH  18  19
HETATM   19  C   UNK N   1      35.054  14.630  10.055  0.00  0.00     0.215 C 
HETATM   20  C   UNK N   1      36.560  14.972  10.011  0.00  0.00     0.188 C 
HETATM   21  C   UNK N   1      37.411  13.737  10.344  0.00  0.00     0.181 C 
HETATM   22  C   UNK N   1      36.961  13.149  11.687  0.00  0.00     0.180 C 
HETATM   23  C   UNK N   1      35.466  12.820  11.566  0.00  0.00     0.178 C 
HETATM   24  O   UNK N   1      34.688  13.974  11.271  0.00  0.00    -0.363 OA
BRANCH  20  25
HETATM   25  O   UNK N   1      36.819  15.984  10.940  0.00  0.00    -0.389 OA
HETATM   26  H   UNK N   1      37.608  16.417  11.303  0.00  0.00     0.210 HD
ENDBRANCH  20  25
BRANCH  21  27
HETATM   27  O   UNK N   1      38.765  14.076  10.395  0.00  0.00    -0.390 OA
HETATM   28  H   UNK N   1      39.459  13.401  10.450  0.00  0.00     0.210 HD
ENDBRANCH  21  27
BRANCH  22  29
HETATM   29  O   UNK N   1      37.187  14.056  12.730  0.00  0.00    -0.390 OA
HETATM   30  H   UNK N   1      36.677  14.787  13.112  0.00  0.00     0.210 HD
ENDBRANCH  22  29
BRANCH  23  31
HETATM   31  C   UNK N   1      34.939  12.183  12.852  0.00  0.00     0.198 C 
BRANCH  31  32
HETATM   32  O   UNK N   1      34.597  13.151  13.800  0.00  0.00    -0.398 OA
HETATM   33  H   UNK N   1      35.007  13.856  14.326  0.00  0.00     0.209 HD
ENDBRANCH  31  32
ENDBRANCH  23  31
ENDBRANCH  18  19
ENDBRANCH  11  18
BRANCH  12  34
HETATM   34  C   UNK N   1      32.411  13.709   5.839  0.00  0.00     0.197 C 
BRANCH  34  35
HETATM   35  O   UNK N   1      31.720  14.078   4.684  0.00  0.00    -0.398 OA
HETATM   36  H   UNK N   1      31.669  14.116   3.716  0.00  0.00     0.209 HD
ENDBRANCH  34  35
ENDBRANCH  12  34
ENDBRANCH   7   8
ENDBRANCH   4   7
BRANCH   1  37
HETATM   37  C   UNK N   1      28.052  18.108   8.311  0.00  0.00     0.198 C 
BRANCH  37  38
HETATM   38  O   UNK N   1      28.807  19.069   8.981  0.00  0.00    -0.398 OA
HETATM   39  H   UNK N   1      28.700  20.017   8.809  0.00  0.00     0.209 HD
ENDBRANCH  37  38
ENDBRANCH   1  37
BRANCH   2  40
HETATM   40  O   UNK N   1      29.980  16.456   3.978  0.00  0.00    -0.390 OA
HETATM   41  H   UNK N   1      30.499  16.592   3.171  0.00  0.00     0.210 HD
ENDBRANCH   2  40
BRANCH   3  42
HETATM   42  O   UNK N   1      27.105  17.367   3.264  0.00  0.00    -0.389 OA
HETATM   43  H   UNK N   1      26.301  17.725   2.857  0.00  0.00     0.210 HD
ENDBRANCH   3  42
BRANCH   5  44
HETATM   44  S   UNK N   1      25.079  16.395   5.222  0.00  0.00    -0.124 SA
BRANCH  44  45
HETATM   45  C   UNK N   1      25.339  14.632   4.796  0.00  0.00     0.112 C 
HETATM   46  C   UNK N   1      25.834  13.707   5.989  0.00  0.00     0.164 C 
HETATM   47  O   UNK N   1      25.829  12.302   5.675  0.00  0.00    -0.350 OA
HETATM   48  C   UNK N   1      26.055  12.058   4.298  0.00  0.00     0.292 C 
HETATM   49  C   UNK N   1      24.774  12.466   3.522  0.00  0.00     0.203 C 
HETATM   50  C   UNK N   1      24.257  13.871   3.981  0.00  0.00     0.168 C 
BRANCH  46  51
HETATM   51  C   UNK N   1      25.010  13.864   7.263  0.00  0.00     0.197 C 
BRANCH  51  52
HETATM   52  O   UNK N   1      24.262  12.709   7.509  0.00  0.00    -0.398 OA
HETATM   53  H   UNK N   1      24.465  11.840   7.128  0.00  0.00     0.209 HD
ENDBRANCH  51  52
ENDBRANCH  46  51
BRANCH  48  54
HETATM   54  O   UNK N   1      27.077  12.913   3.869  0.00  0.00    -0.348 OA
BRANCH  54  55
HETATM   55  C   UNK N   1      28.059  12.565   2.958  0.00  0.00     0.187 C 
HETATM   56  C   UNK N   1      28.875  13.831   2.550  0.00  0.00     0.178 C 
HETATM   57  O   UNK N   1      30.261  13.604   2.267  0.00  0.00    -0.363 OA
HETATM   58  C   UNK N   1      30.519  12.270   1.882  0.00  0.00     0.212 C 
HETATM   59  C   UNK N   1      30.230  11.266   3.025  0.00  0.00     0.188 C 
HETATM   60  C   UNK N   1      28.988  11.692   3.814  0.00  0.00     0.181 C 
BRANCH  56  61
HETATM   61  C   UNK N   1      28.188  14.563   1.403  0.00  0.00     0.198 C 
BRANCH  61  62
HETATM   62  O   UNK N   1      26.838  14.759   1.692  0.00  0.00    -0.398 OA
HETATM   63  H   UNK N   1      26.361  14.493   2.493  0.00  0.00     0.209 HD
ENDBRANCH  61  62
ENDBRANCH  56  61
BRANCH  58  64
HETATM   64  S   UNK N   1      32.234  12.120   1.297  0.00  0.00    -0.148 SA
HETATM   65  H   UNK N   1      33.006  11.001   1.329  0.00  0.00     0.104 HD
ENDBRANCH  58  64
BRANCH  59  66
HETATM   66  O   UNK N   1      31.310  11.140   3.908  0.00  0.00    -0.389 OA
HETATM   67  H   UNK N   1      32.091  11.408   4.417  0.00  0.00     0.210 HD
ENDBRANCH  59  66
BRANCH  60  68
HETATM   68  O   UNK N   1      29.382  12.441   4.937  0.00  0.00    -0.390 OA
HETATM   69  H   UNK N   1      30.067  12.809   5.517  0.00  0.00     0.210 HD
ENDBRANCH  60  68
ENDBRANCH  54  55
ENDBRANCH  48  54
BRANCH  49  70
HETATM   70  O   UNK N   1      25.047  12.457   2.152  0.00  0.00    -0.388 OA
HETATM   71  H   UNK N   1      25.814  12.175   1.630  0.00  0.00     0.210 HD
ENDBRANCH  49  70
BRANCH  50  72
HETATM   72  O   UNK N   1      23.826  14.626   2.884  0.00  0.00    -0.392 OA
HETATM   73  H   UNK N   1      23.924  15.042   2.013  0.00  0.00     0.210 HD
ENDBRANCH  50  72
ENDBRANCH  44  45
ENDBRANCH   5  44
TORSDOF 30
ENDMDL
MODEL 6
REMARK VINA RESULT:      -6.4      5.295     12.493
REMARK  30 active torsions:
REMARK  status: ('A' for Active; 'I' for Inactive)
REMARK    1  A    between atoms: C_6  and  C_1 
REMARK    2  A    between atoms: O_31  and  C_1 
REMARK    3  A    between atoms: C_7  and  C_2 
REMARK    4  A    between atoms: O_32  and  C_2 
REMARK    5  A    between atoms: C_8  and  C_3 
REMARK    6  A    between atoms: O_33  and  C_3 
REMARK    7  A    between atoms: C_9  and  C_4 
REMARK    8  A    between atoms: O_34  and  C_4 
REMARK    9  A    between atoms: C_10  and  C_5 
REMARK   10  A    between atoms: O_35  and  C_5 
REMARK   11  A    between atoms: C_11  and  O_36 
REMARK   12  A    between atoms: C_12  and  O_37 
REMARK   13  A    between atoms: C_13  and  O_38 
REMARK   14  A    between atoms: C_14  and  O_39 
REMARK   15  A    between atoms: C_15  and  O_40 
REMARK   16  A    between atoms: C_16  and  O_41 
REMARK   17  A    between atoms: C_17  and  O_42 
REMARK   18  A    between atoms: C_18  and  O_43 
REMARK   19  A    between atoms: C_19  and  O_44 
REMARK   20  A    between atoms: C_20  and  O_45 
REMARK   21  A    between atoms: C_21  and  O_46 
REMARK   22  A    between atoms: C_22  and  O_52 
REMARK   23  A    between atoms: C_23  and  O_53 
REMARK   24  A    between atoms: C_24  and  S_55 
REMARK   25  A    between atoms: C_25  and  S_56 
REMARK   26  A    between atoms: C_26  and  O_52 
REMARK   27  A    between atoms: C_27  and  O_53 
REMARK   28  A    between atoms: C_28  and  S_54 
REMARK   29  A    between atoms: C_29  and  S_55 
REMARK   30  A    between atoms: C_30  and  S_56 
ROOT
HETATM    1  C   UNK N   1      24.495  16.195   3.903  0.00  0.00     0.178 C 
HETATM    2  C   UNK N   1      25.928  14.918   2.290  0.00  0.00     0.181 C 
HETATM    3  C   UNK N   1      25.042  13.683   2.460  0.00  0.00     0.188 C 
HETATM    4  C   UNK N   1      25.991  15.817   3.598  0.00  0.00     0.187 C 
HETATM    5  C   UNK N   1      24.130  13.891   3.656  0.00  0.00     0.215 C 
HETATM    6  O   UNK N   1      23.539  15.169   3.642  0.00  0.00    -0.363 OA
ENDROOT
BRANCH   4   7
HETATM    7  O   UNK N   1      26.741  17.041   3.592  0.00  0.00    -0.348 OA
BRANCH   7   8
HETATM    8  C   UNK N   1      27.953  16.947   4.310  0.00  0.00     0.292 C 
HETATM    9  C   UNK N   1      27.874  17.441   5.742  0.00  0.00     0.203 C 
HETATM   10  C   UNK N   1      29.354  17.553   6.244  0.00  0.00     0.168 C 
HETATM   11  C   UNK N   1      30.318  16.606   5.445  0.00  0.00     0.112 C 
HETATM   12  C   UNK N   1      29.521  15.307   5.150  0.00  0.00     0.164 C 
HETATM   13  O   UNK N   1      28.399  15.589   4.293  0.00  0.00    -0.350 OA
BRANCH   9  14
HETATM   14  O   UNK N   1      27.227  18.671   5.843  0.00  0.00    -0.388 OA
HETATM   15  H   UNK N   1      26.444  19.151   6.153  0.00  0.00     0.210 HD
ENDBRANCH   9  14
BRANCH  10  16
HETATM   16  O   UNK N   1      29.380  17.282   7.613  0.00  0.00    -0.392 OA
HETATM   17  H   UNK N   1      30.081  17.603   8.201  0.00  0.00     0.210 HD
ENDBRANCH  10  16
BRANCH  11  18
HETATM   18  S   UNK N   1      31.986  16.539   6.226  0.00  0.00    -0.124 SA
BRANCH  18  19
HETATM   19  C   UNK N   1      31.710  15.377   7.648  0.00  0.00     0.215 C 
HETATM   20  C   UNK N   1      32.279  15.904   8.984  0.00  0.00     0.188 C 
HETATM   21  C   UNK N   1      33.785  15.622   9.086  0.00  0.00     0.181 C 
HETATM   22  C   UNK N   1      34.046  14.127   8.862  0.00  0.00     0.180 C 
HETATM   23  C   UNK N   1      33.469  13.762   7.486  0.00  0.00     0.178 C 
HETATM   24  O   UNK N   1      32.071  14.015   7.410  0.00  0.00    -0.363 OA
BRANCH  20  25
HETATM   25  O   UNK N   1      31.612  15.271  10.038  0.00  0.00    -0.389 OA
HETATM   26  H   UNK N   1      31.507  14.359  10.354  0.00  0.00     0.210 HD
ENDBRANCH  20  25
BRANCH  21  27
HETATM   27  O   UNK N   1      34.273  16.015  10.334  0.00  0.00    -0.390 OA
HETATM   28  H   UNK N   1      35.222  16.024  10.533  0.00  0.00     0.210 HD
ENDBRANCH  21  27
BRANCH  22  29
HETATM   29  O   UNK N   1      33.449  13.361   9.871  0.00  0.00    -0.390 OA
HETATM   30  H   UNK N   1      33.460  12.417  10.098  0.00  0.00     0.210 HD
ENDBRANCH  22  29
BRANCH  23  31
HETATM   31  C   UNK N   1      33.725  12.291   7.157  0.00  0.00     0.198 C 
BRANCH  31  32
HETATM   32  O   UNK N   1      32.633  11.716   6.502  0.00  0.00    -0.398 OA
HETATM   33  H   UNK N   1      32.305  11.552   5.603  0.00  0.00     0.209 HD
ENDBRANCH  31  32
ENDBRANCH  23  31
ENDBRANCH  18  19
ENDBRANCH  11  18
BRANCH  12  34
HETATM   34  C   UNK N   1      30.334  14.226   4.462  0.00  0.00     0.197 C 
BRANCH  34  35
HETATM   35  O   UNK N   1      30.406  13.082   5.258  0.00  0.00    -0.398 OA
HETATM   36  H   UNK N   1      30.033  12.229   5.533  0.00  0.00     0.209 HD
ENDBRANCH  34  35
ENDBRANCH  12  34
ENDBRANCH   7   8
ENDBRANCH   4   7
BRANCH   1  37
HETATM   37  C   UNK N   1      24.308  16.697   5.336  0.00  0.00     0.198 C 
BRANCH  37  38
HETATM   38  O   UNK N   1      24.540  18.068   5.436  0.00  0.00    -0.398 OA
HETATM   39  H   UNK N   1      24.253  18.689   4.748  0.00  0.00     0.209 HD
ENDBRANCH  37  38
ENDBRANCH   1  37
BRANCH   2  40
HETATM   40  O   UNK N   1      27.186  14.472   1.875  0.00  0.00    -0.390 OA
HETATM   41  H   UNK N   1      27.661  13.634   1.984  0.00  0.00     0.210 HD
ENDBRANCH   2  40
BRANCH   3  42
HETATM   42  O   UNK N   1      24.318  13.458   1.284  0.00  0.00    -0.389 OA
HETATM   43  H   UNK N   1      23.686  12.889   0.816  0.00  0.00     0.210 HD
ENDBRANCH   3  42
BRANCH   5  44
HETATM   44  S   UNK N   1      22.877  12.606   3.750  0.00  0.00    -0.124 SA
BRANCH  44  45
HETATM   45  C   UNK N   1      21.572  13.628   4.529  0.00  0.00     0.112 C 
HETATM   46  C   UNK N   1      20.130  13.509   3.874  0.00  0.00     0.164 C 
HETATM   47  O   UNK N   1      19.092  14.159   4.630  0.00  0.00    -0.350 OA
HETATM   48  C   UNK N   1      19.575  15.276   5.357  0.00  0.00     0.292 C 
HETATM   49  C   UNK N   1      20.422  14.746   6.544  0.00  0.00     0.203 C 
HETATM   50  C   UNK N   1      21.426  13.639   6.076  0.00  0.00     0.168 C 
BRANCH  46  51
HETATM   51  C   UNK N   1      19.672  12.068   3.669  0.00  0.00     0.197 C 
BRANCH  51  52
HETATM   52  O   UNK N   1      18.779  11.689   4.675  0.00  0.00    -0.398 OA
HETATM   53  H   UNK N   1      18.410  12.301   5.332  0.00  0.00     0.209 HD
ENDBRANCH  51  52
ENDBRANCH  46  51
BRANCH  48  54
HETATM   54  O   UNK N   1      20.447  15.988   4.524  0.00  0.00    -0.348 OA
BRANCH  54  55
HETATM   55  C   UNK N   1      20.126  17.172   3.884  0.00  0.00     0.187 C 
HETATM   56  C   UNK N   1      21.291  18.197   4.055  0.00  0.00     0.178 C 
HETATM   57  O   UNK N   1      21.491  19.089   2.950  0.00  0.00    -0.363 OA
HETATM   58  C   UNK N   1      20.322  19.256   2.177  0.00  0.00     0.212 C 
HETATM   59  C   UNK N   1      19.885  17.942   1.486  0.00  0.00     0.188 C 
HETATM   60  C   UNK N   1      20.121  16.743   2.410  0.00  0.00     0.181 C 
BRANCH  56  61
HETATM   61  C   UNK N   1      21.143  18.962   5.364  0.00  0.00     0.198 C 
BRANCH  61  62
HETATM   62  O   UNK N   1      21.823  18.305   6.389  0.00  0.00    -0.398 OA
HETATM   63  H   UNK N   1      22.545  17.663   6.302  0.00  0.00     0.209 HD
ENDBRANCH  61  62
ENDBRANCH  56  61
BRANCH  58  64
HETATM   64  S   UNK N   1      20.576  20.584   0.960  0.00  0.00    -0.148 SA
HETATM   65  H   UNK N   1      21.336  21.699   1.126  0.00  0.00     0.104 HD
ENDBRANCH  58  64
BRANCH  59  66
HETATM   66  O   UNK N   1      20.561  17.726   0.278  0.00  0.00    -0.389 OA
HETATM   67  H   UNK N   1      21.310  17.558  -0.315  0.00  0.00     0.210 HD
ENDBRANCH  59  66
BRANCH  60  68
HETATM   68  O   UNK N   1      21.370  16.165   2.117  0.00  0.00    -0.390 OA
HETATM   69  H   UNK N   1      21.922  15.399   1.901  0.00  0.00     0.210 HD
ENDBRANCH  60  68
ENDBRANCH  54  55
ENDBRANCH  48  54
BRANCH  49  70
HETATM   70  O   UNK N   1      21.098  15.816   7.136  0.00  0.00    -0.388 OA
HETATM   71  H   UNK N   1      20.971  16.306   7.964  0.00  0.00     0.210 HD
ENDBRANCH  49  70
BRANCH  50  72
HETATM   72  O   UNK N   1      22.668  13.796   6.700  0.00  0.00    -0.392 OA
HETATM   73  H   UNK N   1      23.296  14.216   7.309  0.00  0.00     0.210 HD
ENDBRANCH  50  72
ENDBRANCH  44  45
ENDBRANCH   5  44
TORSDOF 30
ENDMDL
MODEL 7
REMARK VINA RESULT:      -6.3      5.098     12.244
REMARK  30 active torsions:
REMARK  status: ('A' for Active; 'I' for Inactive)
REMARK    1  A    between atoms: C_6  and  C_1 
REMARK    2  A    between atoms: O_31  and  C_1 
REMARK    3  A    between atoms: C_7  and  C_2 
REMARK    4  A    between atoms: O_32  and  C_2 
REMARK    5  A    between atoms: C_8  and  C_3 
REMARK    6  A    between atoms: O_33  and  C_3 
REMARK    7  A    between atoms: C_9  and  C_4 
REMARK    8  A    between atoms: O_34  and  C_4 
REMARK    9  A    between atoms: C_10  and  C_5 
REMARK   10  A    between atoms: O_35  and  C_5 
REMARK   11  A    between atoms: C_11  and  O_36 
REMARK   12  A    between atoms: C_12  and  O_37 
REMARK   13  A    between atoms: C_13  and  O_38 
REMARK   14  A    between atoms: C_14  and  O_39 
REMARK   15  A    between atoms: C_15  and  O_40 
REMARK   16  A    between atoms: C_16  and  O_41 
REMARK   17  A    between atoms: C_17  and  O_42 
REMARK   18  A    between atoms: C_18  and  O_43 
REMARK   19  A    between atoms: C_19  and  O_44 
REMARK   20  A    between atoms: C_20  and  O_45 
REMARK   21  A    between atoms: C_21  and  O_46 
REMARK   22  A    between atoms: C_22  and  O_52 
REMARK   23  A    between atoms: C_23  and  O_53 
REMARK   24  A    between atoms: C_24  and  S_55 
REMARK   25  A    between atoms: C_25  and  S_56 
REMARK   26  A    between atoms: C_26  and  O_52 
REMARK   27  A    between atoms: C_27  and  O_53 
REMARK   28  A    between atoms: C_28  and  S_54 
REMARK   29  A    between atoms: C_29  and  S_55 
REMARK   30  A    between atoms: C_30  and  S_56 
ROOT
HETATM    1  C   UNK N   1      24.907  15.975   4.081  0.00  0.00     0.178 C 
HETATM    2  C   UNK N   1      26.353  14.637   2.530  0.00  0.00     0.181 C 
HETATM    3  C   UNK N   1      25.450  13.417   2.719  0.00  0.00     0.188 C 
HETATM    4  C   UNK N   1      26.403  15.572   3.813  0.00  0.00     0.187 C 
HETATM    5  C   UNK N   1      24.520  13.668   3.893  0.00  0.00     0.215 C 
HETATM    6  O   UNK N   1      23.943  14.952   3.832  0.00  0.00    -0.363 OA
ENDROOT
BRANCH   4   7
HETATM    7  O   UNK N   1      27.167  16.787   3.786  0.00  0.00    -0.348 OA
BRANCH   7   8
HETATM    8  C   UNK N   1      28.203  16.806   4.745  0.00  0.00     0.292 C 
HETATM    9  C   UNK N   1      29.587  17.033   4.168  0.00  0.00     0.203 C 
HETATM   10  C   UNK N   1      30.597  16.701   5.319  0.00  0.00     0.168 C 
HETATM   11  C   UNK N   1      29.942  16.861   6.737  0.00  0.00     0.112 C 
HETATM   12  C   UNK N   1      28.983  18.079   6.649  0.00  0.00     0.164 C 
HETATM   13  O   UNK N   1      27.917  17.813   5.718  0.00  0.00    -0.350 OA
BRANCH   9  14
HETATM   14  O   UNK N   1      29.834  16.232   3.054  0.00  0.00    -0.388 OA
HETATM   15  H   UNK N   1      29.471  15.826   2.252  0.00  0.00     0.210 HD
ENDBRANCH   9  14
BRANCH  10  16
HETATM   16  O   UNK N   1      31.721  17.515   5.173  0.00  0.00    -0.392 OA
HETATM   17  H   UNK N   1      32.590  17.286   5.538  0.00  0.00     0.210 HD
ENDBRANCH  10  16
BRANCH  11  18
HETATM   18  S   UNK N   1      31.206  16.745   8.073  0.00  0.00    -0.124 SA
BRANCH  18  19
HETATM   19  C   UNK N   1      31.920  15.054   7.797  0.00  0.00     0.215 C 
HETATM   20  C   UNK N   1      32.519  14.429   9.076  0.00  0.00     0.188 C 
HETATM   21  C   UNK N   1      33.940  14.954   9.328  0.00  0.00     0.181 C 
HETATM   22  C   UNK N   1      34.802  14.726   8.080  0.00  0.00     0.180 C 
HETATM   23  C   UNK N   1      34.109  15.437   6.908  0.00  0.00     0.178 C 
HETATM   24  O   UNK N   1      32.799  14.932   6.677  0.00  0.00    -0.363 OA
BRANCH  20  25
HETATM   25  O   UNK N   1      32.553  13.039   8.924  0.00  0.00    -0.389 OA
HETATM   26  H   UNK N   1      32.394  12.268   9.491  0.00  0.00     0.210 HD
ENDBRANCH  20  25
BRANCH  21  27
HETATM   27  O   UNK N   1      34.509  14.314  10.432  0.00  0.00    -0.390 OA
HETATM   28  H   UNK N   1      34.384  13.367  10.594  0.00  0.00     0.210 HD
ENDBRANCH  21  27
BRANCH  22  29
HETATM   29  O   UNK N   1      34.946  13.358   7.817  0.00  0.00    -0.390 OA
HETATM   30  H   UNK N   1      34.337  12.603   7.814  0.00  0.00     0.210 HD
ENDBRANCH  22  29
BRANCH  23  31
HETATM   31  C   UNK N   1      34.927  15.300   5.623  0.00  0.00     0.198 C 
BRANCH  31  32
HETATM   32  O   UNK N   1      36.283  15.103   5.899  0.00  0.00    -0.398 OA
HETATM   33  H   UNK N   1      36.868  14.891   6.643  0.00  0.00     0.209 HD
ENDBRANCH  31  32
ENDBRANCH  23  31
ENDBRANCH  18  19
ENDBRANCH  11  18
BRANCH  12  34
HETATM   34  C   UNK N   1      28.329  18.448   7.967  0.00  0.00     0.197 C 
BRANCH  34  35
HETATM   35  O   UNK N   1      27.410  17.471   8.352  0.00  0.00    -0.398 OA
HETATM   36  H   UNK N   1      26.661  17.198   8.906  0.00  0.00     0.209 HD
ENDBRANCH  34  35
ENDBRANCH  12  34
ENDBRANCH   7   8
ENDBRANCH   4   7
BRANCH   1  37
HETATM   37  C   UNK N   1      24.700  16.520   5.495  0.00  0.00     0.198 C 
BRANCH  37  38
HETATM   38  O   UNK N   1      25.565  15.921   6.409  0.00  0.00    -0.398 OA
HETATM   39  H   UNK N   1      26.445  15.606   6.153  0.00  0.00     0.209 HD
ENDBRANCH  37  38
ENDBRANCH   1  37
BRANCH   2  40
HETATM   40  O   UNK N   1      27.613  14.165   2.150  0.00  0.00    -0.390 OA
HETATM   41  H   UNK N   1      28.510  14.334   2.477  0.00  0.00     0.210 HD
ENDBRANCH   2  40
BRANCH   3  42
HETATM   42  O   UNK N   1      24.744  13.166   1.537  0.00  0.00    -0.389 OA
HETATM   43  H   UNK N   1      24.258  12.517   1.004  0.00  0.00     0.210 HD
ENDBRANCH   3  42
BRANCH   5  44
HETATM   44  S   UNK N   1      23.250  12.400   4.000  0.00  0.00    -0.124 SA
BRANCH  44  45
HETATM   45  C   UNK N   1      21.994  13.419   4.861  0.00  0.00     0.112 C 
HETATM   46  C   UNK N   1      20.498  13.218   4.367  0.00  0.00     0.164 C 
HETATM   47  O   UNK N   1      19.520  13.873   5.196  0.00  0.00    -0.350 OA
HETATM   48  C   UNK N   1      20.032  15.042   5.812  0.00  0.00     0.292 C 
HETATM   49  C   UNK N   1      21.017  14.604   6.929  0.00  0.00     0.203 C 
HETATM   50  C   UNK N   1      22.008  13.507   6.412  0.00  0.00     0.168 C 
BRANCH  46  51
HETATM   51  C   UNK N   1      20.076  11.755   4.282  0.00  0.00     0.197 C 
BRANCH  51  52
HETATM   52  O   UNK N   1      19.200  11.435   5.324  0.00  0.00    -0.398 OA
HETATM   53  H   UNK N   1      19.110  10.547   5.704  0.00  0.00     0.209 HD
ENDBRANCH  51  52
ENDBRANCH  46  51
BRANCH  48  54
HETATM   54  O   UNK N   1      20.786  15.737   4.859  0.00  0.00    -0.348 OA
BRANCH  54  55
HETATM   55  C   UNK N   1      20.454  16.983   4.354  0.00  0.00     0.187 C 
HETATM   56  C   UNK N   1      21.712  17.907   4.357  0.00  0.00     0.178 C 
HETATM   57  O   UNK N   1      21.780  18.854   3.284  0.00  0.00    -0.363 OA
HETATM   58  C   UNK N   1      20.507  19.157   2.753  0.00  0.00     0.212 C 
HETATM   59  C   UNK N   1      19.843  17.928   2.088  0.00  0.00     0.188 C 
HETATM   60  C   UNK N   1      20.143  16.655   2.886  0.00  0.00     0.181 C 
BRANCH  56  61
HETATM   61  C   UNK N   1      21.870  18.590   5.709  0.00  0.00     0.198 C 
BRANCH  61  62
HETATM   62  O   UNK N   1      20.756  18.344   6.511  0.00  0.00    -0.398 OA
HETATM   63  H   UNK N   1      19.826  18.520   6.299  0.00  0.00     0.209 HD
ENDBRANCH  61  62
ENDBRANCH  56  61
BRANCH  58  64
HETATM   64  S   UNK N   1      20.644  20.542   1.582  0.00  0.00    -0.148 SA
HETATM   65  H   UNK N   1      21.352  21.689   1.765  0.00  0.00     0.104 HD
ENDBRANCH  58  64
BRANCH  59  66
HETATM   66  O   UNK N   1      20.266  17.746   0.765  0.00  0.00    -0.389 OA
HETATM   67  H   UNK N   1      20.772  17.372   0.026  0.00  0.00     0.210 HD
ENDBRANCH  59  66
BRANCH  60  68
HETATM   68  O   UNK N   1      21.264  16.010   2.334  0.00  0.00    -0.390 OA
HETATM   69  H   UNK N   1      21.982  15.361   2.384  0.00  0.00     0.210 HD
ENDBRANCH  60  68
ENDBRANCH  54  55
ENDBRANCH  48  54
BRANCH  49  70
HETATM   70  O   UNK N   1      21.709  15.725   7.393  0.00  0.00    -0.388 OA
HETATM   71  H   UNK N   1      22.627  16.024   7.299  0.00  0.00     0.210 HD
ENDBRANCH  49  70
BRANCH  50  72
HETATM   72  O   UNK N   1      23.301  13.737   6.894  0.00  0.00    -0.392 OA
HETATM   73  H   UNK N   1      24.158  13.475   7.268  0.00  0.00     0.210 HD
ENDBRANCH  50  72
ENDBRANCH  44  45
ENDBRANCH   5  44
TORSDOF 30
ENDMDL
MODEL 8
REMARK VINA RESULT:      -6.2      3.706      7.244
REMARK  30 active torsions:
REMARK  status: ('A' for Active; 'I' for Inactive)
REMARK    1  A    between atoms: C_6  and  C_1 
REMARK    2  A    between atoms: O_31  and  C_1 
REMARK    3  A    between atoms: C_7  and  C_2 
REMARK    4  A    between atoms: O_32  and  C_2 
REMARK    5  A    between atoms: C_8  and  C_3 
REMARK    6  A    between atoms: O_33  and  C_3 
REMARK    7  A    between atoms: C_9  and  C_4 
REMARK    8  A    between atoms: O_34  and  C_4 
REMARK    9  A    between atoms: C_10  and  C_5 
REMARK   10  A    between atoms: O_35  and  C_5 
REMARK   11  A    between atoms: C_11  and  O_36 
REMARK   12  A    between atoms: C_12  and  O_37 
REMARK   13  A    between atoms: C_13  and  O_38 
REMARK   14  A    between atoms: C_14  and  O_39 
REMARK   15  A    between atoms: C_15  and  O_40 
REMARK   16  A    between atoms: C_16  and  O_41 
REMARK   17  A    between atoms: C_17  and  O_42 
REMARK   18  A    between atoms: C_18  and  O_43 
REMARK   19  A    between atoms: C_19  and  O_44 
REMARK   20  A    between atoms: C_20  and  O_45 
REMARK   21  A    between atoms: C_21  and  O_46 
REMARK   22  A    between atoms: C_22  and  O_52 
REMARK   23  A    between atoms: C_23  and  O_53 
REMARK   24  A    between atoms: C_24  and  S_55 
REMARK   25  A    between atoms: C_25  and  S_56 
REMARK   26  A    between atoms: C_26  and  O_52 
REMARK   27  A    between atoms: C_27  and  O_53 
REMARK   28  A    between atoms: C_28  and  S_54 
REMARK   29  A    between atoms: C_29  and  S_55 
REMARK   30  A    between atoms: C_30  and  S_56 
ROOT
HETATM    1  C   UNK N   1      30.409  17.848   5.666  0.00  0.00     0.178 C 
HETATM    2  C   UNK N   1      28.875  18.332   7.589  0.00  0.00     0.181 C 
HETATM    3  C   UNK N   1      29.773  17.522   8.526  0.00  0.00     0.188 C 
HETATM    4  C   UNK N   1      28.897  17.794   6.096  0.00  0.00     0.187 C 
HETATM    5  C   UNK N   1      30.761  16.723   7.694  0.00  0.00     0.215 C 
HETATM    6  O   UNK N   1      31.348  17.513   6.687  0.00  0.00    -0.363 OA
ENDROOT
BRANCH   4   7
HETATM    7  O   UNK N   1      28.146  18.472   5.077  0.00  0.00    -0.348 OA
BRANCH   7   8
HETATM    8  C   UNK N   1      26.891  17.876   4.831  0.00  0.00     0.292 C 
HETATM    9  C   UNK N   1      25.719  18.837   4.890  0.00  0.00     0.203 C 
HETATM   10  C   UNK N   1      24.429  17.947   4.915  0.00  0.00     0.168 C 
HETATM   11  C   UNK N   1      24.679  16.535   4.277  0.00  0.00     0.112 C 
HETATM   12  C   UNK N   1      25.649  16.751   3.085  0.00  0.00     0.164 C 
HETATM   13  O   UNK N   1      26.922  17.234   3.555  0.00  0.00    -0.350 OA
BRANCH   9  14
HETATM   14  O   UNK N   1      25.766  19.663   6.012  0.00  0.00    -0.388 OA
HETATM   15  H   UNK N   1      25.694  20.567   6.355  0.00  0.00     0.210 HD
ENDBRANCH   9  14
BRANCH  10  16
HETATM   16  O   UNK N   1      23.402  18.634   4.264  0.00  0.00    -0.392 OA
HETATM   17  H   UNK N   1      22.820  19.265   4.716  0.00  0.00     0.210 HD
ENDBRANCH  10  16
BRANCH  11  18
HETATM   18  S   UNK N   1      23.098  15.612   4.058  0.00  0.00    -0.124 SA
BRANCH  18  19
HETATM   19  C   UNK N   1      22.734  15.035   5.784  0.00  0.00     0.215 C 
HETATM   20  C   UNK N   1      21.907  13.732   5.829  0.00  0.00     0.188 C 
HETATM   21  C   UNK N   1      20.411  14.027   5.645  0.00  0.00     0.181 C 
HETATM   22  C   UNK N   1      19.960  15.067   6.677  0.00  0.00     0.180 C 
HETATM   23  C   UNK N   1      20.836  16.315   6.483  0.00  0.00     0.178 C 
HETATM   24  O   UNK N   1      22.217  16.030   6.670  0.00  0.00    -0.363 OA
BRANCH  20  25
HETATM   25  O   UNK N   1      22.113  13.111   7.065  0.00  0.00    -0.389 OA
HETATM   26  H   UNK N   1      22.860  12.987   7.672  0.00  0.00     0.210 HD
ENDBRANCH  20  25
BRANCH  21  27
HETATM   27  O   UNK N   1      19.661  12.856   5.781  0.00  0.00    -0.390 OA
HETATM   28  H   UNK N   1      19.480  12.275   5.026  0.00  0.00     0.210 HD
ENDBRANCH  21  27
BRANCH  22  29
HETATM   29  O   UNK N   1      20.089  14.567   7.979  0.00  0.00    -0.390 OA
HETATM   30  H   UNK N   1      20.359  14.953   8.827  0.00  0.00     0.210 HD
ENDBRANCH  22  29
BRANCH  23  31
HETATM   31  C   UNK N   1      20.424  17.429   7.446  0.00  0.00     0.198 C 
BRANCH  31  32
HETATM   32  O   UNK N   1      21.116  18.614   7.184  0.00  0.00    -0.398 OA
HETATM   33  H   UNK N   1      21.840  18.946   6.629  0.00  0.00     0.209 HD
ENDBRANCH  31  32
ENDBRANCH  23  31
ENDBRANCH  18  19
ENDBRANCH  11  18
BRANCH  12  34
HETATM   34  C   UNK N   1      25.930  15.495   2.281  0.00  0.00     0.197 C 
BRANCH  34  35
HETATM   35  O   UNK N   1      27.305  15.288   2.153  0.00  0.00    -0.398 OA
HETATM   36  H   UNK N   1      28.213  15.614   2.254  0.00  0.00     0.209 HD
ENDBRANCH  34  35
ENDBRANCH  12  34
ENDBRANCH   7   8
ENDBRANCH   4   7
BRANCH   1  37
HETATM   37  C   UNK N   1      30.690  16.991   4.430  0.00  0.00     0.198 C 
BRANCH  37  38
HETATM   38  O   UNK N   1      31.701  17.539   3.642  0.00  0.00    -0.398 OA
HETATM   39  H   UNK N   1      32.032  17.091   2.849  0.00  0.00     0.209 HD
ENDBRANCH  37  38
ENDBRANCH   1  37
BRANCH   2  40
HETATM   40  O   UNK N   1      27.594  18.340   8.147  0.00  0.00    -0.390 OA
HETATM   41  H   UNK N   1      26.848  18.958   8.088  0.00  0.00     0.210 HD
ENDBRANCH   2  40
BRANCH   3  42
HETATM   42  O   UNK N   1      30.418  18.382   9.421  0.00  0.00    -0.389 OA
HETATM   43  H   UNK N   1      30.516  19.292   9.744  0.00  0.00     0.210 HD
ENDBRANCH   3  42
BRANCH   5  44
HETATM   44  S   UNK N   1      32.019  15.965   8.730  0.00  0.00    -0.124 SA
BRANCH  44  45
HETATM   45  C   UNK N   1      32.614  14.747   7.497  0.00  0.00     0.112 C 
HETATM   46  C   UNK N   1      33.479  15.345   6.307  0.00  0.00     0.164 C 
HETATM   47  O   UNK N   1      34.098  14.345   5.478  0.00  0.00    -0.350 OA
HETATM   48  C   UNK N   1      33.341  13.148   5.423  0.00  0.00     0.292 C 
HETATM   49  C   UNK N   1      33.481  12.427   6.790  0.00  0.00     0.203 C 
HETATM   50  C   UNK N   1      33.265  13.421   7.980  0.00  0.00     0.168 C 
BRANCH  46  51
HETATM   51  C   UNK N   1      34.600  16.268   6.775  0.00  0.00     0.197 C 
BRANCH  51  52
HETATM   52  O   UNK N   1      34.374  17.576   6.338  0.00  0.00    -0.398 OA
HETATM   53  H   UNK N   1      34.622  18.367   6.842  0.00  0.00     0.209 HD
ENDBRANCH  51  52
ENDBRANCH  46  51
BRANCH  48  54
HETATM   54  O   UNK N   1      31.992  13.497   5.287  0.00  0.00    -0.348 OA
BRANCH  54  55
HETATM   55  C   UNK N   1      31.294  13.478   4.091  0.00  0.00     0.187 C 
HETATM   56  C   UNK N   1      32.080  12.640   3.034  0.00  0.00     0.178 C 
HETATM   57  O   UNK N   1      31.270  11.918   2.098  0.00  0.00    -0.363 OA
HETATM   58  C   UNK N   1      29.989  12.491   1.943  0.00  0.00     0.212 C 
HETATM   59  C   UNK N   1      29.156  12.421   3.245  0.00  0.00     0.188 C 
HETATM   60  C   UNK N   1      30.047  12.665   4.468  0.00  0.00     0.181 C 
BRANCH  56  61
HETATM   61  C   UNK N   1      33.109  13.508   2.322  0.00  0.00     0.198 C 
BRANCH  61  62
HETATM   62  O   UNK N   1      32.875  14.857   2.589  0.00  0.00    -0.398 OA
HETATM   63  H   UNK N   1      32.498  15.520   1.990  0.00  0.00     0.209 HD
ENDBRANCH  61  62
ENDBRANCH  56  61
BRANCH  58  64
HETATM   64  S   UNK N   1      29.118  11.683   0.565  0.00  0.00    -0.148 SA
HETATM   65  H   UNK N   1      28.987  10.345   0.364  0.00  0.00     0.104 HD
ENDBRANCH  58  64
BRANCH  59  66
HETATM   66  O   UNK N   1      28.504  11.191   3.395  0.00  0.00    -0.389 OA
HETATM   67  H   UNK N   1      27.789  10.574   3.619  0.00  0.00     0.210 HD
ENDBRANCH  59  66
BRANCH  60  68
HETATM   68  O   UNK N   1      30.469  11.430   4.992  0.00  0.00    -0.390 OA
HETATM   69  H   UNK N   1      30.343  10.480   5.137  0.00  0.00     0.210 HD
ENDBRANCH  60  68
ENDBRANCH  54  55
ENDBRANCH  48  54
BRANCH  49  70
HETATM   70  O   UNK N   1      32.567  11.373   6.846  0.00  0.00    -0.388 OA
HETATM   71  H   UNK N   1      32.664  10.414   6.951  0.00  0.00     0.210 HD
ENDBRANCH  49  70
BRANCH  50  72
HETATM   72  O   UNK N   1      32.508  12.825   8.995  0.00  0.00    -0.392 OA
HETATM   73  H   UNK N   1      32.333  12.169   9.689  0.00  0.00     0.210 HD
ENDBRANCH  50  72
ENDBRANCH  44  45
ENDBRANCH   5  44
TORSDOF 30
ENDMDL
MODEL 9
REMARK VINA RESULT:      -6.2      5.413     12.383
REMARK  30 active torsions:
REMARK  status: ('A' for Active; 'I' for Inactive)
REMARK    1  A    between atoms: C_6  and  C_1 
REMARK    2  A    between atoms: O_31  and  C_1 
REMARK    3  A    between atoms: C_7  and  C_2 
REMARK    4  A    between atoms: O_32  and  C_2 
REMARK    5  A    between atoms: C_8  and  C_3 
REMARK    6  A    between atoms: O_33  and  C_3 
REMARK    7  A    between atoms: C_9  and  C_4 
REMARK    8  A    between atoms: O_34  and  C_4 
REMARK    9  A    between atoms: C_10  and  C_5 
REMARK   10  A    between atoms: O_35  and  C_5 
REMARK   11  A    between atoms: C_11  and  O_36 
REMARK   12  A    between atoms: C_12  and  O_37 
REMARK   13  A    between atoms: C_13  and  O_38 
REMARK   14  A    between atoms: C_14  and  O_39 
REMARK   15  A    between atoms: C_15  and  O_40 
REMARK   16  A    between atoms: C_16  and  O_41 
REMARK   17  A    between atoms: C_17  and  O_42 
REMARK   18  A    between atoms: C_18  and  O_43 
REMARK   19  A    between atoms: C_19  and  O_44 
REMARK   20  A    between atoms: C_20  and  O_45 
REMARK   21  A    between atoms: C_21  and  O_46 
REMARK   22  A    between atoms: C_22  and  O_52 
REMARK   23  A    between atoms: C_23  and  O_53 
REMARK   24  A    between atoms: C_24  and  S_55 
REMARK   25  A    between atoms: C_25  and  S_56 
REMARK   26  A    between atoms: C_26  and  O_52 
REMARK   27  A    between atoms: C_27  and  O_53 
REMARK   28  A    between atoms: C_28  and  S_54 
REMARK   29  A    between atoms: C_29  and  S_55 
REMARK   30  A    between atoms: C_30  and  S_56 
ROOT
HETATM    1  C   UNK N   1      24.757  15.426   4.275  0.00  0.00     0.178 C 
HETATM    2  C   UNK N   1      26.377  13.778   3.301  0.00  0.00     0.181 C 
HETATM    3  C   UNK N   1      25.516  12.617   3.800  0.00  0.00     0.188 C 
HETATM    4  C   UNK N   1      26.286  15.059   4.235  0.00  0.00     0.187 C 
HETATM    5  C   UNK N   1      24.487  13.151   4.781  0.00  0.00     0.215 C 
HETATM    6  O   UNK N   1      23.862  14.315   4.294  0.00  0.00    -0.363 OA
ENDROOT
BRANCH   4   7
HETATM    7  O   UNK N   1      26.996  16.256   3.883  0.00  0.00    -0.348 OA
BRANCH   7   8
HETATM    8  C   UNK N   1      28.130  16.481   4.693  0.00  0.00     0.292 C 
HETATM    9  C   UNK N   1      29.403  16.773   3.921  0.00  0.00     0.203 C 
HETATM   10  C   UNK N   1      30.573  16.669   4.959  0.00  0.00     0.168 C 
HETATM   11  C   UNK N   1      30.078  16.922   6.428  0.00  0.00     0.112 C 
HETATM   12  C   UNK N   1      28.989  18.025   6.345  0.00  0.00     0.164 C 
HETATM   13  O   UNK N   1      27.855  17.557   5.592  0.00  0.00    -0.350 OA
BRANCH   9  14
HETATM   14  O   UNK N   1      29.602  15.881   2.869  0.00  0.00    -0.388 OA
HETATM   15  H   UNK N   1      29.957  15.749   1.976  0.00  0.00     0.210 HD
ENDBRANCH   9  14
BRANCH  10  16
HETATM   16  O   UNK N   1      31.576  17.566   4.589  0.00  0.00    -0.392 OA
HETATM   17  H   UNK N   1      31.823  18.334   5.129  0.00  0.00     0.210 HD
ENDBRANCH  10  16
BRANCH  11  18
HETATM   18  S   UNK N   1      31.498  17.077   7.593  0.00  0.00    -0.124 SA
BRANCH  18  19
HETATM   19  C   UNK N   1      32.055  15.315   7.773  0.00  0.00     0.215 C 
HETATM   20  C   UNK N   1      32.183  14.864   9.244  0.00  0.00     0.188 C 
HETATM   21  C   UNK N   1      33.524  15.317   9.842  0.00  0.00     0.181 C 
HETATM   22  C   UNK N   1      34.674  14.827   8.954  0.00  0.00     0.180 C 
HETATM   23  C   UNK N   1      34.437  15.387   7.544  0.00  0.00     0.178 C 
HETATM   24  O   UNK N   1      33.199  14.949   6.998  0.00  0.00    -0.363 OA
BRANCH  20  25
HETATM   25  O   UNK N   1      32.095  13.469   9.296  0.00  0.00    -0.389 OA
HETATM   26  H   UNK N   1      32.655  12.721   9.035  0.00  0.00     0.210 HD
ENDBRANCH  20  25
BRANCH  21  27
HETATM   27  O   UNK N   1      33.671  14.824  11.141  0.00  0.00    -0.390 OA
HETATM   28  H   UNK N   1      32.909  14.680  11.722  0.00  0.00     0.210 HD
ENDBRANCH  21  27
BRANCH  22  29
HETATM   29  O   UNK N   1      34.725  13.427   8.931  0.00  0.00    -0.390 OA
HETATM   30  H   UNK N   1      35.356  12.769   9.261  0.00  0.00     0.210 HD
ENDBRANCH  22  29
BRANCH  23  31
HETATM   31  C   UNK N   1      35.567  14.984   6.597  0.00  0.00     0.198 C 
BRANCH  31  32
HETATM   32  O   UNK N   1      35.317  13.745   5.999  0.00  0.00    -0.398 OA
HETATM   33  H   UNK N   1      35.743  12.884   5.864  0.00  0.00     0.209 HD
ENDBRANCH  31  32
ENDBRANCH  23  31
ENDBRANCH  18  19
ENDBRANCH  11  18
BRANCH  12  34
HETATM   34  C   UNK N   1      28.460  18.474   7.695  0.00  0.00     0.197 C 
BRANCH  34  35
HETATM   35  O   UNK N   1      27.461  17.609   8.145  0.00  0.00    -0.398 OA
HETATM   36  H   UNK N   1      27.037  16.737   8.122  0.00  0.00     0.209 HD
ENDBRANCH  34  35
ENDBRANCH  12  34
ENDBRANCH   7   8
ENDBRANCH   4   7
BRANCH   1  37
HETATM   37  C   UNK N   1      24.418  16.359   5.438  0.00  0.00     0.198 C 
BRANCH  37  38
HETATM   38  O   UNK N   1      25.352  16.260   6.469  0.00  0.00    -0.398 OA
HETATM   39  H   UNK N   1      25.858  17.027   6.777  0.00  0.00     0.209 HD
ENDBRANCH  37  38
ENDBRANCH   1  37
BRANCH   2  40
HETATM   40  O   UNK N   1      27.681  13.297   3.161  0.00  0.00    -0.390 OA
HETATM   41  H   UNK N   1      28.449  13.280   3.754  0.00  0.00     0.210 HD
ENDBRANCH   2  40
BRANCH   3  42
HETATM   42  O   UNK N   1      24.915  11.974   2.711  0.00  0.00    -0.389 OA
HETATM   43  H   UNK N   1      24.949  11.789   1.759  0.00  0.00     0.210 HD
ENDBRANCH   3  42
BRANCH   5  44
HETATM   44  S   UNK N   1      23.269  11.895   5.195  0.00  0.00    -0.124 SA
BRANCH  44  45
HETATM   45  C   UNK N   1      21.796  12.817   4.616  0.00  0.00     0.112 C 
HETATM   46  C   UNK N   1      21.484  12.699   3.063  0.00  0.00     0.164 C 
HETATM   47  O   UNK N   1      20.215  13.261   2.681  0.00  0.00    -0.350 OA
HETATM   48  C   UNK N   1      19.829  14.338   3.517  0.00  0.00     0.292 C 
HETATM   49  C   UNK N   1      19.412  13.753   4.893  0.00  0.00     0.203 C 
HETATM   50  C   UNK N   1      20.464  12.714   5.409  0.00  0.00     0.168 C 
BRANCH  46  51
HETATM   51  C   UNK N   1      21.489  11.263   2.549  0.00  0.00     0.197 C 
BRANCH  51  52
HETATM   52  O   UNK N   1      22.540  11.068   1.648  0.00  0.00    -0.398 OA
HETATM   53  H   UNK N   1      23.201  11.744   1.430  0.00  0.00     0.209 HD
ENDBRANCH  51  52
ENDBRANCH  46  51
BRANCH  48  54
HETATM   54  O   UNK N   1      20.959  15.135   3.742  0.00  0.00    -0.348 OA
BRANCH  54  55
HETATM   55  C   UNK N   1      21.236  16.309   3.065  0.00  0.00     0.187 C 
HETATM   56  C   UNK N   1      20.014  16.713   2.182  0.00  0.00     0.178 C 
HETATM   57  O   UNK N   1      19.803  18.122   2.032  0.00  0.00    -0.363 OA
HETATM   58  C   UNK N   1      20.987  18.866   2.232  0.00  0.00     0.212 C 
HETATM   59  C   UNK N   1      21.514  18.747   3.682  0.00  0.00     0.188 C 
HETATM   60  C   UNK N   1      21.312  17.325   4.214  0.00  0.00     0.181 C 
BRANCH  56  61
HETATM   61  C   UNK N   1      20.078  16.015   0.829  0.00  0.00     0.198 C 
BRANCH  61  62
HETATM   62  O   UNK N   1      21.292  15.342   0.687  0.00  0.00    -0.398 OA
HETATM   63  H   UNK N   1      22.176  15.665   0.920  0.00  0.00     0.209 HD
ENDBRANCH  61  62
ENDBRANCH  56  61
BRANCH  58  64
HETATM   64  S   UNK N   1      20.702  20.604   1.778  0.00  0.00    -0.148 SA
HETATM   65  H   UNK N   1      21.655  21.535   1.503  0.00  0.00     0.104 HD
ENDBRANCH  58  64
BRANCH  59  66
HETATM   66  O   UNK N   1      20.891  19.652   4.551  0.00  0.00    -0.389 OA
HETATM   67  H   UNK N   1      20.818  20.341   5.229  0.00  0.00     0.210 HD
ENDBRANCH  59  66
BRANCH  60  68
HETATM   68  O   UNK N   1      20.107  17.263   4.935  0.00  0.00    -0.390 OA
HETATM   69  H   UNK N   1      19.390  16.761   5.352  0.00  0.00     0.210 HD
ENDBRANCH  60  68
ENDBRANCH  54  55
ENDBRANCH  48  54
BRANCH  49  70
HETATM   70  O   UNK N   1      19.252  14.799   5.804  0.00  0.00    -0.388 OA
HETATM   71  H   UNK N   1      19.652  15.679   5.883  0.00  0.00     0.210 HD
ENDBRANCH  49  70
BRANCH  50  72
HETATM   72  O   UNK N   1      20.680  12.866   6.783  0.00  0.00    -0.392 OA
HETATM   73  H   UNK N   1      21.150  13.196   7.566  0.00  0.00     0.210 HD
ENDBRANCH  50  72
ENDBRANCH  44  45
ENDBRANCH   5  44
TORSDOF 30
ENDMDL
