REMARK  7 active torsions:
REMARK  status: ('A' for Active; 'I' for Inactive)
REMARK    1  A    between atoms: O_1  and  C_2 
REMARK    2  A    between atoms: C_2  and  C_4 
REMARK    3  A    between atoms: C_4  and  N_5 
REMARK       I    between atoms: N_5  and  C_6 
REMARK    4  A    between atoms: C_6  and  C_8 
REMARK    5  A    between atoms: C_14  and  C_15 
REMARK    6  A    between atoms: C_18  and  O_19 
REMARK    7  A    between atoms: O_19  and  C_20 
ROOT
HETATM    1  C   UNK N   1       4.840   4.416  -0.254  0.00  0.00     0.110 C 
HETATM    2  C   UNK N   1       6.025   5.047  -0.070  0.00  0.00     0.048 C 
ENDROOT
BRANCH   1   3
HETATM    3  C   UNK N   1       3.596   5.232  -0.305  0.00  0.00     0.193 C 
HETATM    4  O   UNK N   1       2.529   4.728  -0.607  0.00  0.00    -0.645 OA
BRANCH   3   5
HETATM    5  O   UNK N   1       3.653   6.559  -0.074  0.00  0.00    -0.772 OA
HETATM    6  H   UNK N   1       4.472   6.985   0.086  0.00  0.00     0.167 HD
ENDBRANCH   3   5
ENDBRANCH   1   3
BRANCH   1   7
HETATM    7  N   UNK N   1       4.836   2.987  -0.378  0.00  0.00    -0.317 N 
HETATM    8  C   UNK N   1       3.878   2.092  -0.027  0.00  0.00     0.256 C 
HETATM    9  O   UNK N   1       2.842   2.456   0.511  0.00  0.00    -0.267 OA
HETATM   10  H   UNK N   1       5.647   2.598  -0.778  0.00  0.00     0.169 HD
BRANCH   8  11
HETATM   11  C   UNK N   1       4.143   0.645  -0.210  0.00  0.00     0.032 A 
HETATM   12  C   UNK N   1       5.369   0.214  -0.746  0.00  0.00     0.017 A 
HETATM   13  C   UNK N   1       5.636  -1.151  -0.894  0.00  0.00     0.001 A 
HETATM   14  C   UNK N   1       4.681  -2.095  -0.509  0.00  0.00     0.000 A 
HETATM   15  C   UNK N   1       3.459  -1.675   0.025  0.00  0.00     0.001 A 
HETATM   16  C   UNK N   1       3.192  -0.310   0.176  0.00  0.00     0.017 A 
ENDBRANCH   8  11
ENDBRANCH   1   7
BRANCH   2  17
HETATM   17  C   UNK N   1       7.325   4.330  -0.062  0.00  0.00    -0.034 A 
HETATM   18  C   UNK N   1       8.393   4.788   0.725  0.00  0.00     0.014 A 
HETATM   19  C   UNK N   1       9.562   4.014   0.839  0.00  0.00     0.038 A 
HETATM   20  C   UNK N   1       9.656   2.785   0.169  0.00  0.00     0.076 A 
HETATM   21  C   UNK N   1       8.616   2.385  -0.678  0.00  0.00     0.038 A 
HETATM   22  C   UNK N   1       7.471   3.145  -0.787  0.00  0.00     0.014 A 
BRANCH  20  23
HETATM   23  O   UNK N   1      10.727   1.972   0.352  0.00  0.00    -0.309 OA
BRANCH  23  24
HETATM   24  C   UNK N   1      10.671   0.637   0.088  0.00  0.00     0.093 A 
HETATM   25  C   UNK N   1      11.612   0.081  -0.784  0.00  0.00     0.039 A 
HETATM   26  C   UNK N   1      11.546  -1.273  -1.126  0.00  0.00     0.003 A 
HETATM   27  C   UNK N   1      10.543  -2.084  -0.592  0.00  0.00     0.002 A 
HETATM   28  C   UNK N   1       9.615  -1.550   0.301  0.00  0.00     0.022 A 
HETATM   29  C   UNK N   1       9.667  -0.198   0.651  0.00  0.00     0.044 A 
HETATM   30 Br   UNK N   1       8.373   0.437   1.921  0.00  0.00    -0.048 Br
ENDBRANCH  23  24
ENDBRANCH  20  23
ENDBRANCH   2  17
TORSDOF 7
