MODEL 1
REMARK VINA RESULT:      -5.4      0.000      0.000
REMARK  6 active torsions:
REMARK  status: ('A' for Active; 'I' for Inactive)
REMARK    1  A    between atoms: C_3  and  C_1 
REMARK    2  A    between atoms: N_10  and  C_1 
REMARK    3  A    between atoms: C_6  and  C_2 
REMARK    4  A    between atoms: N_7  and  C_2 
REMARK    5  A    between atoms: O_12  and  C_3 
REMARK    6  A    between atoms: C_6  and  O_15 
ROOT
HETATM    1  C   UNK N   1      34.463  18.152   8.309  0.00  0.00     0.313 A 
HETATM    2  C   UNK N   1      33.943  17.611   7.096  0.00  0.00     0.316 A 
HETATM    3  C   UNK N   1      33.008  16.471   8.860  0.00  0.00     0.245 A 
HETATM    4  N   UNK N   1      33.934  17.491   9.352  0.00  0.00    -0.302 N 
ATOM      5  HN  UNK N   1      34.144  17.671  10.333  1.00  0.00     0.167 HD
HETATM    6  N   UNK N   1      33.096  16.616   7.405  0.00  0.00    -0.283 N 
HETATM    7  O   UNK N   1      35.243  19.084   8.419  0.00  0.00    -0.262 OA
HETATM    8  O   UNK N   1      34.187  17.992   5.961  0.00  0.00    -0.262 OA
ENDROOT
BRANCH   3   9
HETATM    9  C   UNK N   1      33.444  15.084   9.329  0.00  0.00     0.315 C 
BRANCH   9  10
HETATM   10  N   UNK N   1      33.292  14.953  10.770  0.00  0.00    -0.073 N 
HETATM   11  H   UNK N   1      33.845  14.317  11.345  0.00  0.00     0.274 HD
HETATM   12  H   UNK N   1      32.591  15.531  11.234  0.00  0.00     0.274 HD
HETATM   13  H   UNK N   1      33.148  14.897  11.779  0.00  0.00     0.274 HD
ENDBRANCH   9  10
ENDBRANCH   3   9
BRANCH   3  14
HETATM   14  O   UNK N   1      31.716  16.757   9.304  0.00  0.00    -0.352 OA
HETATM   15  H   UNK N   1      31.211  17.229   9.986  0.00  0.00     0.214 HD
ENDBRANCH   3  14
BRANCH   6  16
HETATM   16  C   UNK N   1      32.323  15.853   6.446  0.00  0.00     0.241 C 
BRANCH  16  17
HETATM   17  C   UNK N   1      31.141  16.628   5.948  0.00  0.00     0.158 C 
HETATM   18  O   UNK N   1      30.097  16.608   6.579  0.00  0.00    -0.649 OA
BRANCH  17  19
HETATM   19  O   UNK N   1      31.228  17.365   4.825  0.00  0.00    -0.775 OA
HETATM   20  H   UNK N   1      31.767  18.123   4.712  0.00  0.00     0.167 HD
ENDBRANCH  17  19
ENDBRANCH  16  17
ENDBRANCH   6  16
TORSDOF 6
ENDMDL
MODEL 2
REMARK VINA RESULT:      -5.3      2.191      3.751
REMARK  6 active torsions:
REMARK  status: ('A' for Active; 'I' for Inactive)
REMARK    1  A    between atoms: C_3  and  C_1 
REMARK    2  A    between atoms: N_10  and  C_1 
REMARK    3  A    between atoms: C_6  and  C_2 
REMARK    4  A    between atoms: N_7  and  C_2 
REMARK    5  A    between atoms: O_12  and  C_3 
REMARK    6  A    between atoms: C_6  and  O_15 
ROOT
HETATM    1  C   UNK N   1      35.028  15.077  10.919  0.00  0.00     0.313 A 
HETATM    2  C   UNK N   1      34.926  16.370  10.325  0.00  0.00     0.316 A 
HETATM    3  C   UNK N   1      33.161  15.092   9.593  0.00  0.00     0.245 A 
HETATM    4  N   UNK N   1      34.008  14.313  10.495  0.00  0.00    -0.302 N 
ATOM      5  HN  UNK N   1      33.848  13.341  10.761  1.00  0.00     0.167 HD
HETATM    6  N   UNK N   1      33.840  16.388   9.534  0.00  0.00    -0.283 N 
HETATM    7  O   UNK N   1      35.877  14.702  11.712  0.00  0.00    -0.262 OA
HETATM    8  O   UNK N   1      35.668  17.323  10.511  0.00  0.00    -0.262 OA
ENDROOT
BRANCH   3   9
HETATM    9  C   UNK N   1      33.081  14.420   8.223  0.00  0.00     0.315 C 
BRANCH   9  10
HETATM   10  N   UNK N   1      32.681  13.027   8.352  0.00  0.00    -0.073 N 
HETATM   11  H   UNK N   1      31.932  12.705   8.964  0.00  0.00     0.274 HD
HETATM   12  H   UNK N   1      33.179  12.331   7.796  0.00  0.00     0.274 HD
HETATM   13  H   UNK N   1      32.437  12.038   8.407  0.00  0.00     0.274 HD
ENDBRANCH   9  10
ENDBRANCH   3   9
BRANCH   3  14
HETATM   14  O   UNK N   1      31.887  15.230  10.148  0.00  0.00    -0.352 OA
HETATM   15  H   UNK N   1      31.038  15.690  10.049  0.00  0.00     0.214 HD
ENDBRANCH   3  14
BRANCH   6  16
HETATM   16  C   UNK N   1      33.366  17.542   8.798  0.00  0.00     0.241 C 
BRANCH  16  17
HETATM   17  C   UNK N   1      34.443  18.127   7.935  0.00  0.00     0.158 C 
HETATM   18  O   UNK N   1      34.613  17.694   6.807  0.00  0.00    -0.649 OA
BRANCH  17  19
HETATM   19  O   UNK N   1      35.206  19.141   8.384  0.00  0.00    -0.775 OA
HETATM   20  H   UNK N   1      36.080  19.329   8.103  0.00  0.00     0.167 HD
ENDBRANCH  17  19
ENDBRANCH  16  17
ENDBRANCH   6  16
TORSDOF 6
ENDMDL
MODEL 3
REMARK VINA RESULT:      -5.0     12.421     13.757
REMARK  6 active torsions:
REMARK  status: ('A' for Active; 'I' for Inactive)
REMARK    1  A    between atoms: C_3  and  C_1 
REMARK    2  A    between atoms: N_10  and  C_1 
REMARK    3  A    between atoms: C_6  and  C_2 
REMARK    4  A    between atoms: N_7  and  C_2 
REMARK    5  A    between atoms: O_12  and  C_3 
REMARK    6  A    between atoms: C_6  and  O_15 
ROOT
HETATM    1  C   UNK N   1      21.225  15.888   1.404  0.00  0.00     0.313 A 
HETATM    2  C   UNK N   1      20.592  17.101   1.000  0.00  0.00     0.316 A 
HETATM    3  C   UNK N   1      21.186  17.294   3.212  0.00  0.00     0.245 A 
HETATM    4  N   UNK N   1      21.571  15.980   2.699  0.00  0.00    -0.302 N 
ATOM      5  HN  UNK N   1      22.031  15.248   3.240  1.00  0.00     0.167 HD
HETATM    6  N   UNK N   1      20.552  17.931   2.056  0.00  0.00    -0.283 N 
HETATM    7  O   UNK N   1      21.456  14.916   0.704  0.00  0.00    -0.262 OA
HETATM    8  O   UNK N   1      20.177  17.374  -0.117  0.00  0.00    -0.262 OA
ENDROOT
BRANCH   3   9
HETATM    9  C   UNK N   1      20.223  17.146   4.389  0.00  0.00     0.315 C 
BRANCH   9  10
HETATM   10  N   UNK N   1      19.112  16.272   4.043  0.00  0.00    -0.073 N 
HETATM   11  H   UNK N   1      18.766  16.142   3.092  0.00  0.00     0.274 HD
HETATM   12  H   UNK N   1      18.652  15.760   4.795  0.00  0.00     0.274 HD
HETATM   13  H   UNK N   1      18.329  15.648   3.850  0.00  0.00     0.274 HD
ENDBRANCH   9  10
ENDBRANCH   3   9
BRANCH   3  14
HETATM   14  O   UNK N   1      22.327  18.000   3.597  0.00  0.00    -0.352 OA
HETATM   15  H   UNK N   1      22.983  18.098   4.306  0.00  0.00     0.214 HD
ENDBRANCH   3  14
BRANCH   6  16
HETATM   16  C   UNK N   1      20.034  19.283   2.032  0.00  0.00     0.241 C 
BRANCH  16  17
HETATM   17  C   UNK N   1      20.933  20.206   1.266  0.00  0.00     0.158 C 
HETATM   18  O   UNK N   1      21.928  20.662   1.804  0.00  0.00    -0.649 OA
BRANCH  17  19
HETATM   19  O   UNK N   1      20.665  20.516  -0.016  0.00  0.00    -0.775 OA
HETATM   20  H   UNK N   1      20.068  21.180  -0.302  0.00  0.00     0.167 HD
ENDBRANCH  17  19
ENDBRANCH  16  17
ENDBRANCH   6  16
TORSDOF 6
ENDMDL
MODEL 4
REMARK VINA RESULT:      -5.0     10.676     12.482
REMARK  6 active torsions:
REMARK  status: ('A' for Active; 'I' for Inactive)
REMARK    1  A    between atoms: C_3  and  C_1 
REMARK    2  A    between atoms: N_10  and  C_1 
REMARK    3  A    between atoms: C_6  and  C_2 
REMARK    4  A    between atoms: N_7  and  C_2 
REMARK    5  A    between atoms: O_12  and  C_3 
REMARK    6  A    between atoms: C_6  and  O_15 
ROOT
HETATM    1  C   UNK N   1      23.853  19.205   3.893  0.00  0.00     0.313 A 
HETATM    2  C   UNK N   1      23.228  20.155   3.031  0.00  0.00     0.316 A 
HETATM    3  C   UNK N   1      21.604  18.775   3.891  0.00  0.00     0.245 A 
HETATM    4  N   UNK N   1      22.918  18.383   4.399  0.00  0.00    -0.302 N 
ATOM      5  HN  UNK N   1      23.097  17.609   5.037  1.00  0.00     0.167 HD
HETATM    6  N   UNK N   1      21.909  19.905   3.012  0.00  0.00    -0.283 N 
HETATM    7  O   UNK N   1      25.040  19.140   4.172  0.00  0.00    -0.262 OA
HETATM    8  O   UNK N   1      23.774  21.066   2.428  0.00  0.00    -0.262 OA
ENDROOT
BRANCH   3   9
HETATM    9  C   UNK N   1      20.957  17.614   3.136  0.00  0.00     0.315 C 
BRANCH   9  10
HETATM   10  N   UNK N   1      19.507  17.723   3.160  0.00  0.00    -0.073 N 
HETATM   11  H   UNK N   1      18.897  17.355   2.430  0.00  0.00     0.274 HD
HETATM   12  H   UNK N   1      19.074  18.196   3.954  0.00  0.00     0.274 HD
HETATM   13  H   UNK N   1      18.494  17.825   3.222  0.00  0.00     0.274 HD
ENDBRANCH   9  10
ENDBRANCH   3   9
BRANCH   3  14
HETATM   14  O   UNK N   1      20.794  19.183   4.952  0.00  0.00    -0.352 OA
HETATM   15  H   UNK N   1      20.802  19.430   5.891  0.00  0.00     0.214 HD
ENDBRANCH   3  14
BRANCH   6  16
HETATM   16  C   UNK N   1      20.924  20.688   2.293  0.00  0.00     0.241 C 
BRANCH  16  17
HETATM   17  C   UNK N   1      20.893  20.334   0.837  0.00  0.00     0.158 C 
HETATM   18  O   UNK N   1      21.315  21.129   0.014  0.00  0.00    -0.649 OA
BRANCH  17  19
HETATM   19  O   UNK N   1      20.427  19.138   0.433  0.00  0.00    -0.775 OA
HETATM   20  H   UNK N   1      20.391  18.839  -0.455  0.00  0.00     0.167 HD
ENDBRANCH  17  19
ENDBRANCH  16  17
ENDBRANCH   6  16
TORSDOF 6
ENDMDL
MODEL 5
REMARK VINA RESULT:      -4.9      2.764      4.061
REMARK  6 active torsions:
REMARK  status: ('A' for Active; 'I' for Inactive)
REMARK    1  A    between atoms: C_3  and  C_1 
REMARK    2  A    between atoms: N_10  and  C_1 
REMARK    3  A    between atoms: C_6  and  C_2 
REMARK    4  A    between atoms: N_7  and  C_2 
REMARK    5  A    between atoms: O_12  and  C_3 
REMARK    6  A    between atoms: C_6  and  O_15 
ROOT
HETATM    1  C   UNK N   1      36.220  14.120   8.529  0.00  0.00     0.313 A 
HETATM    2  C   UNK N   1      35.273  15.092   8.088  0.00  0.00     0.316 A 
HETATM    3  C   UNK N   1      35.733  15.480  10.306  0.00  0.00     0.245 A 
HETATM    4  N   UNK N   1      36.494  14.327   9.828  0.00  0.00    -0.302 N 
ATOM      5  HN  UNK N   1      37.133  13.767  10.392  1.00  0.00     0.167 HD
HETATM    6  N   UNK N   1      34.970  15.890   9.125  0.00  0.00    -0.283 N 
HETATM    7  O   UNK N   1      36.739  13.246   7.854  0.00  0.00    -0.262 OA
HETATM    8  O   UNK N   1      34.825  15.217   6.958  0.00  0.00    -0.262 OA
ENDROOT
BRANCH   3   9
HETATM    9  C   UNK N   1      34.826  15.076  11.467  0.00  0.00     0.315 C 
BRANCH   9  10
HETATM   10  N   UNK N   1      34.449  13.674  11.367  0.00  0.00    -0.073 N 
HETATM   11  H   UNK N   1      34.787  12.948  11.999  0.00  0.00     0.274 HD
HETATM   12  H   UNK N   1      33.808  13.402  10.622  0.00  0.00     0.274 HD
HETATM   13  H   UNK N   1      34.155  12.704  11.256  0.00  0.00     0.274 HD
ENDBRANCH   9  10
ENDBRANCH   3   9
BRANCH   3  14
HETATM   14  O   UNK N   1      36.612  16.492  10.698  0.00  0.00    -0.352 OA
HETATM   15  H   UNK N   1      36.657  17.413  10.999  0.00  0.00     0.214 HD
ENDBRANCH   3  14
BRANCH   6  16
HETATM   16  C   UNK N   1      34.084  17.034   9.064  0.00  0.00     0.241 C 
BRANCH  16  17
HETATM   17  C   UNK N   1      34.690  18.161   8.284  0.00  0.00     0.158 C 
HETATM   18  O   UNK N   1      35.394  18.978   8.853  0.00  0.00    -0.649 OA
BRANCH  17  19
HETATM   19  O   UNK N   1      34.484  18.265   6.958  0.00  0.00    -0.775 OA
HETATM   20  H   UNK N   1      34.415  17.547   6.360  0.00  0.00     0.167 HD
ENDBRANCH  17  19
ENDBRANCH  16  17
ENDBRANCH   6  16
TORSDOF 6
ENDMDL
MODEL 6
REMARK VINA RESULT:      -4.9      2.235      2.708
REMARK  6 active torsions:
REMARK  status: ('A' for Active; 'I' for Inactive)
REMARK    1  A    between atoms: C_3  and  C_1 
REMARK    2  A    between atoms: N_10  and  C_1 
REMARK    3  A    between atoms: C_6  and  C_2 
REMARK    4  A    between atoms: N_7  and  C_2 
REMARK    5  A    between atoms: O_12  and  C_3 
REMARK    6  A    between atoms: C_6  and  O_15 
ROOT
HETATM    1  C   UNK N   1      34.814  17.925   8.586  0.00  0.00     0.313 A 
HETATM    2  C   UNK N   1      34.514  16.862   7.683  0.00  0.00     0.316 A 
HETATM    3  C   UNK N   1      34.797  15.973   9.784  0.00  0.00     0.245 A 
HETATM    4  N   UNK N   1      34.991  17.422   9.819  0.00  0.00    -0.302 N 
ATOM      5  HN  UNK N   1      35.224  17.966  10.650  1.00  0.00     0.167 HD
HETATM    6  N   UNK N   1      34.512  15.709   8.372  0.00  0.00    -0.283 N 
HETATM    7  O   UNK N   1      34.878  19.115   8.319  0.00  0.00    -0.262 OA
HETATM    8  O   UNK N   1      34.267  16.962   6.490  0.00  0.00    -0.262 OA
ENDROOT
BRANCH   3   9
HETATM    9  C   UNK N   1      36.057  15.255  10.264  0.00  0.00     0.315 C 
BRANCH   9  10
HETATM   10  N   UNK N   1      36.352  15.593  11.647  0.00  0.00    -0.073 N 
HETATM   11  H   UNK N   1      35.914  16.365  12.150  0.00  0.00     0.274 HD
HETATM   12  H   UNK N   1      37.036  15.023  12.145  0.00  0.00     0.274 HD
HETATM   13  H   UNK N   1      36.592  15.790  12.619  0.00  0.00     0.274 HD
ENDBRANCH   9  10
ENDBRANCH   3   9
BRANCH   3  14
HETATM   14  O   UNK N   1      33.701  15.628  10.578  0.00  0.00    -0.352 OA
HETATM   15  H   UNK N   1      33.001  15.992  11.143  0.00  0.00     0.214 HD
ENDBRANCH   3  14
BRANCH   6  16
HETATM   16  C   UNK N   1      34.197  14.409   7.817  0.00  0.00     0.241 C 
BRANCH  16  17
HETATM   17  C   UNK N   1      32.753  14.059   8.015  0.00  0.00     0.158 C 
HETATM   18  O   UNK N   1      31.948  14.297   7.129  0.00  0.00    -0.649 OA
BRANCH  17  19
HETATM   19  O   UNK N   1      32.341  13.465   9.149  0.00  0.00    -0.775 OA
HETATM   20  H   UNK N   1      32.577  12.602   9.428  0.00  0.00     0.167 HD
ENDBRANCH  17  19
ENDBRANCH  16  17
ENDBRANCH   6  16
TORSDOF 6
ENDMDL
MODEL 7
REMARK VINA RESULT:      -4.8      2.655      4.451
REMARK  6 active torsions:
REMARK  status: ('A' for Active; 'I' for Inactive)
REMARK    1  A    between atoms: C_3  and  C_1 
REMARK    2  A    between atoms: N_10  and  C_1 
REMARK    3  A    between atoms: C_6  and  C_2 
REMARK    4  A    between atoms: N_7  and  C_2 
REMARK    5  A    between atoms: O_12  and  C_3 
REMARK    6  A    between atoms: C_6  and  O_15 
ROOT
HETATM    1  C   UNK N   1      34.248  17.106   7.350  0.00  0.00     0.313 A 
HETATM    2  C   UNK N   1      34.651  17.151   8.718  0.00  0.00     0.316 A 
HETATM    3  C   UNK N   1      33.811  15.057   8.278  0.00  0.00     0.245 A 
HETATM    4  N   UNK N   1      33.746  15.890   7.077  0.00  0.00    -0.302 N 
ATOM      5  HN  UNK N   1      33.377  15.593   6.174  1.00  0.00     0.167 HD
HETATM    6  N   UNK N   1      34.389  15.958   9.278  0.00  0.00    -0.283 N 
HETATM    7  O   UNK N   1      34.356  17.999   6.526  0.00  0.00    -0.262 OA
HETATM    8  O   UNK N   1      35.175  18.092   9.296  0.00  0.00    -0.262 OA
ENDROOT
BRANCH   3   9
HETATM    9  C   UNK N   1      32.414  14.579   8.671  0.00  0.00     0.315 C 
BRANCH   9  10
HETATM   10  N   UNK N   1      32.436  13.178   9.063  0.00  0.00    -0.073 N 
HETATM   11  H   UNK N   1      31.899  12.797   9.842  0.00  0.00     0.274 HD
HETATM   12  H   UNK N   1      33.023  12.539   8.526  0.00  0.00     0.274 HD
HETATM   13  H   UNK N   1      32.485  12.187   9.299  0.00  0.00     0.274 HD
ENDBRANCH   9  10
ENDBRANCH   3   9
BRANCH   3  14
HETATM   14  O   UNK N   1      34.657  13.971   8.050  0.00  0.00    -0.352 OA
HETATM   15  H   UNK N   1      35.342  13.626   7.455  0.00  0.00     0.214 HD
ENDBRANCH   3  14
BRANCH   6  16
HETATM   16  C   UNK N   1      34.704  15.592  10.643  0.00  0.00     0.241 C 
BRANCH  16  17
HETATM   17  C   UNK N   1      36.134  15.165  10.783  0.00  0.00     0.158 C 
HETATM   18  O   UNK N   1      36.414  13.978  10.764  0.00  0.00    -0.649 OA
BRANCH  17  19
HETATM   19  O   UNK N   1      37.114  16.080  10.906  0.00  0.00    -0.775 OA
HETATM   20  H   UNK N   1      37.996  15.901  11.165  0.00  0.00     0.167 HD
ENDBRANCH  17  19
ENDBRANCH  16  17
ENDBRANCH   6  16
TORSDOF 6
ENDMDL
MODEL 8
REMARK VINA RESULT:      -4.8      1.538      1.964
REMARK  6 active torsions:
REMARK  status: ('A' for Active; 'I' for Inactive)
REMARK    1  A    between atoms: C_3  and  C_1 
REMARK    2  A    between atoms: N_10  and  C_1 
REMARK    3  A    between atoms: C_6  and  C_2 
REMARK    4  A    between atoms: N_7  and  C_2 
REMARK    5  A    between atoms: O_12  and  C_3 
REMARK    6  A    between atoms: C_6  and  O_15 
ROOT
HETATM    1  C   UNK N   1      34.776  16.977   9.729  0.00  0.00     0.313 A 
HETATM    2  C   UNK N   1      34.247  17.616   8.568  0.00  0.00     0.316 A 
HETATM    3  C   UNK N   1      32.952  15.775   9.038  0.00  0.00     0.245 A 
HETATM    4  N   UNK N   1      34.036  15.892  10.014  0.00  0.00    -0.302 N 
ATOM      5  HN  UNK N   1      34.203  15.251  10.789  1.00  0.00     0.167 HD
HETATM    6  N   UNK N   1      33.183  16.913   8.146  0.00  0.00    -0.283 N 
HETATM    7  O   UNK N   1      35.728  17.347  10.397  0.00  0.00    -0.262 OA
HETATM    8  O   UNK N   1      34.655  18.643   8.047  0.00  0.00    -0.262 OA
ENDROOT
BRANCH   3   9
HETATM    9  C   UNK N   1      33.040  14.438   8.303  0.00  0.00     0.315 C 
BRANCH   9  10
HETATM   10  N   UNK N   1      32.402  13.381   9.072  0.00  0.00    -0.073 N 
HETATM   11  H   UNK N   1      32.638  12.393   8.985  0.00  0.00     0.274 HD
HETATM   12  H   UNK N   1      31.676  13.644   9.739  0.00  0.00     0.274 HD
HETATM   13  H   UNK N   1      31.926  12.676   9.635  0.00  0.00     0.274 HD
ENDBRANCH   9  10
ENDBRANCH   3   9
BRANCH   3  14
HETATM   14  O   UNK N   1      31.722  15.901   9.686  0.00  0.00    -0.352 OA
HETATM   15  H   UNK N   1      30.825  16.259   9.594  0.00  0.00     0.214 HD
ENDBRANCH   3  14
BRANCH   6  16
HETATM   16  C   UNK N   1      32.341  17.273   7.023  0.00  0.00     0.241 C 
BRANCH  16  17
HETATM   17  C   UNK N   1      33.017  16.997   5.715  0.00  0.00     0.158 C 
HETATM   18  O   UNK N   1      32.733  15.989   5.089  0.00  0.00    -0.649 OA
BRANCH  17  19
HETATM   19  O   UNK N   1      33.917  17.863   5.213  0.00  0.00    -0.775 OA
HETATM   20  H   UNK N   1      34.056  18.038   4.303  0.00  0.00     0.167 HD
ENDBRANCH  17  19
ENDBRANCH  16  17
ENDBRANCH   6  16
TORSDOF 6
ENDMDL
MODEL 9
REMARK VINA RESULT:      -4.7     10.703     12.401
REMARK  6 active torsions:
REMARK  status: ('A' for Active; 'I' for Inactive)
REMARK    1  A    between atoms: C_3  and  C_1 
REMARK    2  A    between atoms: N_10  and  C_1 
REMARK    3  A    between atoms: C_6  and  C_2 
REMARK    4  A    between atoms: N_7  and  C_2 
REMARK    5  A    between atoms: O_12  and  C_3 
REMARK    6  A    between atoms: C_6  and  O_15 
ROOT
HETATM    1  C   UNK N   1      21.085  12.252  11.118  0.00  0.00     0.313 A 
HETATM    2  C   UNK N   1      20.728  13.161  10.078  0.00  0.00     0.316 A 
HETATM    3  C   UNK N   1      22.807  12.299   9.608  0.00  0.00     0.245 A 
HETATM    4  N   UNK N   1      22.303  11.745  10.864  0.00  0.00    -0.302 N 
ATOM      5  HN  UNK N   1      22.798  11.077  11.454  1.00  0.00     0.167 HD
HETATM    6  N   UNK N   1      21.736  13.207   9.191  0.00  0.00    -0.283 N 
HETATM    7  O   UNK N   1      20.405  11.941  12.082  0.00  0.00    -0.262 OA
HETATM    8  O   UNK N   1      19.679  13.780   9.974  0.00  0.00    -0.262 OA
ENDROOT
BRANCH   3   9
HETATM    9  C   UNK N   1      24.127  13.032   9.841  0.00  0.00     0.315 C 
BRANCH   9  10
HETATM   10  N   UNK N   1      24.841  12.467  10.976  0.00  0.00    -0.073 N 
HETATM   11  H   UNK N   1      24.413  12.288  11.884  0.00  0.00     0.274 HD
HETATM   12  H   UNK N   1      25.827  12.236  10.856  0.00  0.00     0.274 HD
HETATM   13  H   UNK N   1      25.384  12.069  11.742  0.00  0.00     0.274 HD
ENDBRANCH   9  10
ENDBRANCH   3   9
BRANCH   3  14
HETATM   14  O   UNK N   1      22.972  11.274   8.675  0.00  0.00    -0.352 OA
HETATM   15  H   UNK N   1      23.358  11.059   7.811  0.00  0.00     0.214 HD
ENDBRANCH   3  14
BRANCH   6  16
HETATM   16  C   UNK N   1      21.730  13.977   7.964  0.00  0.00     0.241 C 
BRANCH  16  17
HETATM   17  C   UNK N   1      20.756  13.422   6.969  0.00  0.00     0.158 C 
HETATM   18  O   UNK N   1      20.004  14.178   6.375  0.00  0.00    -0.649 OA
BRANCH  17  19
HETATM   19  O   UNK N   1      20.720  12.103   6.707  0.00  0.00    -0.775 OA
HETATM   20  H   UNK N   1      20.198  11.472   7.163  0.00  0.00     0.167 HD
ENDBRANCH  17  19
ENDBRANCH  16  17
ENDBRANCH   6  16
TORSDOF 6
ENDMDL
