REMARK  9 active torsions:
REMARK  status: ('A' for Active; 'I' for Inactive)
REMARK    1  A    between atoms: C_8  and  C_5 
REMARK    2  A    between atoms: C_9  and  C_5 
REMARK    3  A    between atoms: C_14  and  C_9 
REMARK    4  A    between atoms: C_9  and  N_15 
REMARK    5  A    between atoms: N_18  and  C_10 
REMARK    6  A    between atoms: O_21  and  C_12 
REMARK    7  A    between atoms: N_19  and  C_13 
REMARK    8  A    between atoms: O_23  and  C_14 
REMARK    9  A    between atoms: N_19  and  N_18 
ROOT
HETATM    1  C   UNK N   1      -1.130   6.166   0.116  0.00  0.00     0.020 C 
HETATM    2  C   UNK N   1      -3.434   7.877   0.038  0.00  0.00     0.089 C 
HETATM    3  C   UNK N   1      -0.875   7.642  -0.131  0.00  0.00     0.087 C 
HETATM    4  C   UNK N   1      -2.385   5.656   0.117  0.00  0.00     0.078 C 
HETATM    5  C   UNK N   1      -2.101   8.478   0.183  0.00  0.00     0.159 C 
HETATM    6  C   UNK N   1      -3.566   6.549  -0.018  0.00  0.00     0.097 C 
HETATM    7  O   UNK N   1      -2.006   9.639   0.545  0.00  0.00    -0.292 OA
ENDROOT
BRANCH   4   8
HETATM    8  N   UNK N   1      -2.612   4.257   0.214  0.00  0.00    -0.297 N 
HETATM    9  H   UNK N   1      -3.539   3.934   0.290  0.00  0.00     0.187 HD
BRANCH   8  10
HETATM   10  N   UNK N   1      -1.595   3.335   0.205  0.00  0.00    -0.285 N 
HETATM   11  H   UNK N   1      -0.659   3.637   0.249  0.00  0.00     0.188 HD
BRANCH  10  12
HETATM   12  C   UNK N   1      -1.886   1.949   0.132  0.00  0.00     0.119 A 
HETATM   13  C   UNK N   1      -3.217   1.503   0.090  0.00  0.00     0.050 A 
HETATM   14  C   UNK N   1      -3.482   0.137   0.003  0.00  0.00     0.005 A 
HETATM   15  C   UNK N   1      -2.425  -0.771  -0.045  0.00  0.00     0.017 A 
HETATM   16  C   UNK N   1      -1.112  -0.294  -0.003  0.00  0.00     0.089 A 
HETATM   17  N   UNK N   1      -0.872   1.044   0.084  0.00  0.00    -0.351 N 
ATOM     18  HN  UNK N   1       0.092   1.376   0.113  1.00  0.00     0.166 HD
ENDBRANCH  10  12
ENDBRANCH   8  10
ENDBRANCH   4   8
BRANCH   6  19
HETATM   19  O   UNK N   1      -4.796   6.015  -0.144  0.00  0.00    -0.358 OA
HETATM   20  H   UNK N   1      -5.546   6.570  -0.232  0.00  0.00     0.217 HD
ENDBRANCH   6  19
BRANCH   3  21
HETATM   21  C   UNK N   1       0.431   8.139   0.520  0.00  0.00     0.052 C 
BRANCH  21  22
HETATM   22  C   UNK N   1       1.166   9.210  -0.313  0.00  0.00     0.174 C 
BRANCH  22  23
HETATM   23  C   UNK N   1       2.495   9.548   0.307  0.00  0.00     0.163 C 
HETATM   24  O   UNK N   1       2.757  10.696   0.634  0.00  0.00    -0.648 OA
BRANCH  23  25
HETATM   25  O   UNK N   1       3.421   8.584   0.473  0.00  0.00    -0.775 OA
HETATM   26  H   UNK N   1       3.162   7.691   0.589  0.00  0.00     0.167 HD
ENDBRANCH  23  25
ENDBRANCH  22  23
BRANCH  22  27
HETATM   27  N   UNK N   1       0.358  10.412  -0.451  0.00  0.00    -0.418 N 
HETATM   28  H   UNK N   1       0.805  11.324  -0.547  0.00  0.00     0.150 HD
HETATM   29  H   UNK N   1      -0.660  10.343  -0.451  0.00  0.00     0.150 HD
ENDBRANCH  22  27
ENDBRANCH  21  22
ENDBRANCH   3  21
TORSDOF 9
