MODEL 1
REMARK VINA RESULT:      -7.7      0.000      0.000
REMARK  2 active torsions:
REMARK  status: ('A' for Active; 'I' for Inactive)
REMARK    1  A    between atoms: C_4  and  O_19 
REMARK    2  A    between atoms: C_17  and  O_20 
ROOT
HETATM    1  C   UNK N   1      35.182  11.040  17.182  0.00  0.00     0.022 C 
HETATM    2  C   UNK N   1      35.325  12.071  18.284  0.00  0.00    -0.038 C 
HETATM    3  C   UNK N   1      36.388  10.104  17.255  0.00  0.00     0.017 C 
HETATM    4  C   UNK N   1      35.682  11.680  19.523  0.00  0.00     0.114 C 
HETATM    5  C   UNK N   1      36.339   9.343  18.595  0.00  0.00     0.086 C 
HETATM    6  C   UNK N   1      36.051  10.262  19.762  0.00  0.00     0.182 C 
HETATM    7  C   UNK N   1      34.967  11.728  15.820  0.00  0.00    -0.002 C 
HETATM    8  C   UNK N   1      35.975  12.895  15.595  0.00  0.00    -0.005 C 
HETATM    9  C   UNK N   1      35.080  13.519  17.961  0.00  0.00     0.038 C 
HETATM   10  C   UNK N   1      35.900  13.947  16.731  0.00  0.00     0.010 C 
HETATM   11  C   UNK N   1      34.992  10.711  14.659  0.00  0.00     0.006 C 
HETATM   12  C   UNK N   1      34.738  11.389  13.303  0.00  0.00     0.012 C 
HETATM   13  C   UNK N   1      35.618  13.542  14.240  0.00  0.00     0.001 C 
HETATM   14  C   UNK N   1      35.723  12.544  13.090  0.00  0.00    -0.014 C 
HETATM   15  C   UNK N   1      36.453  14.709  13.751  0.00  0.00     0.008 C 
HETATM   16  C   UNK N   1      36.169  14.745  12.238  0.00  0.00     0.033 C 
HETATM   17  C   UNK N   1      35.445  13.432  11.881  0.00  0.00     0.126 C 
HETATM   18  O   UNK N   1      36.192   9.851  20.903  0.00  0.00    -0.290 OA
HETATM   19  C   UNK N   1      37.139  11.969  12.938  0.00  0.00     0.018 C 
ENDROOT
BRANCH   4  20
HETATM   20  O   UNK N   1      35.745  12.572  20.534  0.00  0.00    -0.357 OA
HETATM   21  H   UNK N   1      35.570  13.478  20.372  0.00  0.00     0.218 HD
ENDBRANCH   4  20
BRANCH  17  22
HETATM   22  O   UNK N   1      34.077  13.697  11.763  0.00  0.00    -0.395 OA
HETATM   23  H   UNK N   1      33.154  13.838  11.498  0.00  0.00     0.210 HD
ENDBRANCH  17  22
TORSDOF 2
ENDMDL
MODEL 2
REMARK VINA RESULT:      -7.6     14.068     16.978
REMARK  2 active torsions:
REMARK  status: ('A' for Active; 'I' for Inactive)
REMARK    1  A    between atoms: C_4  and  O_19 
REMARK    2  A    between atoms: C_17  and  O_20 
ROOT
HETATM    1  C   UNK N   1      21.721  15.138   6.910  0.00  0.00     0.022 C 
HETATM    2  C   UNK N   1      20.418  15.651   7.490  0.00  0.00    -0.038 C 
HETATM    3  C   UNK N   1      21.383  14.168   5.778  0.00  0.00     0.017 C 
HETATM    4  C   UNK N   1      19.429  16.045   6.664  0.00  0.00     0.114 C 
HETATM    5  C   UNK N   1      20.667  14.949   4.658  0.00  0.00     0.086 C 
HETATM    6  C   UNK N   1      19.582  15.854   5.199  0.00  0.00     0.182 C 
HETATM    7  C   UNK N   1      22.620  14.561   8.021  0.00  0.00    -0.002 C 
HETATM    8  C   UNK N   1      21.828  13.616   8.974  0.00  0.00    -0.005 C 
HETATM    9  C   UNK N   1      20.254  15.692   8.983  0.00  0.00     0.038 C 
HETATM   10  C   UNK N   1      20.605  14.330   9.606  0.00  0.00     0.010 C 
HETATM   11  C   UNK N   1      23.875  13.876   7.440  0.00  0.00     0.006 C 
HETATM   12  C   UNK N   1      24.793  13.335   8.548  0.00  0.00     0.012 C 
HETATM   13  C   UNK N   1      22.811  13.161  10.073  0.00  0.00     0.001 C 
HETATM   14  C   UNK N   1      24.009  12.416   9.490  0.00  0.00    -0.014 C 
HETATM   15  C   UNK N   1      22.311  12.211  11.145  0.00  0.00     0.008 C 
HETATM   16  C   UNK N   1      23.606  11.599  11.713  0.00  0.00     0.033 C 
HETATM   17  C   UNK N   1      24.748  11.980  10.752  0.00  0.00     0.126 C 
HETATM   18  O   UNK N   1      18.788  16.371   4.429  0.00  0.00    -0.290 OA
HETATM   19  C   UNK N   1      23.597  11.151   8.723  0.00  0.00     0.018 C 
ENDROOT
BRANCH   4  20
HETATM   20  O   UNK N   1      18.289  16.572   7.159  0.00  0.00    -0.357 OA
HETATM   21  H   UNK N   1      17.624  16.883   6.576  0.00  0.00     0.218 HD
ENDBRANCH   4  20
BRANCH  17  22
HETATM   22  O   UNK N   1      25.457  13.051  11.307  0.00  0.00    -0.395 OA
HETATM   23  H   UNK N   1      26.073  13.759  11.553  0.00  0.00     0.210 HD
ENDBRANCH  17  22
TORSDOF 2
ENDMDL
MODEL 3
REMARK VINA RESULT:      -7.5      1.564      6.569
REMARK  2 active torsions:
REMARK  status: ('A' for Active; 'I' for Inactive)
REMARK    1  A    between atoms: C_4  and  O_19 
REMARK    2  A    between atoms: C_17  and  O_20 
ROOT
HETATM    1  C   UNK N   1      35.130  13.050  15.934  0.00  0.00     0.022 C 
HETATM    2  C   UNK N   1      34.673  12.419  14.635  0.00  0.00    -0.038 C 
HETATM    3  C   UNK N   1      36.620  13.363  15.807  0.00  0.00     0.017 C 
HETATM    4  C   UNK N   1      35.054  12.958  13.460  0.00  0.00     0.114 C 
HETATM    5  C   UNK N   1      36.808  14.421  14.701  0.00  0.00     0.086 C 
HETATM    6  C   UNK N   1      36.018  14.088  13.454  0.00  0.00     0.182 C 
HETATM    7  C   UNK N   1      34.747  12.161  17.133  0.00  0.00    -0.002 C 
HETATM    8  C   UNK N   1      35.111  10.666  16.885  0.00  0.00    -0.005 C 
HETATM    9  C   UNK N   1      33.812  11.187  14.688  0.00  0.00     0.038 C 
HETATM   10  C   UNK N   1      34.449  10.120  15.594  0.00  0.00     0.010 C 
HETATM   11  C   UNK N   1      35.351  12.692  18.451  0.00  0.00     0.006 C 
HETATM   12  C   UNK N   1      34.937  11.829  19.655  0.00  0.00     0.012 C 
HETATM   13  C   UNK N   1      34.621   9.875  18.116  0.00  0.00     0.001 C 
HETATM   14  C   UNK N   1      35.285  10.358  19.403  0.00  0.00    -0.014 C 
HETATM   15  C   UNK N   1      34.857   8.377  18.157  0.00  0.00     0.008 C 
HETATM   16  C   UNK N   1      34.730   8.034  19.653  0.00  0.00     0.033 C 
HETATM   17  C   UNK N   1      34.739   9.367  20.426  0.00  0.00     0.126 C 
HETATM   18  O   UNK N   1      36.228  14.708  12.423  0.00  0.00    -0.290 OA
HETATM   19  C   UNK N   1      36.813  10.207  19.368  0.00  0.00     0.018 C 
ENDROOT
BRANCH   4  20
HETATM   20  O   UNK N   1      34.600  12.455  12.292  0.00  0.00    -0.357 OA
HETATM   21  H   UNK N   1      35.163  12.422  11.545  0.00  0.00     0.218 HD
ENDBRANCH   4  20
BRANCH  17  22
HETATM   22  O   UNK N   1      33.423   9.687  20.774  0.00  0.00    -0.395 OA
HETATM   23  H   UNK N   1      32.570   9.885  21.194  0.00  0.00     0.210 HD
ENDBRANCH  17  22
TORSDOF 2
ENDMDL
MODEL 4
REMARK VINA RESULT:      -7.1     21.783     25.343
REMARK  2 active torsions:
REMARK  status: ('A' for Active; 'I' for Inactive)
REMARK    1  A    between atoms: C_4  and  O_19 
REMARK    2  A    between atoms: C_17  and  O_20 
ROOT
HETATM    1  C   UNK N   1      29.692  22.187  -4.829  0.00  0.00     0.022 C 
HETATM    2  C   UNK N   1      29.607  22.797  -3.444  0.00  0.00    -0.038 C 
HETATM    3  C   UNK N   1      31.103  22.428  -5.364  0.00  0.00     0.017 C 
HETATM    4  C   UNK N   1      30.606  22.592  -2.562  0.00  0.00     0.114 C 
HETATM    5  C   UNK N   1      32.104  21.665  -4.473  0.00  0.00     0.086 C 
HETATM    6  C   UNK N   1      31.830  21.877  -2.999  0.00  0.00     0.182 C 
HETATM    7  C   UNK N   1      28.553  22.714  -5.724  0.00  0.00    -0.002 C 
HETATM    8  C   UNK N   1      28.404  24.261  -5.620  0.00  0.00    -0.005 C 
HETATM    9  C   UNK N   1      28.411  23.637  -3.091  0.00  0.00     0.038 C 
HETATM   10  C   UNK N   1      28.176  24.721  -4.158  0.00  0.00     0.010 C 
HETATM   11  C   UNK N   1      28.716  22.245  -7.186  0.00  0.00     0.006 C 
HETATM   12  C   UNK N   1      27.559  22.736  -8.073  0.00  0.00     0.012 C 
HETATM   13  C   UNK N   1      27.199  24.655  -6.500  0.00  0.00     0.001 C 
HETATM   14  C   UNK N   1      27.407  24.256  -7.959  0.00  0.00    -0.014 C 
HETATM   15  C   UNK N   1      26.823  26.122  -6.603  0.00  0.00     0.008 C 
HETATM   16  C   UNK N   1      25.979  26.187  -7.890  0.00  0.00     0.033 C 
HETATM   17  C   UNK N   1      26.166  24.845  -8.623  0.00  0.00     0.126 C 
HETATM   18  O   UNK N   1      32.657  21.517  -2.175  0.00  0.00    -0.290 OA
HETATM   19  C   UNK N   1      28.639  24.928  -8.583  0.00  0.00     0.018 C 
ENDROOT
BRANCH   4  20
HETATM   20  O   UNK N   1      30.517  23.066  -1.301  0.00  0.00    -0.357 OA
HETATM   21  H   UNK N   1      30.964  22.629  -0.603  0.00  0.00     0.218 HD
ENDBRANCH   4  20
BRANCH  17  22
HETATM   22  O   UNK N   1      25.044  24.046  -8.378  0.00  0.00    -0.395 OA
HETATM   23  H   UNK N   1      24.386  23.386  -8.105  0.00  0.00     0.210 HD
ENDBRANCH  17  22
TORSDOF 2
ENDMDL
MODEL 5
REMARK VINA RESULT:      -7.1      9.815     13.726
REMARK  2 active torsions:
REMARK  status: ('A' for Active; 'I' for Inactive)
REMARK    1  A    between atoms: C_4  and  O_19 
REMARK    2  A    between atoms: C_17  and  O_20 
ROOT
HETATM    1  C   UNK N   1      29.186  17.413   4.373  0.00  0.00     0.022 C 
HETATM    2  C   UNK N   1      28.029  17.724   5.301  0.00  0.00    -0.038 C 
HETATM    3  C   UNK N   1      28.951  16.025   3.777  0.00  0.00     0.017 C 
HETATM    4  C   UNK N   1      26.766  17.469   4.904  0.00  0.00     0.114 C 
HETATM    5  C   UNK N   1      27.676  16.071   2.910  0.00  0.00     0.086 C 
HETATM    6  C   UNK N   1      26.534  16.772   3.614  0.00  0.00     0.182 C 
HETATM    7  C   UNK N   1      30.531  17.594   5.103  0.00  0.00    -0.002 C 
HETATM    8  C   UNK N   1      30.524  16.916   6.506  0.00  0.00    -0.005 C 
HETATM    9  C   UNK N   1      28.321  18.298   6.659  0.00  0.00     0.038 C 
HETATM   10  C   UNK N   1      29.369  17.446   7.395  0.00  0.00     0.010 C 
HETATM   11  C   UNK N   1      31.716  17.118   4.236  0.00  0.00     0.006 C 
HETATM   12  C   UNK N   1      33.063  17.334   4.946  0.00  0.00     0.012 C 
HETATM   13  C   UNK N   1      31.888  17.223   7.159  0.00  0.00     0.001 C 
HETATM   14  C   UNK N   1      33.049  16.678   6.331  0.00  0.00    -0.014 C 
HETATM   15  C   UNK N   1      32.171  16.669   8.542  0.00  0.00     0.008 C 
HETATM   16  C   UNK N   1      33.708  16.718   8.641  0.00  0.00     0.033 C 
HETATM   17  C   UNK N   1      34.244  16.996   7.223  0.00  0.00     0.126 C 
HETATM   18  O   UNK N   1      25.406  16.701   3.151  0.00  0.00    -0.290 OA
HETATM   19  C   UNK N   1      32.982  15.153   6.158  0.00  0.00     0.018 C 
ENDROOT
BRANCH   4  20
HETATM   20  O   UNK N   1      25.719  17.805   5.686  0.00  0.00    -0.357 OA
HETATM   21  H   UNK N   1      24.860  17.871   5.317  0.00  0.00     0.218 HD
ENDBRANCH   4  20
BRANCH  17  22
HETATM   22  O   UNK N   1      34.584  18.351   7.135  0.00  0.00    -0.395 OA
HETATM   23  H   UNK N   1      34.735  19.304   7.243  0.00  0.00     0.210 HD
ENDBRANCH  17  22
TORSDOF 2
ENDMDL
MODEL 6
REMARK VINA RESULT:      -6.9     21.587     24.448
REMARK  2 active torsions:
REMARK  status: ('A' for Active; 'I' for Inactive)
REMARK    1  A    between atoms: C_4  and  O_19 
REMARK    2  A    between atoms: C_17  and  O_20 
ROOT
HETATM    1  C   UNK N   1      30.847  21.467  -5.096  0.00  0.00     0.022 C 
HETATM    2  C   UNK N   1      31.210  21.567  -3.628  0.00  0.00    -0.038 C 
HETATM    3  C   UNK N   1      31.970  22.117  -5.904  0.00  0.00     0.017 C 
HETATM    4  C   UNK N   1      32.462  21.267  -3.228  0.00  0.00     0.114 C 
HETATM    5  C   UNK N   1      33.260  21.296  -5.701  0.00  0.00     0.086 C 
HETATM    6  C   UNK N   1      33.500  20.963  -4.244  0.00  0.00     0.182 C 
HETATM    7  C   UNK N   1      29.441  22.045  -5.347  0.00  0.00    -0.002 C 
HETATM    8  C   UNK N   1      29.245  23.421  -4.642  0.00  0.00    -0.005 C 
HETATM    9  C   UNK N   1      30.163  22.017  -2.649  0.00  0.00     0.038 C 
HETATM   10  C   UNK N   1      29.510  23.329  -3.118  0.00  0.00     0.010 C 
HETATM   11  C   UNK N   1      29.115  22.116  -6.854  0.00  0.00     0.006 C 
HETATM   12  C   UNK N   1      27.697  22.654  -7.106  0.00  0.00     0.012 C 
HETATM   13  C   UNK N   1      27.790  23.859  -4.909  0.00  0.00     0.001 C 
HETATM   14  C   UNK N   1      27.504  24.001  -6.402  0.00  0.00    -0.014 C 
HETATM   15  C   UNK N   1      27.317  25.186  -4.347  0.00  0.00     0.008 C 
HETATM   16  C   UNK N   1      26.078  25.516  -5.201  0.00  0.00     0.033 C 
HETATM   17  C   UNK N   1      26.078  24.543  -6.396  0.00  0.00     0.126 C 
HETATM   18  O   UNK N   1      34.580  20.508  -3.900  0.00  0.00    -0.290 OA
HETATM   19  C   UNK N   1      28.404  25.048  -7.075  0.00  0.00     0.018 C 
ENDROOT
BRANCH   4  20
HETATM   20  O   UNK N   1      32.786  21.279  -1.917  0.00  0.00    -0.357 OA
HETATM   21  H   UNK N   1      33.571  21.704  -1.632  0.00  0.00     0.218 HD
ENDBRANCH   4  20
BRANCH  17  22
HETATM   22  O   UNK N   1      25.159  23.521  -6.135  0.00  0.00    -0.395 OA
HETATM   23  H   UNK N   1      24.432  22.944  -5.852  0.00  0.00     0.210 HD
ENDBRANCH  17  22
TORSDOF 2
ENDMDL
MODEL 7
REMARK VINA RESULT:      -6.9     22.534     25.391
REMARK  2 active torsions:
REMARK  status: ('A' for Active; 'I' for Inactive)
REMARK    1  A    between atoms: C_4  and  O_19 
REMARK    2  A    between atoms: C_17  and  O_20 
ROOT
HETATM    1  C   UNK N   1      27.865  25.107  -3.797  0.00  0.00     0.022 C 
HETATM    2  C   UNK N   1      26.662  24.985  -4.711  0.00  0.00    -0.038 C 
HETATM    3  C   UNK N   1      28.586  26.411  -4.138  0.00  0.00     0.017 C 
HETATM    4  C   UNK N   1      25.865  26.054  -4.913  0.00  0.00     0.114 C 
HETATM    5  C   UNK N   1      27.648  27.591  -3.812  0.00  0.00     0.086 C 
HETATM    6  C   UNK N   1      26.247  27.367  -4.336  0.00  0.00     0.182 C 
HETATM    7  C   UNK N   1      28.735  23.837  -3.873  0.00  0.00    -0.002 C 
HETATM    8  C   UNK N   1      28.985  23.395  -5.346  0.00  0.00    -0.005 C 
HETATM    9  C   UNK N   1      26.395  23.671  -5.389  0.00  0.00     0.038 C 
HETATM   10  C   UNK N   1      27.656  23.167  -6.111  0.00  0.00     0.010 C 
HETATM   11  C   UNK N   1      30.053  24.003  -3.087  0.00  0.00     0.006 C 
HETATM   12  C   UNK N   1      30.905  22.724  -3.128  0.00  0.00     0.012 C 
HETATM   13  C   UNK N   1      29.802  22.087  -5.288  0.00  0.00     0.001 C 
HETATM   14  C   UNK N   1      31.139  22.284  -4.577  0.00  0.00    -0.014 C 
HETATM   15  C   UNK N   1      30.208  21.427  -6.592  0.00  0.00     0.008 C 
HETATM   16  C   UNK N   1      31.379  20.513  -6.183  0.00  0.00     0.033 C 
HETATM   17  C   UNK N   1      31.790  20.916  -4.753  0.00  0.00     0.126 C 
HETATM   18  O   UNK N   1      25.452  28.294  -4.346  0.00  0.00    -0.290 OA
HETATM   19  C   UNK N   1      32.028  23.323  -5.275  0.00  0.00     0.018 C 
ENDROOT
BRANCH   4  20
HETATM   20  O   UNK N   1      24.750  25.947  -5.665  0.00  0.00    -0.357 OA
HETATM   21  H   UNK N   1      24.029  26.527  -5.519  0.00  0.00     0.218 HD
ENDBRANCH   4  20
BRANCH  17  22
HETATM   22  O   UNK N   1      31.247  19.988  -3.858  0.00  0.00    -0.395 OA
HETATM   23  H   UNK N   1      31.015  19.395  -3.125  0.00  0.00     0.210 HD
ENDBRANCH  17  22
TORSDOF 2
ENDMDL
MODEL 8
REMARK VINA RESULT:      -6.8      1.390      6.251
REMARK  2 active torsions:
REMARK  status: ('A' for Active; 'I' for Inactive)
REMARK    1  A    between atoms: C_4  and  O_19 
REMARK    2  A    between atoms: C_17  and  O_20 
ROOT
HETATM    1  C   UNK N   1      36.666  11.725  14.150  0.00  0.00     0.022 C 
HETATM    2  C   UNK N   1      36.586  13.237  14.082  0.00  0.00    -0.038 C 
HETATM    3  C   UNK N   1      35.479  11.156  13.374  0.00  0.00     0.017 C 
HETATM    4  C   UNK N   1      36.319  13.839  12.906  0.00  0.00     0.114 C 
HETATM    5  C   UNK N   1      35.628  11.549  11.890  0.00  0.00     0.086 C 
HETATM    6  C   UNK N   1      35.984  13.010  11.722  0.00  0.00     0.182 C 
HETATM    7  C   UNK N   1      36.779  11.253  15.613  0.00  0.00    -0.002 C 
HETATM    8  C   UNK N   1      35.745  11.968  16.533  0.00  0.00    -0.005 C 
HETATM    9  C   UNK N   1      36.792  14.033  15.340  0.00  0.00     0.038 C 
HETATM   10  C   UNK N   1      35.885  13.510  16.468  0.00  0.00     0.010 C 
HETATM   11  C   UNK N   1      36.687   9.717  15.724  0.00  0.00     0.006 C 
HETATM   12  C   UNK N   1      36.840   9.240  17.178  0.00  0.00     0.012 C 
HETATM   13  C   UNK N   1      36.001  11.466  17.970  0.00  0.00     0.001 C 
HETATM   14  C   UNK N   1      35.830   9.954  18.083  0.00  0.00    -0.014 C 
HETATM   15  C   UNK N   1      35.121  11.989  19.089  0.00  0.00     0.008 C 
HETATM   16  C   UNK N   1      35.301  10.944  20.206  0.00  0.00     0.033 C 
HETATM   17  C   UNK N   1      36.014   9.730  19.580  0.00  0.00     0.126 C 
HETATM   18  O   UNK N   1      35.925  13.521  10.614  0.00  0.00    -0.290 OA
HETATM   19  C   UNK N   1      34.414   9.493  17.708  0.00  0.00     0.018 C 
ENDROOT
BRANCH   4  20
HETATM   20  O   UNK N   1      36.315  15.186  12.809  0.00  0.00    -0.357 OA
HETATM   21  H   UNK N   1      37.121  15.651  12.702  0.00  0.00     0.218 HD
ENDBRANCH   4  20
BRANCH  17  22
HETATM   22  O   UNK N   1      37.368   9.782  19.928  0.00  0.00    -0.395 OA
HETATM   23  H   UNK N   1      38.251   9.733  20.329  0.00  0.00     0.210 HD
ENDBRANCH  17  22
TORSDOF 2
ENDMDL
MODEL 9
REMARK VINA RESULT:      -6.5      1.899      2.783
REMARK  2 active torsions:
REMARK  status: ('A' for Active; 'I' for Inactive)
REMARK    1  A    between atoms: C_4  and  O_19 
REMARK    2  A    between atoms: C_17  and  O_20 
ROOT
HETATM    1  C   UNK N   1      34.991  11.566  16.680  0.00  0.00     0.022 C 
HETATM    2  C   UNK N   1      35.308  13.038  16.847  0.00  0.00    -0.038 C 
HETATM    3  C   UNK N   1      35.809  10.788  17.711  0.00  0.00     0.017 C 
HETATM    4  C   UNK N   1      35.348  13.577  18.082  0.00  0.00     0.114 C 
HETATM    5  C   UNK N   1      35.335  11.195  19.122  0.00  0.00     0.086 C 
HETATM    6  C   UNK N   1      35.203  12.695  19.267  0.00  0.00     0.182 C 
HETATM    7  C   UNK N   1      35.197  11.130  15.216  0.00  0.00    -0.002 C 
HETATM    8  C   UNK N   1      36.548  11.651  14.641  0.00  0.00    -0.005 C 
HETATM    9  C   UNK N   1      35.589  13.865  15.624  0.00  0.00     0.038 C 
HETATM   10  C   UNK N   1      36.662  13.193  14.750  0.00  0.00     0.010 C 
HETATM   11  C   UNK N   1      35.050   9.602  15.052  0.00  0.00     0.006 C 
HETATM   12  C   UNK N   1      35.215   9.168  13.586  0.00  0.00     0.012 C 
HETATM   13  C   UNK N   1      36.606  11.211  13.163  0.00  0.00     0.001 C 
HETATM   14  C   UNK N   1      36.539   9.693  13.020  0.00  0.00    -0.014 C 
HETATM   15  C   UNK N   1      37.832  11.573  12.346  0.00  0.00     0.008 C 
HETATM   16  C   UNK N   1      37.782  10.583  11.167  0.00  0.00     0.033 C 
HETATM   17  C   UNK N   1      36.730   9.514  11.517  0.00  0.00     0.126 C 
HETATM   18  O   UNK N   1      35.048  13.182  20.377  0.00  0.00    -0.290 OA
HETATM   19  C   UNK N   1      37.701   8.984  13.731  0.00  0.00     0.018 C 
ENDROOT
BRANCH   4  20
HETATM   20  O   UNK N   1      35.556  14.900  18.249  0.00  0.00    -0.357 OA
HETATM   21  H   UNK N   1      35.963  15.400  17.569  0.00  0.00     0.218 HD
ENDBRANCH   4  20
BRANCH  17  22
HETATM   22  O   UNK N   1      35.549   9.810  10.827  0.00  0.00    -0.395 OA
HETATM   23  H   UNK N   1      34.701   9.828  10.356  0.00  0.00     0.210 HD
ENDBRANCH  17  22
TORSDOF 2
ENDMDL
