MODEL 1
REMARK VINA RESULT:      -8.3      0.000      0.000
REMARK  27 active torsions:
REMARK  status: ('A' for Active; 'I' for Inactive)
REMARK    1  A    between atoms: C_7  and  C_1 
REMARK    2  A    between atoms: O_51  and  C_1 
REMARK    3  A    between atoms: C_8  and  C_2 
REMARK    4  A    between atoms: O_52  and  C_2 
REMARK    5  A    between atoms: C_11  and  O_37 
REMARK    6  A    between atoms: C_12  and  O_38 
REMARK    7  A    between atoms: C_13  and  O_39 
REMARK    8  A    between atoms: C_14  and  O_40 
REMARK    9  A    between atoms: N_21  and  C_15 
REMARK   10  A    between atoms: N_22  and  C_16 
REMARK   11  A    between atoms: C_19  and  N_35 
REMARK   12  A    between atoms: C_20  and  N_36 
REMARK   13  A    between atoms: P_59  and  O_41 
REMARK   14  A    between atoms: P_60  and  O_43 
REMARK   15  A    between atoms: P_61  and  O_45 
REMARK   16  A    between atoms: P_62  and  O_47 
REMARK   17  A    between atoms: P_63  and  O_49 
REMARK   18  A    between atoms: P_59  and  O_51 
REMARK   19  A    between atoms: P_60  and  O_52 
REMARK   20  A    between atoms: P_59  and  O_55 
REMARK   21  A    between atoms: P_61  and  O_55 
REMARK   22  A    between atoms: P_60  and  O_56 
REMARK   23  A    between atoms: P_62  and  O_56 
REMARK   24  A    between atoms: P_61  and  O_57 
REMARK   25  A    between atoms: P_63  and  O_57 
REMARK   26  A    between atoms: P_62  and  O_58 
REMARK   27  A    between atoms: P_63  and  O_58 
ROOT
HETATM    1  O   UNK N   1      31.443  16.106   8.933  0.00  0.00    -0.631 OA
HETATM    2  P   UNK N   1      31.691  16.455   7.442  0.00  0.00     0.410 P 
ENDROOT
BRANCH   2   3
HETATM    3  O   UNK N   1      32.758  15.204   6.879  0.00  0.00    -0.307 OA
HETATM    4  H   UNK N   1      33.142  15.176   5.988  0.00  0.00     0.222 HD
ENDBRANCH   2   3
BRANCH   2   5
HETATM    5  O   UNK N   1      30.095  16.507   6.734  0.00  0.00    -0.195 OA
BRANCH   5   6
HETATM    6  P   UNK N   1      30.046  15.576   5.264  0.00  0.00     0.410 P 
HETATM    7  O   UNK N   1      30.222  14.064   5.568  0.00  0.00    -0.631 OA
BRANCH   6   8
HETATM    8  O   UNK N   1      31.507  16.009   4.442  0.00  0.00    -0.307 OA
HETATM    9  H   UNK N   1      32.148  15.328   4.187  0.00  0.00     0.222 HD
ENDBRANCH   6   8
BRANCH   6  10
HETATM   10  O   UNK N   1      28.627  15.877   4.280  0.00  0.00    -0.195 OA
BRANCH  10  11
HETATM   11  P   UNK N   1      27.304  14.899   4.871  0.00  0.00     0.401 P 
HETATM   12  O   UNK N   1      27.020  15.380   6.326  0.00  0.00    -0.631 OA
BRANCH  11  13
HETATM   13  O   UNK N   1      27.655  13.204   5.010  0.00  0.00    -0.307 OA
HETATM   14  H   UNK N   1      27.424  12.501   4.384  0.00  0.00     0.222 HD
ENDBRANCH  11  13
BRANCH  11  15
HETATM   15  O   UNK N   1      25.882  15.230   3.940  0.00  0.00    -0.294 OA
BRANCH  15  16
HETATM   16  C   UNK N   1      26.344  16.264   3.141  0.00  0.00     0.215 C 
BRANCH  16  17
HETATM   17  C   UNK N   1      25.730  17.611   3.421  0.00  0.00     0.180 C 
HETATM   18  C   UNK N   1      26.529  18.739   4.042  0.00  0.00     0.182 C 
HETATM   19  C   UNK N   1      25.365  19.680   4.256  0.00  0.00     0.198 C 
HETATM   20  C   UNK N   1      24.284  18.677   4.725  0.00  0.00     0.262 C 
HETATM   21  O   UNK N   1      24.742  17.391   4.380  0.00  0.00    -0.353 OA
BRANCH  18  22
HETATM   22  O   UNK N   1      27.013  18.328   5.291  0.00  0.00    -0.390 OA
HETATM   23  H   UNK N   1      27.757  18.251   5.909  0.00  0.00     0.210 HD
ENDBRANCH  18  22
BRANCH  19  24
HETATM   24  O   UNK N   1      25.642  20.684   5.191  0.00  0.00    -0.388 OA
HETATM   25  H   UNK N   1      26.423  21.258   5.146  0.00  0.00     0.210 HD
ENDBRANCH  19  24
BRANCH  20  26
HETATM   26  N   UNK N   1      23.007  18.836   4.041  0.00  0.00    -0.297 N 
HETATM   27  C   UNK N   1      22.724  19.865   3.193  0.00  0.00     0.188 A 
HETATM   28  N   UNK N   1      21.475  19.770   2.685  0.00  0.00    -0.346 N 
HETATM   29  C   UNK N   1      20.986  18.650   3.240  0.00  0.00     0.122 A 
ATOM     30  HN  UNK N   1      21.012  20.402   2.032  1.00  0.00     0.167 HD
HETATM   31  C   UNK N   1      19.755  18.068   3.072  0.00  0.00     0.131 A 
HETATM   32  C   UNK N   1      21.905  18.090   4.054  0.00  0.00     0.142 A 
HETATM   33  N   UNK N   1      19.497  16.914   3.756  0.00  0.00    -0.337 N 
HETATM   34  C   UNK N   1      20.444  16.356   4.587  0.00  0.00     0.183 A 
ATOM     35  HN  UNK N   1      18.591  16.460   3.651  1.00  0.00     0.168 HD
HETATM   36  N   UNK N   1      21.670  16.949   4.741  0.00  0.00    -0.336 N 
ATOM     37  HN  UNK N   1      22.380  16.543   5.352  1.00  0.00     0.168 HD
BRANCH  31  38
HETATM   38  N   UNK N   1      18.791  18.641   2.219  0.00  0.00    -0.383 N 
HETATM   39  H   UNK N   1      19.036  19.125   1.398  0.00  0.00     0.157 HD
HETATM   40  H   UNK N   1      17.838  18.553   2.452  0.00  0.00     0.157 HD
ENDBRANCH  31  38
ENDBRANCH  20  26
ENDBRANCH  16  17
ENDBRANCH  15  16
ENDBRANCH  11  15
ENDBRANCH  10  11
ENDBRANCH   6  10
ENDBRANCH   5   6
ENDBRANCH   2   5
BRANCH   2  41
HETATM   41  O   UNK N   1      32.460  18.018   7.472  0.00  0.00    -0.195 OA
BRANCH  41  42
HETATM   42  P   UNK N   1      34.020  17.797   8.221  0.00  0.00     0.410 P 
HETATM   43  O   UNK N   1      34.906  19.059   8.302  0.00  0.00    -0.631 OA
BRANCH  42  44
HETATM   44  O   UNK N   1      34.493  17.768   6.558  0.00  0.00    -0.307 OA
HETATM   45  H   UNK N   1      34.382  16.984   5.998  0.00  0.00     0.222 HD
ENDBRANCH  42  44
BRANCH  42  46
HETATM   46  O   UNK N   1      34.958  16.336   8.268  0.00  0.00    -0.195 OA
BRANCH  46  47
HETATM   47  P   UNK N   1      35.225  15.874   9.927  0.00  0.00     0.401 P 
HETATM   48  O   UNK N   1      34.132  14.874  10.389  0.00  0.00    -0.631 OA
BRANCH  47  49
HETATM   49  O   UNK N   1      35.015  17.298  10.897  0.00  0.00    -0.307 OA
HETATM   50  H   UNK N   1      35.129  17.474  11.845  0.00  0.00     0.222 HD
ENDBRANCH  47  49
BRANCH  47  51
HETATM   51  O   UNK N   1      36.810  15.211  10.261  0.00  0.00    -0.294 OA
BRANCH  51  52
HETATM   52  C   UNK N   1      36.887  13.926   9.698  0.00  0.00     0.215 C 
BRANCH  52  53
HETATM   53  C   UNK N   1      36.971  12.835  10.768  0.00  0.00     0.180 C 
HETATM   54  C   UNK N   1      35.737  11.922  10.781  0.00  0.00     0.182 C 
HETATM   55  C   UNK N   1      35.351  11.920  12.248  0.00  0.00     0.198 C 
HETATM   56  C   UNK N   1      36.641  12.388  12.906  0.00  0.00     0.262 C 
HETATM   57  O   UNK N   1      37.133  13.385  12.048  0.00  0.00    -0.353 OA
BRANCH  54  58
HETATM   58  O   UNK N   1      36.099  10.640  10.357  0.00  0.00    -0.390 OA
HETATM   59  H   UNK N   1      35.676   9.768  10.319  0.00  0.00     0.210 HD
ENDBRANCH  54  58
BRANCH  55  60
HETATM   60  O   UNK N   1      34.367  12.894  12.449  0.00  0.00    -0.388 OA
HETATM   61  H   UNK N   1      33.870  13.595  12.900  0.00  0.00     0.210 HD
ENDBRANCH  55  60
BRANCH  56  62
HETATM   62  N   UNK N   1      36.422  12.949  14.237  0.00  0.00    -0.297 N 
HETATM   63  C   UNK N   1      36.634  14.242  14.606  0.00  0.00     0.188 A 
HETATM   64  N   UNK N   1      36.319  14.443  15.915  0.00  0.00    -0.346 N 
HETATM   65  C   UNK N   1      35.899  13.239  16.343  0.00  0.00     0.122 A 
ATOM     66  HN  UNK N   1      36.386  15.310  16.448  1.00  0.00     0.167 HD
HETATM   67  C   UNK N   1      35.432  12.858  17.585  0.00  0.00     0.131 A 
HETATM   68  C   UNK N   1      35.969  12.345  15.339  0.00  0.00     0.142 A 
HETATM   69  N   UNK N   1      35.044  11.558  17.751  0.00  0.00    -0.337 N 
HETATM   70  C   UNK N   1      35.123  10.659  16.712  0.00  0.00     0.183 A 
ATOM     71  HN  UNK N   1      34.692  11.249  18.657  1.00  0.00     0.168 HD
HETATM   72  N   UNK N   1      35.591  11.051  15.487  0.00  0.00    -0.336 N 
ATOM     73  HN  UNK N   1      35.653  10.392  14.710  1.00  0.00     0.168 HD
BRANCH  67  74
HETATM   74  N   UNK N   1      35.343  13.779  18.648  0.00  0.00    -0.383 N 
HETATM   75  H   UNK N   1      35.573  13.528  19.572  0.00  0.00     0.157 HD
HETATM   76  H   UNK N   1      35.042  14.697  18.462  0.00  0.00     0.157 HD
ENDBRANCH  67  74
ENDBRANCH  56  62
ENDBRANCH  52  53
ENDBRANCH  51  52
ENDBRANCH  47  51
ENDBRANCH  46  47
ENDBRANCH  42  46
ENDBRANCH  41  42
ENDBRANCH   2  41
TORSDOF 27
ENDMDL
MODEL 2
REMARK VINA RESULT:      -8.3      1.655      2.547
REMARK  27 active torsions:
REMARK  status: ('A' for Active; 'I' for Inactive)
REMARK    1  A    between atoms: C_7  and  C_1 
REMARK    2  A    between atoms: O_51  and  C_1 
REMARK    3  A    between atoms: C_8  and  C_2 
REMARK    4  A    between atoms: O_52  and  C_2 
REMARK    5  A    between atoms: C_11  and  O_37 
REMARK    6  A    between atoms: C_12  and  O_38 
REMARK    7  A    between atoms: C_13  and  O_39 
REMARK    8  A    between atoms: C_14  and  O_40 
REMARK    9  A    between atoms: N_21  and  C_15 
REMARK   10  A    between atoms: N_22  and  C_16 
REMARK   11  A    between atoms: C_19  and  N_35 
REMARK   12  A    between atoms: C_20  and  N_36 
REMARK   13  A    between atoms: P_59  and  O_41 
REMARK   14  A    between atoms: P_60  and  O_43 
REMARK   15  A    between atoms: P_61  and  O_45 
REMARK   16  A    between atoms: P_62  and  O_47 
REMARK   17  A    between atoms: P_63  and  O_49 
REMARK   18  A    between atoms: P_59  and  O_51 
REMARK   19  A    between atoms: P_60  and  O_52 
REMARK   20  A    between atoms: P_59  and  O_55 
REMARK   21  A    between atoms: P_61  and  O_55 
REMARK   22  A    between atoms: P_60  and  O_56 
REMARK   23  A    between atoms: P_62  and  O_56 
REMARK   24  A    between atoms: P_61  and  O_57 
REMARK   25  A    between atoms: P_63  and  O_57 
REMARK   26  A    between atoms: P_62  and  O_58 
REMARK   27  A    between atoms: P_63  and  O_58 
ROOT
HETATM    1  O   UNK N   1      33.176  17.951   4.591  0.00  0.00    -0.631 OA
HETATM    2  P   UNK N   1      33.303  16.995   5.806  0.00  0.00     0.410 P 
ENDROOT
BRANCH   2   3
HETATM    3  O   UNK N   1      31.795  17.172   6.652  0.00  0.00    -0.307 OA
HETATM    4  H   UNK N   1      31.723  17.400   7.593  0.00  0.00     0.222 HD
ENDBRANCH   2   3
BRANCH   2   5
HETATM    5  O   UNK N   1      33.630  15.431   5.098  0.00  0.00    -0.195 OA
BRANCH   5   6
HETATM    6  P   UNK N   1      32.604  15.157   3.719  0.00  0.00     0.410 P 
HETATM    7  O   UNK N   1      32.574  13.649   3.351  0.00  0.00    -0.631 OA
BRANCH   6   8
HETATM    8  O   UNK N   1      33.459  15.890   2.404  0.00  0.00    -0.307 OA
HETATM    9  H   UNK N   1      33.022  16.027   1.550  0.00  0.00     0.222 HD
ENDBRANCH   6   8
BRANCH   6  10
HETATM   10  O   UNK N   1      30.988  15.812   3.895  0.00  0.00    -0.195 OA
BRANCH  10  11
HETATM   11  P   UNK N   1      29.983  14.639   4.715  0.00  0.00     0.401 P 
HETATM   12  O   UNK N   1      30.727  14.270   6.033  0.00  0.00    -0.631 OA
BRANCH  11  13
HETATM   13  O   UNK N   1      29.776  13.137   3.870  0.00  0.00    -0.307 OA
HETATM   14  H   UNK N   1      29.683  13.006   2.914  0.00  0.00     0.222 HD
ENDBRANCH  11  13
BRANCH  11  15
HETATM   15  O   UNK N   1      28.485  15.381   5.169  0.00  0.00    -0.294 OA
BRANCH  15  16
HETATM   16  C   UNK N   1      28.180  16.060   4.000  0.00  0.00     0.215 C 
BRANCH  16  17
HETATM   17  C   UNK N   1      27.767  17.497   4.185  0.00  0.00     0.180 C 
HETATM   18  C   UNK N   1      28.704  18.527   4.785  0.00  0.00     0.182 C 
HETATM   19  C   UNK N   1      27.688  19.641   4.899  0.00  0.00     0.198 C 
HETATM   20  C   UNK N   1      26.452  18.838   5.369  0.00  0.00     0.262 C 
HETATM   21  O   UNK N   1      26.723  17.481   5.109  0.00  0.00    -0.353 OA
BRANCH  18  22
HETATM   22  O   UNK N   1      29.074  18.118   6.073  0.00  0.00    -0.390 OA
HETATM   23  H   UNK N   1      28.811  17.783   6.945  0.00  0.00     0.210 HD
ENDBRANCH  18  22
BRANCH  19  24
HETATM   24  O   UNK N   1      28.079  20.643   5.795  0.00  0.00    -0.388 OA
HETATM   25  H   UNK N   1      28.159  20.505   6.751  0.00  0.00     0.210 HD
ENDBRANCH  19  24
BRANCH  20  26
HETATM   26  N   UNK N   1      25.239  19.146   4.621  0.00  0.00    -0.297 N 
HETATM   27  C   UNK N   1      25.177  20.082   3.631  0.00  0.00     0.188 A 
HETATM   28  N   UNK N   1      23.940  20.163   3.093  0.00  0.00    -0.346 N 
HETATM   29  C   UNK N   1      23.231  19.251   3.776  0.00  0.00     0.122 A 
ATOM     30  HN  UNK N   1      23.619  20.775   2.343  1.00  0.00     0.167 HD
HETATM   31  C   UNK N   1      21.910  18.905   3.642  0.00  0.00     0.131 A 
HETATM   32  C   UNK N   1      24.010  18.642   4.693  0.00  0.00     0.142 A 
HETATM   33  N   UNK N   1      21.419  17.932   4.466  0.00  0.00    -0.337 N 
HETATM   34  C   UNK N   1      22.227  17.322   5.400  0.00  0.00     0.183 A 
ATOM     35  HN  UNK N   1      20.441  17.655   4.389  1.00  0.00     0.168 HD
HETATM   36  N   UNK N   1      23.545  17.677   5.520  0.00  0.00    -0.336 N 
ATOM     37  HN  UNK N   1      24.153  17.230   6.206  1.00  0.00     0.168 HD
BRANCH  31  38
HETATM   38  N   UNK N   1      21.089  19.530   2.682  0.00  0.00    -0.383 N 
HETATM   39  H   UNK N   1      21.378  20.325   2.180  0.00  0.00     0.157 HD
HETATM   40  H   UNK N   1      20.194  19.157   2.508  0.00  0.00     0.157 HD
ENDBRANCH  31  38
ENDBRANCH  20  26
ENDBRANCH  16  17
ENDBRANCH  15  16
ENDBRANCH  11  15
ENDBRANCH  10  11
ENDBRANCH   6  10
ENDBRANCH   5   6
ENDBRANCH   2   5
BRANCH   2  41
HETATM   41  O   UNK N   1      34.652  17.610   6.719  0.00  0.00    -0.195 OA
BRANCH  41  42
HETATM   42  P   UNK N   1      34.155  17.639   8.392  0.00  0.00     0.410 P 
HETATM   43  O   UNK N   1      32.935  18.530   8.710  0.00  0.00    -0.631 OA
BRANCH  42  44
HETATM   44  O   UNK N   1      35.024  19.133   8.324  0.00  0.00    -0.307 OA
HETATM   45  H   UNK N   1      35.160  19.620   7.496  0.00  0.00     0.222 HD
ENDBRANCH  42  44
BRANCH  42  46
HETATM   46  O   UNK N   1      35.162  17.390   9.785  0.00  0.00    -0.195 OA
BRANCH  46  47
HETATM   47  P   UNK N   1      35.128  15.705  10.227  0.00  0.00     0.401 P 
HETATM   48  O   UNK N   1      35.088  14.816   8.955  0.00  0.00    -0.631 OA
BRANCH  47  49
HETATM   49  O   UNK N   1      33.631  15.421  11.059  0.00  0.00    -0.307 OA
HETATM   50  H   UNK N   1      32.702  15.514  10.795  0.00  0.00     0.222 HD
ENDBRANCH  47  49
BRANCH  47  51
HETATM   51  O   UNK N   1      36.440  15.189  11.265  0.00  0.00    -0.294 OA
BRANCH  51  52
HETATM   52  C   UNK N   1      35.902  14.749  12.485  0.00  0.00     0.215 C 
BRANCH  52  53
HETATM   53  C   UNK N   1      36.217  13.275  12.754  0.00  0.00     0.180 C 
HETATM   54  C   UNK N   1      35.102  12.334  12.278  0.00  0.00     0.182 C 
HETATM   55  C   UNK N   1      34.871  11.463  13.498  0.00  0.00     0.198 C 
HETATM   56  C   UNK N   1      36.160  11.677  14.278  0.00  0.00     0.262 C 
HETATM   57  O   UNK N   1      36.446  13.042  14.118  0.00  0.00    -0.353 OA
BRANCH  54  58
HETATM   58  O   UNK N   1      35.561  11.573  11.200  0.00  0.00    -0.390 OA
HETATM   59  H   UNK N   1      35.168  11.159  10.416  0.00  0.00     0.210 HD
ENDBRANCH  54  58
BRANCH  55  60
HETATM   60  O   UNK N   1      33.809  12.001  14.233  0.00  0.00    -0.388 OA
HETATM   61  H   UNK N   1      32.938  12.047  14.659  0.00  0.00     0.210 HD
ENDBRANCH  55  60
BRANCH  56  62
HETATM   62  N   UNK N   1      36.016  11.367  15.699  0.00  0.00    -0.297 N 
HETATM   63  C   UNK N   1      36.173  10.143  16.271  0.00  0.00     0.188 A 
HETATM   64  N   UNK N   1      35.985  10.196  17.618  0.00  0.00    -0.346 N 
HETATM   65  C   UNK N   1      35.715  11.491  17.863  0.00  0.00     0.122 A 
ATOM     66  HN  UNK N   1      36.038   9.429  18.288  1.00  0.00     0.167 HD
HETATM   67  C   UNK N   1      35.464  12.128  19.061  0.00  0.00     0.131 A 
HETATM   68  C   UNK N   1      35.727  12.189  16.711  0.00  0.00     0.142 A 
HETATM   69  N   UNK N   1      35.236  13.476  19.034  0.00  0.00    -0.337 N 
HETATM   70  C   UNK N   1      35.253  14.171  17.846  0.00  0.00     0.183 A 
ATOM     71  HN  UNK N   1      35.051  13.974  19.904  1.00  0.00     0.168 HD
HETATM   72  N   UNK N   1      35.501  13.525  16.666  0.00  0.00    -0.336 N 
ATOM     73  HN  UNK N   1      35.516  14.031  15.780  1.00  0.00     0.168 HD
BRANCH  67  74
HETATM   74  N   UNK N   1      35.454  11.420  20.280  0.00  0.00    -0.383 N 
HETATM   75  H   UNK N   1      34.682  10.877  20.558  0.00  0.00     0.157 HD
HETATM   76  H   UNK N   1      36.241  11.470  20.869  0.00  0.00     0.157 HD
ENDBRANCH  67  74
ENDBRANCH  56  62
ENDBRANCH  52  53
ENDBRANCH  51  52
ENDBRANCH  47  51
ENDBRANCH  46  47
ENDBRANCH  42  46
ENDBRANCH  41  42
ENDBRANCH   2  41
TORSDOF 27
ENDMDL
MODEL 3
REMARK VINA RESULT:      -8.2      2.127      3.720
REMARK  27 active torsions:
REMARK  status: ('A' for Active; 'I' for Inactive)
REMARK    1  A    between atoms: C_7  and  C_1 
REMARK    2  A    between atoms: O_51  and  C_1 
REMARK    3  A    between atoms: C_8  and  C_2 
REMARK    4  A    between atoms: O_52  and  C_2 
REMARK    5  A    between atoms: C_11  and  O_37 
REMARK    6  A    between atoms: C_12  and  O_38 
REMARK    7  A    between atoms: C_13  and  O_39 
REMARK    8  A    between atoms: C_14  and  O_40 
REMARK    9  A    between atoms: N_21  and  C_15 
REMARK   10  A    between atoms: N_22  and  C_16 
REMARK   11  A    between atoms: C_19  and  N_35 
REMARK   12  A    between atoms: C_20  and  N_36 
REMARK   13  A    between atoms: P_59  and  O_41 
REMARK   14  A    between atoms: P_60  and  O_43 
REMARK   15  A    between atoms: P_61  and  O_45 
REMARK   16  A    between atoms: P_62  and  O_47 
REMARK   17  A    between atoms: P_63  and  O_49 
REMARK   18  A    between atoms: P_59  and  O_51 
REMARK   19  A    between atoms: P_60  and  O_52 
REMARK   20  A    between atoms: P_59  and  O_55 
REMARK   21  A    between atoms: P_61  and  O_55 
REMARK   22  A    between atoms: P_60  and  O_56 
REMARK   23  A    between atoms: P_62  and  O_56 
REMARK   24  A    between atoms: P_61  and  O_57 
REMARK   25  A    between atoms: P_63  and  O_57 
REMARK   26  A    between atoms: P_62  and  O_58 
REMARK   27  A    between atoms: P_63  and  O_58 
ROOT
HETATM    1  O   UNK N   1      28.724  18.812   7.294  0.00  0.00    -0.631 OA
HETATM    2  P   UNK N   1      28.774  17.261   7.325  0.00  0.00     0.410 P 
ENDROOT
BRANCH   2   3
HETATM    3  O   UNK N   1      27.149  16.786   7.719  0.00  0.00    -0.307 OA
HETATM    4  H   UNK N   1      26.899  15.896   8.014  0.00  0.00     0.222 HD
ENDBRANCH   2   3
BRANCH   2   5
HETATM    5  O   UNK N   1      29.366  16.812   5.744  0.00  0.00    -0.195 OA
BRANCH   5   6
HETATM    6  P   UNK N   1      28.344  17.470   4.498  0.00  0.00     0.410 P 
HETATM    7  O   UNK N   1      28.740  16.902   3.109  0.00  0.00    -0.631 OA
BRANCH   6   8
HETATM    8  O   UNK N   1      28.801  19.137   4.413  0.00  0.00    -0.307 OA
HETATM    9  H   UNK N   1      29.437  19.439   3.748  0.00  0.00     0.222 HD
ENDBRANCH   6   8
BRANCH   6  10
HETATM   10  O   UNK N   1      26.630  17.276   4.811  0.00  0.00    -0.195 OA
BRANCH  10  11
HETATM   11  P   UNK N   1      25.869  18.850   4.815  0.00  0.00     0.401 P 
HETATM   12  O   UNK N   1      26.290  19.543   3.485  0.00  0.00    -0.631 OA
BRANCH  11  13
HETATM   13  O   UNK N   1      26.404  19.916   6.077  0.00  0.00    -0.307 OA
HETATM   14  H   UNK N   1      27.299  19.994   6.443  0.00  0.00     0.222 HD
ENDBRANCH  11  13
BRANCH  11  15
HETATM   15  O   UNK N   1      24.148  18.658   4.765  0.00  0.00    -0.294 OA
BRANCH  15  16
HETATM   16  C   UNK N   1      23.800  19.745   3.978  0.00  0.00     0.215 C 
BRANCH  16  17
HETATM   17  C   UNK N   1      22.642  19.511   3.044  0.00  0.00     0.180 C 
HETATM   18  C   UNK N   1      22.137  20.594   2.111  0.00  0.00     0.182 C 
HETATM   19  C   UNK N   1      20.906  19.855   1.636  0.00  0.00     0.198 C 
HETATM   20  C   UNK N   1      20.443  19.212   2.966  0.00  0.00     0.262 C 
HETATM   21  O   UNK N   1      21.531  19.287   3.857  0.00  0.00    -0.353 OA
BRANCH  18  22
HETATM   22  O   UNK N   1      21.737  21.703   2.866  0.00  0.00    -0.390 OA
HETATM   23  H   UNK N   1      21.054  22.359   3.081  0.00  0.00     0.210 HD
ENDBRANCH  18  22
BRANCH  19  24
HETATM   24  O   UNK N   1      19.951  20.703   1.062  0.00  0.00    -0.388 OA
HETATM   25  H   UNK N   1      20.122  21.250   0.279  0.00  0.00     0.210 HD
ENDBRANCH  19  24
BRANCH  20  26
HETATM   26  N   UNK N   1      20.129  17.793   2.847  0.00  0.00    -0.297 N 
HETATM   27  C   UNK N   1      19.876  17.170   1.661  0.00  0.00     0.188 A 
HETATM   28  N   UNK N   1      19.624  15.853   1.830  0.00  0.00    -0.346 N 
HETATM   29  C   UNK N   1      19.729  15.671   3.156  0.00  0.00     0.122 A 
ATOM     30  HN  UNK N   1      19.405  15.158   1.117  1.00  0.00     0.167 HD
HETATM   31  C   UNK N   1      19.576  14.520   3.886  0.00  0.00     0.131 A 
HETATM   32  C   UNK N   1      20.031  16.836   3.766  0.00  0.00     0.142 A 
HETATM   33  N   UNK N   1      19.738  14.598   5.240  0.00  0.00    -0.337 N 
HETATM   34  C   UNK N   1      20.044  15.795   5.849  0.00  0.00     0.183 A 
ATOM     35  HN  UNK N   1      19.631  13.758   5.808  1.00  0.00     0.168 HD
HETATM   36  N   UNK N   1      20.195  16.936   5.105  0.00  0.00    -0.336 N 
ATOM     37  HN  UNK N   1      20.424  17.828   5.545  1.00  0.00     0.168 HD
BRANCH  31  38
HETATM   38  N   UNK N   1      19.268  13.297   3.258  0.00  0.00    -0.383 N 
HETATM   39  H   UNK N   1      19.500  13.114   2.319  0.00  0.00     0.157 HD
HETATM   40  H   UNK N   1      18.803  12.600   3.776  0.00  0.00     0.157 HD
ENDBRANCH  31  38
ENDBRANCH  20  26
ENDBRANCH  16  17
ENDBRANCH  15  16
ENDBRANCH  11  15
ENDBRANCH  10  11
ENDBRANCH   6  10
ENDBRANCH   5   6
ENDBRANCH   2   5
BRANCH   2  41
HETATM   41  O   UNK N   1      29.903  16.877   8.595  0.00  0.00    -0.195 OA
BRANCH  41  42
HETATM   42  P   UNK N   1      31.495  17.241   7.979  0.00  0.00     0.410 P 
HETATM   43  O   UNK N   1      32.187  16.100   7.202  0.00  0.00    -0.631 OA
BRANCH  42  44
HETATM   44  O   UNK N   1      31.931  16.333   9.384  0.00  0.00    -0.307 OA
HETATM   45  H   UNK N   1      32.836  16.318   9.735  0.00  0.00     0.222 HD
ENDBRANCH  42  44
BRANCH  42  46
HETATM   46  O   UNK N   1      32.638  18.368   8.641  0.00  0.00    -0.195 OA
BRANCH  46  47
HETATM   47  P   UNK N   1      34.241  17.949   8.099  0.00  0.00     0.401 P 
HETATM   48  O   UNK N   1      35.256  19.041   8.533  0.00  0.00    -0.631 OA
BRANCH  47  49
HETATM   49  O   UNK N   1      34.221  17.975   6.364  0.00  0.00    -0.307 OA
HETATM   50  H   UNK N   1      34.895  17.782   5.693  0.00  0.00     0.222 HD
ENDBRANCH  47  49
BRANCH  47  51
HETATM   51  O   UNK N   1      34.808  16.377   8.619  0.00  0.00    -0.294 OA
BRANCH  51  52
HETATM   52  C   UNK N   1      35.277  16.482   9.939  0.00  0.00     0.215 C 
BRANCH  52  53
HETATM   53  C   UNK N   1      36.252  15.356  10.293  0.00  0.00     0.180 C 
HETATM   54  C   UNK N   1      35.922  14.039   9.577  0.00  0.00     0.182 C 
HETATM   55  C   UNK N   1      35.930  13.040  10.718  0.00  0.00     0.198 C 
HETATM   56  C   UNK N   1      36.720  13.790  11.779  0.00  0.00     0.262 C 
HETATM   57  O   UNK N   1      36.277  15.119  11.676  0.00  0.00    -0.353 OA
BRANCH  54  58
HETATM   58  O   UNK N   1      36.925  13.748   8.649  0.00  0.00    -0.390 OA
HETATM   59  H   UNK N   1      37.835  13.413   8.681  0.00  0.00     0.210 HD
ENDBRANCH  54  58
BRANCH  55  60
HETATM   60  O   UNK N   1      34.618  12.872  11.172  0.00  0.00    -0.388 OA
HETATM   61  H   UNK N   1      33.755  12.448  11.301  0.00  0.00     0.210 HD
ENDBRANCH  55  60
BRANCH  56  62
HETATM   62  N   UNK N   1      36.466  13.291  13.129  0.00  0.00    -0.297 N 
HETATM   63  C   UNK N   1      35.709  13.903  14.080  0.00  0.00     0.188 A 
HETATM   64  N   UNK N   1      35.660  13.170  15.225  0.00  0.00    -0.346 N 
HETATM   65  C   UNK N   1      36.404  12.082  14.953  0.00  0.00     0.122 A 
ATOM     66  HN  UNK N   1      35.171  13.394  16.091  1.00  0.00     0.167 HD
HETATM   67  C   UNK N   1      36.684  10.985  15.742  0.00  0.00     0.131 A 
HETATM   68  C   UNK N   1      36.891  12.161  13.700  0.00  0.00     0.142 A 
HETATM   69  N   UNK N   1      37.460   9.994  15.208  0.00  0.00    -0.337 N 
HETATM   70  C   UNK N   1      37.948  10.094  13.925  0.00  0.00     0.183 A 
ATOM     71  HN  UNK N   1      37.681   9.170  15.767  1.00  0.00     0.168 HD
HETATM   72  N   UNK N   1      37.664  11.189  13.156  0.00  0.00    -0.336 N 
ATOM     73  HN  UNK N   1      38.021  11.272  12.203  1.00  0.00     0.168 HD
BRANCH  67  74
HETATM   74  N   UNK N   1      36.178  10.877  17.053  0.00  0.00    -0.383 N 
HETATM   75  H   UNK N   1      35.724  11.629  17.497  0.00  0.00     0.157 HD
HETATM   76  H   UNK N   1      36.282  10.026  17.538  0.00  0.00     0.157 HD
ENDBRANCH  67  74
ENDBRANCH  56  62
ENDBRANCH  52  53
ENDBRANCH  51  52
ENDBRANCH  47  51
ENDBRANCH  46  47
ENDBRANCH  42  46
ENDBRANCH  41  42
ENDBRANCH   2  41
TORSDOF 27
ENDMDL
MODEL 4
REMARK VINA RESULT:      -8.1      5.997      9.880
REMARK  27 active torsions:
REMARK  status: ('A' for Active; 'I' for Inactive)
REMARK    1  A    between atoms: C_7  and  C_1 
REMARK    2  A    between atoms: O_51  and  C_1 
REMARK    3  A    between atoms: C_8  and  C_2 
REMARK    4  A    between atoms: O_52  and  C_2 
REMARK    5  A    between atoms: C_11  and  O_37 
REMARK    6  A    between atoms: C_12  and  O_38 
REMARK    7  A    between atoms: C_13  and  O_39 
REMARK    8  A    between atoms: C_14  and  O_40 
REMARK    9  A    between atoms: N_21  and  C_15 
REMARK   10  A    between atoms: N_22  and  C_16 
REMARK   11  A    between atoms: C_19  and  N_35 
REMARK   12  A    between atoms: C_20  and  N_36 
REMARK   13  A    between atoms: P_59  and  O_41 
REMARK   14  A    between atoms: P_60  and  O_43 
REMARK   15  A    between atoms: P_61  and  O_45 
REMARK   16  A    between atoms: P_62  and  O_47 
REMARK   17  A    between atoms: P_63  and  O_49 
REMARK   18  A    between atoms: P_59  and  O_51 
REMARK   19  A    between atoms: P_60  and  O_52 
REMARK   20  A    between atoms: P_59  and  O_55 
REMARK   21  A    between atoms: P_61  and  O_55 
REMARK   22  A    between atoms: P_60  and  O_56 
REMARK   23  A    between atoms: P_62  and  O_56 
REMARK   24  A    between atoms: P_61  and  O_57 
REMARK   25  A    between atoms: P_63  and  O_57 
REMARK   26  A    between atoms: P_62  and  O_58 
REMARK   27  A    between atoms: P_63  and  O_58 
ROOT
HETATM    1  O   UNK N   1      34.731  12.008   7.199  0.00  0.00    -0.631 OA
HETATM    2  P   UNK N   1      33.326  12.659   7.110  0.00  0.00     0.410 P 
ENDROOT
BRANCH   2   3
HETATM    3  O   UNK N   1      32.355  11.474   6.287  0.00  0.00    -0.307 OA
HETATM    4  H   UNK N   1      31.731  11.683   5.574  0.00  0.00     0.222 HD
ENDBRANCH   2   3
BRANCH   2   5
HETATM    5  O   UNK N   1      32.902  13.011   8.767  0.00  0.00    -0.195 OA
BRANCH   5   6
HETATM    6  P   UNK N   1      34.172  13.912   9.546  0.00  0.00     0.410 P 
HETATM    7  O   UNK N   1      35.206  12.953  10.194  0.00  0.00    -0.631 OA
BRANCH   6   8
HETATM    8  O   UNK N   1      33.392  14.660  10.898  0.00  0.00    -0.307 OA
HETATM    9  H   UNK N   1      32.604  14.258  11.295  0.00  0.00     0.222 HD
ENDBRANCH   6   8
BRANCH   6  10
HETATM   10  O   UNK N   1      34.948  15.090   8.504  0.00  0.00    -0.195 OA
BRANCH  10  11
HETATM   11  P   UNK N   1      34.257  16.667   8.811  0.00  0.00     0.401 P 
HETATM   12  O   UNK N   1      34.682  17.571   7.616  0.00  0.00    -0.631 OA
BRANCH  11  13
HETATM   13  O   UNK N   1      34.865  17.466  10.228  0.00  0.00    -0.307 OA
HETATM   14  H   UNK N   1      35.628  17.208  10.769  0.00  0.00     0.222 HD
ENDBRANCH  11  13
BRANCH  11  15
HETATM   15  O   UNK N   1      32.530  16.556   8.775  0.00  0.00    -0.294 OA
BRANCH  15  16
HETATM   16  C   UNK N   1      32.206  17.846   8.386  0.00  0.00     0.215 C 
BRANCH  16  17
HETATM   17  C   UNK N   1      30.732  18.155   8.361  0.00  0.00     0.180 C 
HETATM   18  C   UNK N   1      29.881  18.092   9.613  0.00  0.00     0.182 C 
HETATM   19  C   UNK N   1      28.546  18.276   8.927  0.00  0.00     0.198 C 
HETATM   20  C   UNK N   1      28.761  17.400   7.670  0.00  0.00     0.262 C 
HETATM   21  O   UNK N   1      30.147  17.172   7.563  0.00  0.00    -0.353 OA
BRANCH  18  22
HETATM   22  O   UNK N   1      29.941  16.798  10.147  0.00  0.00    -0.390 OA
HETATM   23  H   UNK N   1      29.931  15.838  10.001  0.00  0.00     0.210 HD
ENDBRANCH  18  22
BRANCH  19  24
HETATM   24  O   UNK N   1      27.467  17.865   9.719  0.00  0.00    -0.388 OA
HETATM   25  H   UNK N   1      27.376  18.088  10.658  0.00  0.00     0.210 HD
ENDBRANCH  19  24
BRANCH  20  26
HETATM   26  N   UNK N   1      28.374  18.058   6.428  0.00  0.00    -0.297 N 
HETATM   27  C   UNK N   1      28.734  17.613   5.191  0.00  0.00     0.188 A 
HETATM   28  N   UNK N   1      28.236  18.399   4.211  0.00  0.00    -0.346 N 
HETATM   29  C   UNK N   1      27.553  19.347   4.871  0.00  0.00     0.122 A 
ATOM     30  HN  UNK N   1      28.351  18.296   3.203  1.00  0.00     0.167 HD
HETATM   31  C   UNK N   1      26.839  20.407   4.371  0.00  0.00     0.131 A 
HETATM   32  C   UNK N   1      27.638  19.143   6.203  0.00  0.00     0.142 A 
HETATM   33  N   UNK N   1      26.226  21.239   5.263  0.00  0.00    -0.337 N 
HETATM   34  C   UNK N   1      26.323  21.019   6.620  0.00  0.00     0.183 A 
ATOM     35  HN  UNK N   1      25.688  22.035   4.921  1.00  0.00     0.168 HD
HETATM   36  N   UNK N   1      27.038  19.955   7.104  0.00  0.00    -0.336 N 
ATOM     37  HN  UNK N   1      27.116  19.781   8.106  1.00  0.00     0.168 HD
BRANCH  31  38
HETATM   38  N   UNK N   1      26.739  20.624   2.983  0.00  0.00    -0.383 N 
HETATM   39  H   UNK N   1      26.933  21.497   2.572  0.00  0.00     0.157 HD
HETATM   40  H   UNK N   1      26.465  19.877   2.403  0.00  0.00     0.157 HD
ENDBRANCH  31  38
ENDBRANCH  20  26
ENDBRANCH  16  17
ENDBRANCH  15  16
ENDBRANCH  11  15
ENDBRANCH  10  11
ENDBRANCH   6  10
ENDBRANCH   5   6
ENDBRANCH   2   5
BRANCH   2  41
HETATM   41  O   UNK N   1      33.561  14.099   6.160  0.00  0.00    -0.195 OA
BRANCH  41  42
HETATM   42  P   UNK N   1      32.050  14.416   5.346  0.00  0.00     0.410 P 
HETATM   43  O   UNK N   1      31.675  15.907   5.191  0.00  0.00    -0.631 OA
BRANCH  42  44
HETATM   44  O   UNK N   1      31.542  14.625   6.986  0.00  0.00    -0.307 OA
HETATM   45  H   UNK N   1      31.004  13.967   7.453  0.00  0.00     0.222 HD
ENDBRANCH  42  44
BRANCH  42  46
HETATM   46  O   UNK N   1      30.655  13.384   5.294  0.00  0.00    -0.195 OA
BRANCH  46  47
HETATM   47  P   UNK N   1      29.945  13.452   3.704  0.00  0.00     0.401 P 
HETATM   48  O   UNK N   1      30.721  12.526   2.729  0.00  0.00    -0.631 OA
BRANCH  47  49
HETATM   49  O   UNK N   1      30.166  15.068   3.111  0.00  0.00    -0.307 OA
HETATM   50  H   UNK N   1      30.784  15.458   2.472  0.00  0.00     0.222 HD
ENDBRANCH  47  49
BRANCH  47  51
HETATM   51  O   UNK N   1      28.237  13.073   3.643  0.00  0.00    -0.294 OA
BRANCH  51  52
HETATM   52  C   UNK N   1      27.586  13.763   4.678  0.00  0.00     0.215 C 
BRANCH  52  53
HETATM   53  C   UNK N   1      26.141  14.115   4.314  0.00  0.00     0.180 C 
HETATM   54  C   UNK N   1      25.912  15.627   4.190  0.00  0.00     0.182 C 
HETATM   55  C   UNK N   1      24.682  15.839   5.051  0.00  0.00     0.198 C 
HETATM   56  C   UNK N   1      24.112  14.431   5.127  0.00  0.00     0.262 C 
HETATM   57  O   UNK N   1      25.237  13.601   5.256  0.00  0.00    -0.353 OA
BRANCH  54  58
HETATM   58  O   UNK N   1      25.651  15.952   2.855  0.00  0.00    -0.390 OA
HETATM   59  H   UNK N   1      25.301  16.719   2.376  0.00  0.00     0.210 HD
ENDBRANCH  54  58
BRANCH  55  60
HETATM   60  O   UNK N   1      25.096  16.225   6.330  0.00  0.00    -0.388 OA
HETATM   61  H   UNK N   1      25.540  16.166   7.191  0.00  0.00     0.210 HD
ENDBRANCH  55  60
BRANCH  56  62
HETATM   62  N   UNK N   1      23.228  14.243   6.276  0.00  0.00    -0.297 N 
HETATM   63  C   UNK N   1      21.874  14.381   6.276  0.00  0.00     0.188 A 
HETATM   64  N   UNK N   1      21.348  14.121   7.503  0.00  0.00    -0.346 N 
HETATM   65  C   UNK N   1      22.415  13.811   8.262  0.00  0.00     0.122 A 
ATOM     66  HN  UNK N   1      20.368  14.154   7.784  1.00  0.00     0.167 HD
HETATM   67  C   UNK N   1      22.475  13.437   9.589  0.00  0.00     0.131 A 
HETATM   68  C   UNK N   1      23.540  13.892   7.526  0.00  0.00     0.142 A 
HETATM   69  N   UNK N   1      23.703  13.152  10.118  0.00  0.00    -0.337 N 
HETATM   70  C   UNK N   1      24.841  13.241   9.350  0.00  0.00     0.183 A 
ATOM     71  HN  UNK N   1      23.778  12.871  11.095  1.00  0.00     0.168 HD
HETATM   72  N   UNK N   1      24.766  13.615   8.036  0.00  0.00    -0.336 N 
ATOM     73  HN  UNK N   1      25.604  13.683   7.457  1.00  0.00     0.168 HD
BRANCH  67  74
HETATM   74  N   UNK N   1      21.310  13.338  10.376  0.00  0.00    -0.383 N 
HETATM   75  H   UNK N   1      21.130  12.551  10.938  0.00  0.00     0.157 HD
HETATM   76  H   UNK N   1      20.660  14.077  10.363  0.00  0.00     0.157 HD
ENDBRANCH  67  74
ENDBRANCH  56  62
ENDBRANCH  52  53
ENDBRANCH  51  52
ENDBRANCH  47  51
ENDBRANCH  46  47
ENDBRANCH  42  46
ENDBRANCH  41  42
ENDBRANCH   2  41
TORSDOF 27
ENDMDL
MODEL 5
REMARK VINA RESULT:      -8.1      3.196      4.629
REMARK  27 active torsions:
REMARK  status: ('A' for Active; 'I' for Inactive)
REMARK    1  A    between atoms: C_7  and  C_1 
REMARK    2  A    between atoms: O_51  and  C_1 
REMARK    3  A    between atoms: C_8  and  C_2 
REMARK    4  A    between atoms: O_52  and  C_2 
REMARK    5  A    between atoms: C_11  and  O_37 
REMARK    6  A    between atoms: C_12  and  O_38 
REMARK    7  A    between atoms: C_13  and  O_39 
REMARK    8  A    between atoms: C_14  and  O_40 
REMARK    9  A    between atoms: N_21  and  C_15 
REMARK   10  A    between atoms: N_22  and  C_16 
REMARK   11  A    between atoms: C_19  and  N_35 
REMARK   12  A    between atoms: C_20  and  N_36 
REMARK   13  A    between atoms: P_59  and  O_41 
REMARK   14  A    between atoms: P_60  and  O_43 
REMARK   15  A    between atoms: P_61  and  O_45 
REMARK   16  A    between atoms: P_62  and  O_47 
REMARK   17  A    between atoms: P_63  and  O_49 
REMARK   18  A    between atoms: P_59  and  O_51 
REMARK   19  A    between atoms: P_60  and  O_52 
REMARK   20  A    between atoms: P_59  and  O_55 
REMARK   21  A    between atoms: P_61  and  O_55 
REMARK   22  A    between atoms: P_60  and  O_56 
REMARK   23  A    between atoms: P_62  and  O_56 
REMARK   24  A    between atoms: P_61  and  O_57 
REMARK   25  A    between atoms: P_63  and  O_57 
REMARK   26  A    between atoms: P_62  and  O_58 
REMARK   27  A    between atoms: P_63  and  O_58 
ROOT
HETATM    1  O   UNK N   1      33.294  17.974   4.644  0.00  0.00    -0.631 OA
HETATM    2  P   UNK N   1      33.558  16.968   5.795  0.00  0.00     0.410 P 
ENDROOT
BRANCH   2   3
HETATM    3  O   UNK N   1      32.034  16.852   6.624  0.00  0.00    -0.307 OA
HETATM    4  H   UNK N   1      31.183  16.708   6.180  0.00  0.00     0.222 HD
ENDBRANCH   2   3
BRANCH   2   5
HETATM    5  O   UNK N   1      34.129  15.526   4.992  0.00  0.00    -0.195 OA
BRANCH   5   6
HETATM    6  P   UNK N   1      33.041  15.065   3.714  0.00  0.00     0.410 P 
HETATM    7  O   UNK N   1      33.503  15.665   2.359  0.00  0.00    -0.631 OA
BRANCH   6   8
HETATM    8  O   UNK N   1      31.580  15.923   4.072  0.00  0.00    -0.307 OA
HETATM    9  H   UNK N   1      31.577  16.891   4.119  0.00  0.00     0.222 HD
ENDBRANCH   6   8
BRANCH   6  10
HETATM   10  O   UNK N   1      32.773  13.337   3.598  0.00  0.00    -0.195 OA
BRANCH  10  11
HETATM   11  P   UNK N   1      31.061  13.013   3.739  0.00  0.00     0.401 P 
HETATM   12  O   UNK N   1      30.661  13.400   5.194  0.00  0.00    -0.631 OA
BRANCH  11  13
HETATM   13  O   UNK N   1      30.617  11.343   3.571  0.00  0.00    -0.307 OA
HETATM   14  H   UNK N   1      30.740  10.632   4.219  0.00  0.00     0.222 HD
ENDBRANCH  11  13
BRANCH  11  15
HETATM   15  O   UNK N   1      30.186  14.064   2.676  0.00  0.00    -0.294 OA
BRANCH  15  16
HETATM   16  C   UNK N   1      28.901  13.573   2.843  0.00  0.00     0.215 C 
BRANCH  16  17
HETATM   17  C   UNK N   1      27.927  14.535   3.473  0.00  0.00     0.180 C 
HETATM   18  C   UNK N   1      26.574  14.821   2.853  0.00  0.00     0.182 C 
HETATM   19  C   UNK N   1      26.195  15.957   3.777  0.00  0.00     0.198 C 
HETATM   20  C   UNK N   1      27.557  16.685   3.888  0.00  0.00     0.262 C 
HETATM   21  O   UNK N   1      28.539  15.787   3.425  0.00  0.00    -0.353 OA
BRANCH  18  22
HETATM   22  O   UNK N   1      26.756  15.329   1.561  0.00  0.00    -0.390 OA
HETATM   23  H   UNK N   1      26.955  15.167   0.625  0.00  0.00     0.210 HD
ENDBRANCH  18  22
BRANCH  19  24
HETATM   24  O   UNK N   1      25.171  16.759   3.260  0.00  0.00    -0.388 OA
HETATM   25  H   UNK N   1      24.602  16.491   2.523  0.00  0.00     0.210 HD
ENDBRANCH  19  24
BRANCH  20  26
HETATM   26  N   UNK N   1      27.934  17.007   5.258  0.00  0.00    -0.297 N 
HETATM   27  C   UNK N   1      28.748  16.226   6.023  0.00  0.00     0.188 A 
HETATM   28  N   UNK N   1      28.946  16.758   7.250  0.00  0.00    -0.346 N 
HETATM   29  C   UNK N   1      28.234  17.895   7.228  0.00  0.00     0.122 A 
ATOM     30  HN  UNK N   1      29.507  16.383   8.015  1.00  0.00     0.167 HD
HETATM   31  C   UNK N   1      28.080  18.839   8.212  0.00  0.00     0.131 A 
HETATM   32  C   UNK N   1      27.626  18.044   6.033  0.00  0.00     0.142 A 
HETATM   33  N   UNK N   1      27.294  19.921   7.939  0.00  0.00    -0.337 N 
HETATM   34  C   UNK N   1      26.676  20.058   6.715  0.00  0.00     0.183 A 
ATOM     35  HN  UNK N   1      27.161  20.639   8.651  1.00  0.00     0.168 HD
HETATM   36  N   UNK N   1      26.842  19.108   5.742  0.00  0.00    -0.336 N 
ATOM     37  HN  UNK N   1      26.392  19.200   4.831  1.00  0.00     0.168 HD
BRANCH  31  38
HETATM   38  N   UNK N   1      28.717  18.696   9.461  0.00  0.00    -0.383 N 
HETATM   39  H   UNK N   1      28.216  18.524  10.290  0.00  0.00     0.157 HD
HETATM   40  H   UNK N   1      29.697  18.773   9.506  0.00  0.00     0.157 HD
ENDBRANCH  31  38
ENDBRANCH  20  26
ENDBRANCH  16  17
ENDBRANCH  15  16
ENDBRANCH  11  15
ENDBRANCH  10  11
ENDBRANCH   6  10
ENDBRANCH   5   6
ENDBRANCH   2   5
BRANCH   2  41
HETATM   41  O   UNK N   1      34.788  17.720   6.772  0.00  0.00    -0.195 OA
BRANCH  41  42
HETATM   42  P   UNK N   1      34.184  17.746   8.409  0.00  0.00     0.410 P 
HETATM   43  O   UNK N   1      32.911  18.589   8.638  0.00  0.00    -0.631 OA
BRANCH  42  44
HETATM   44  O   UNK N   1      34.995  19.272   8.378  0.00  0.00    -0.307 OA
HETATM   45  H   UNK N   1      34.683  20.039   8.883  0.00  0.00     0.222 HD
ENDBRANCH  42  44
BRANCH  42  46
HETATM   46  O   UNK N   1      35.108  17.551   9.866  0.00  0.00    -0.195 OA
BRANCH  46  47
HETATM   47  P   UNK N   1      35.480  15.863  10.094  0.00  0.00     0.401 P 
HETATM   48  O   UNK N   1      34.526  15.242  11.150  0.00  0.00    -0.631 OA
BRANCH  47  49
HETATM   49  O   UNK N   1      37.074  15.775  10.775  0.00  0.00    -0.307 OA
HETATM   50  H   UNK N   1      37.911  15.407  10.449  0.00  0.00     0.222 HD
ENDBRANCH  47  49
BRANCH  47  51
HETATM   51  O   UNK N   1      35.451  14.899   8.634  0.00  0.00    -0.294 OA
BRANCH  51  52
HETATM   52  C   UNK N   1      36.669  14.207   8.528  0.00  0.00     0.215 C 
BRANCH  52  53
HETATM   53  C   UNK N   1      36.530  12.736   8.930  0.00  0.00     0.180 C 
HETATM   54  C   UNK N   1      35.127  12.177   8.657  0.00  0.00     0.182 C 
HETATM   55  C   UNK N   1      34.776  11.525   9.980  0.00  0.00     0.198 C 
HETATM   56  C   UNK N   1      36.147  11.365  10.619  0.00  0.00     0.262 C 
HETATM   57  O   UNK N   1      36.831  12.546  10.287  0.00  0.00    -0.353 OA
BRANCH  54  58
HETATM   58  O   UNK N   1      35.194  11.227   7.633  0.00  0.00    -0.390 OA
HETATM   59  H   UNK N   1      35.640  10.378   7.492  0.00  0.00     0.210 HD
ENDBRANCH  54  58
BRANCH  55  60
HETATM   60  O   UNK N   1      34.032  12.434  10.740  0.00  0.00    -0.388 OA
HETATM   61  H   UNK N   1      33.260  12.821  11.182  0.00  0.00     0.210 HD
ENDBRANCH  55  60
BRANCH  56  62
HETATM   62  N   UNK N   1      36.079  11.229  12.072  0.00  0.00    -0.297 N 
HETATM   63  C   UNK N   1      35.942  10.064  12.762  0.00  0.00     0.188 A 
HETATM   64  N   UNK N   1      35.927  10.280  14.105  0.00  0.00    -0.346 N 
HETATM   65  C   UNK N   1      36.066  11.613  14.227  0.00  0.00     0.122 A 
ATOM     66  HN  UNK N   1      35.833   9.589  14.849  1.00  0.00     0.167 HD
HETATM   67  C   UNK N   1      36.141  12.391  15.364  0.00  0.00     0.131 A 
HETATM   68  C   UNK N   1      36.149  12.179  13.009  0.00  0.00     0.142 A 
HETATM   69  N   UNK N   1      36.306  13.739  15.207  0.00  0.00    -0.337 N 
HETATM   70  C   UNK N   1      36.389  14.299  13.953  0.00  0.00     0.183 A 
ATOM     71  HN  UNK N   1      36.367  14.339  16.029  1.00  0.00     0.168 HD
HETATM   72  N   UNK N   1      36.310  13.514  12.834  0.00  0.00    -0.336 N 
ATOM     73  HN  UNK N   1      36.371  13.919  11.900  1.00  0.00     0.168 HD
BRANCH  67  74
HETATM   74  N   UNK N   1      36.065  11.820  16.650  0.00  0.00    -0.383 N 
HETATM   75  H   UNK N   1      36.018  12.374  17.462  0.00  0.00     0.157 HD
HETATM   76  H   UNK N   1      36.058  10.840  16.739  0.00  0.00     0.157 HD
ENDBRANCH  67  74
ENDBRANCH  56  62
ENDBRANCH  52  53
ENDBRANCH  51  52
ENDBRANCH  47  51
ENDBRANCH  46  47
ENDBRANCH  42  46
ENDBRANCH  41  42
ENDBRANCH   2  41
TORSDOF 27
ENDMDL
MODEL 6
REMARK VINA RESULT:      -7.9      2.714      4.533
REMARK  27 active torsions:
REMARK  status: ('A' for Active; 'I' for Inactive)
REMARK    1  A    between atoms: C_7  and  C_1 
REMARK    2  A    between atoms: O_51  and  C_1 
REMARK    3  A    between atoms: C_8  and  C_2 
REMARK    4  A    between atoms: O_52  and  C_2 
REMARK    5  A    between atoms: C_11  and  O_37 
REMARK    6  A    between atoms: C_12  and  O_38 
REMARK    7  A    between atoms: C_13  and  O_39 
REMARK    8  A    between atoms: C_14  and  O_40 
REMARK    9  A    between atoms: N_21  and  C_15 
REMARK   10  A    between atoms: N_22  and  C_16 
REMARK   11  A    between atoms: C_19  and  N_35 
REMARK   12  A    between atoms: C_20  and  N_36 
REMARK   13  A    between atoms: P_59  and  O_41 
REMARK   14  A    between atoms: P_60  and  O_43 
REMARK   15  A    between atoms: P_61  and  O_45 
REMARK   16  A    between atoms: P_62  and  O_47 
REMARK   17  A    between atoms: P_63  and  O_49 
REMARK   18  A    between atoms: P_59  and  O_51 
REMARK   19  A    between atoms: P_60  and  O_52 
REMARK   20  A    between atoms: P_59  and  O_55 
REMARK   21  A    between atoms: P_61  and  O_55 
REMARK   22  A    between atoms: P_60  and  O_56 
REMARK   23  A    between atoms: P_62  and  O_56 
REMARK   24  A    between atoms: P_61  and  O_57 
REMARK   25  A    between atoms: P_63  and  O_57 
REMARK   26  A    between atoms: P_62  and  O_58 
REMARK   27  A    between atoms: P_63  and  O_58 
ROOT
HETATM    1  O   UNK N   1      28.560  18.904   7.361  0.00  0.00    -0.631 OA
HETATM    2  P   UNK N   1      28.661  17.356   7.328  0.00  0.00     0.410 P 
ENDROOT
BRANCH   2   3
HETATM    3  O   UNK N   1      27.069  16.811   7.763  0.00  0.00    -0.307 OA
HETATM    4  H   UNK N   1      26.779  15.886   7.717  0.00  0.00     0.222 HD
ENDBRANCH   2   3
BRANCH   2   5
HETATM    5  O   UNK N   1      29.203  16.989   5.708  0.00  0.00    -0.195 OA
BRANCH   5   6
HETATM    6  P   UNK N   1      28.094  17.631   4.530  0.00  0.00     0.410 P 
HETATM    7  O   UNK N   1      28.408  17.068   3.118  0.00  0.00    -0.631 OA
BRANCH   6   8
HETATM    8  O   UNK N   1      28.519  19.305   4.417  0.00  0.00    -0.307 OA
HETATM    9  H   UNK N   1      27.854  19.993   4.570  0.00  0.00     0.222 HD
ENDBRANCH   6   8
BRANCH   6  10
HETATM   10  O   UNK N   1      26.406  17.412   4.952  0.00  0.00    -0.195 OA
BRANCH  10  11
HETATM   11  P   UNK N   1      25.607  18.966   4.935  0.00  0.00     0.401 P 
HETATM   12  O   UNK N   1      25.879  19.582   3.530  0.00  0.00    -0.631 OA
BRANCH  11  13
HETATM   13  O   UNK N   1      26.232  20.122   6.070  0.00  0.00    -0.307 OA
HETATM   14  H   UNK N   1      25.760  20.865   6.475  0.00  0.00     0.222 HD
ENDBRANCH  11  13
BRANCH  11  15
HETATM   15  O   UNK N   1      23.896  18.736   5.065  0.00  0.00    -0.294 OA
BRANCH  15  16
HETATM   16  C   UNK N   1      23.466  19.422   3.940  0.00  0.00     0.215 C 
BRANCH  16  17
HETATM   17  C   UNK N   1      22.319  18.783   3.202  0.00  0.00     0.180 C 
HETATM   18  C   UNK N   1      21.055  19.552   2.870  0.00  0.00     0.182 C 
HETATM   19  C   UNK N   1      20.260  18.370   2.361  0.00  0.00     0.198 C 
HETATM   20  C   UNK N   1      20.684  17.293   3.389  0.00  0.00     0.262 C 
HETATM   21  O   UNK N   1      21.836  17.777   4.038  0.00  0.00    -0.353 OA
BRANCH  18  22
HETATM   22  O   UNK N   1      20.471  20.013   4.057  0.00  0.00    -0.390 OA
HETATM   23  H   UNK N   1      20.215  20.760   4.620  0.00  0.00     0.210 HD
ENDBRANCH  18  22
BRANCH  19  24
HETATM   24  O   UNK N   1      18.882  18.611   2.338  0.00  0.00    -0.388 OA
HETATM   25  H   UNK N   1      18.215  17.923   2.485  0.00  0.00     0.210 HD
ENDBRANCH  19  24
BRANCH  20  26
HETATM   26  N   UNK N   1      21.079  16.029   2.778  0.00  0.00    -0.297 N 
HETATM   27  C   UNK N   1      22.289  15.435   2.983  0.00  0.00     0.188 A 
HETATM   28  N   UNK N   1      22.395  14.269   2.308  0.00  0.00    -0.346 N 
HETATM   29  C   UNK N   1      21.217  14.151   1.678  0.00  0.00     0.122 A 
ATOM     30  HN  UNK N   1      23.187  13.627   2.284  1.00  0.00     0.167 HD
HETATM   31  C   UNK N   1      20.774  13.149   0.852  0.00  0.00     0.131 A 
HETATM   32  C   UNK N   1      20.427  15.209   1.959  0.00  0.00     0.142 A 
HETATM   33  N   UNK N   1      19.517  13.263   0.329  0.00  0.00    -0.337 N 
HETATM   34  C   UNK N   1      18.724  14.351   0.623  0.00  0.00     0.183 A 
ATOM     35  HN  UNK N   1      19.161  12.534  -0.288  1.00  0.00     0.168 HD
HETATM   36  N   UNK N   1      19.180  15.342   1.451  0.00  0.00    -0.336 N 
ATOM     37  HN  UNK N   1      18.600  16.150   1.678  1.00  0.00     0.168 HD
BRANCH  31  38
HETATM   38  N   UNK N   1      21.587  12.037   0.558  0.00  0.00    -0.383 N 
HETATM   39  H   UNK N   1      22.523  12.131   0.266  0.00  0.00     0.157 HD
HETATM   40  H   UNK N   1      21.207  11.133   0.646  0.00  0.00     0.157 HD
ENDBRANCH  31  38
ENDBRANCH  20  26
ENDBRANCH  16  17
ENDBRANCH  15  16
ENDBRANCH  11  15
ENDBRANCH  10  11
ENDBRANCH   6  10
ENDBRANCH   5   6
ENDBRANCH   2   5
BRANCH   2  41
HETATM   41  O   UNK N   1      29.851  16.960   8.536  0.00  0.00    -0.195 OA
BRANCH  41  42
HETATM   42  P   UNK N   1      31.406  17.386   7.868  0.00  0.00     0.410 P 
HETATM   43  O   UNK N   1      32.041  16.334   6.932  0.00  0.00    -0.631 OA
BRANCH  42  44
HETATM   44  O   UNK N   1      31.918  16.330   9.138  0.00  0.00    -0.307 OA
HETATM   45  H   UNK N   1      31.707  16.494  10.070  0.00  0.00     0.222 HD
ENDBRANCH  42  44
BRANCH  42  46
HETATM   46  O   UNK N   1      32.597  18.431   8.578  0.00  0.00    -0.195 OA
BRANCH  46  47
HETATM   47  P   UNK N   1      34.180  17.974   8.009  0.00  0.00     0.401 P 
HETATM   48  O   UNK N   1      35.227  19.043   8.421  0.00  0.00    -0.631 OA
BRANCH  47  49
HETATM   49  O   UNK N   1      34.128  17.995   6.274  0.00  0.00    -0.307 OA
HETATM   50  H   UNK N   1      34.734  18.342   5.600  0.00  0.00     0.222 HD
ENDBRANCH  47  49
BRANCH  47  51
HETATM   51  O   UNK N   1      34.720  16.391   8.523  0.00  0.00    -0.294 OA
BRANCH  51  52
HETATM   52  C   UNK N   1      35.155  15.676   7.396  0.00  0.00     0.215 C 
BRANCH  52  53
HETATM   53  C   UNK N   1      35.131  14.163   7.631  0.00  0.00     0.180 C 
HETATM   54  C   UNK N   1      33.707  13.606   7.763  0.00  0.00     0.182 C 
HETATM   55  C   UNK N   1      33.798  12.785   9.034  0.00  0.00     0.198 C 
HETATM   56  C   UNK N   1      35.300  12.583   9.164  0.00  0.00     0.262 C 
HETATM   57  O   UNK N   1      35.857  13.813   8.779  0.00  0.00    -0.353 OA
BRANCH  54  58
HETATM   58  O   UNK N   1      33.419  12.794   6.662  0.00  0.00    -0.390 OA
HETATM   59  H   UNK N   1      33.776  11.976   6.282  0.00  0.00     0.210 HD
ENDBRANCH  54  58
BRANCH  55  60
HETATM   60  O   UNK N   1      33.359  13.572  10.104  0.00  0.00    -0.388 OA
HETATM   61  H   UNK N   1      33.364  14.285  10.762  0.00  0.00     0.210 HD
ENDBRANCH  55  60
BRANCH  56  62
HETATM   62  N   UNK N   1      35.710  12.264  10.530  0.00  0.00    -0.297 N 
HETATM   63  C   UNK N   1      35.925  11.017  11.032  0.00  0.00     0.188 A 
HETATM   64  N   UNK N   1      36.311  11.065  12.335  0.00  0.00    -0.346 N 
HETATM   65  C   UNK N   1      36.336  12.379  12.625  0.00  0.00     0.122 A 
ATOM     66  HN  UNK N   1      36.532  10.284  12.952  1.00  0.00     0.167 HD
HETATM   67  C   UNK N   1      36.681  13.018  13.799  0.00  0.00     0.131 A 
HETATM   68  C   UNK N   1      35.968  13.094  11.545  0.00  0.00     0.142 A 
HETATM   69  N   UNK N   1      36.640  14.384  13.819  0.00  0.00    -0.337 N 
HETATM   70  C   UNK N   1      36.261  15.096  12.705  0.00  0.00     0.183 A 
ATOM     71  HN  UNK N   1      36.892  14.883  14.673  1.00  0.00     0.168 HD
HETATM   72  N   UNK N   1      35.919  14.449  11.549  0.00  0.00    -0.336 N 
ATOM     73  HN  UNK N   1      35.638  14.968  10.716  1.00  0.00     0.168 HD
BRANCH  67  74
HETATM   74  N   UNK N   1      37.077  12.291  14.939  0.00  0.00    -0.383 N 
HETATM   75  H   UNK N   1      37.983  12.368  15.315  0.00  0.00     0.157 HD
HETATM   76  H   UNK N   1      36.429  11.690  15.372  0.00  0.00     0.157 HD
ENDBRANCH  67  74
ENDBRANCH  56  62
ENDBRANCH  52  53
ENDBRANCH  51  52
ENDBRANCH  47  51
ENDBRANCH  46  47
ENDBRANCH  42  46
ENDBRANCH  41  42
ENDBRANCH   2  41
TORSDOF 27
ENDMDL
MODEL 7
REMARK VINA RESULT:      -7.9      5.088     13.198
REMARK  27 active torsions:
REMARK  status: ('A' for Active; 'I' for Inactive)
REMARK    1  A    between atoms: C_7  and  C_1 
REMARK    2  A    between atoms: O_51  and  C_1 
REMARK    3  A    between atoms: C_8  and  C_2 
REMARK    4  A    between atoms: O_52  and  C_2 
REMARK    5  A    between atoms: C_11  and  O_37 
REMARK    6  A    between atoms: C_12  and  O_38 
REMARK    7  A    between atoms: C_13  and  O_39 
REMARK    8  A    between atoms: C_14  and  O_40 
REMARK    9  A    between atoms: N_21  and  C_15 
REMARK   10  A    between atoms: N_22  and  C_16 
REMARK   11  A    between atoms: C_19  and  N_35 
REMARK   12  A    between atoms: C_20  and  N_36 
REMARK   13  A    between atoms: P_59  and  O_41 
REMARK   14  A    between atoms: P_60  and  O_43 
REMARK   15  A    between atoms: P_61  and  O_45 
REMARK   16  A    between atoms: P_62  and  O_47 
REMARK   17  A    between atoms: P_63  and  O_49 
REMARK   18  A    between atoms: P_59  and  O_51 
REMARK   19  A    between atoms: P_60  and  O_52 
REMARK   20  A    between atoms: P_59  and  O_55 
REMARK   21  A    between atoms: P_61  and  O_55 
REMARK   22  A    between atoms: P_60  and  O_56 
REMARK   23  A    between atoms: P_62  and  O_56 
REMARK   24  A    between atoms: P_61  and  O_57 
REMARK   25  A    between atoms: P_63  and  O_57 
REMARK   26  A    between atoms: P_62  and  O_58 
REMARK   27  A    between atoms: P_63  and  O_58 
ROOT
HETATM    1  O   UNK N   1      22.120  13.528   3.653  0.00  0.00    -0.631 OA
HETATM    2  P   UNK N   1      23.501  12.915   4.007  0.00  0.00     0.410 P 
ENDROOT
BRANCH   2   3
HETATM    3  O   UNK N   1      23.814  11.788   2.720  0.00  0.00    -0.307 OA
HETATM    4  H   UNK N   1      23.404  11.838   1.842  0.00  0.00     0.222 HD
ENDBRANCH   2   3
BRANCH   2   5
HETATM    5  O   UNK N   1      24.571  14.290   4.127  0.00  0.00    -0.195 OA
BRANCH   5   6
HETATM    6  P   UNK N   1      25.323  14.617   2.591  0.00  0.00     0.410 P 
HETATM    7  O   UNK N   1      25.621  16.133   2.439  0.00  0.00    -0.631 OA
BRANCH   6   8
HETATM    8  O   UNK N   1      24.069  14.320   1.435  0.00  0.00    -0.307 OA
HETATM    9  H   UNK N   1      24.208  13.691   0.711  0.00  0.00     0.222 HD
ENDBRANCH   6   8
BRANCH   6  10
HETATM   10  O   UNK N   1      26.747  13.644   2.277  0.00  0.00    -0.195 OA
BRANCH  10  11
HETATM   11  P   UNK N   1      27.774  13.661   3.692  0.00  0.00     0.401 P 
HETATM   12  O   UNK N   1      29.022  12.798   3.337  0.00  0.00    -0.631 OA
BRANCH  11  13
HETATM   13  O   UNK N   1      27.088  12.915   5.101  0.00  0.00    -0.307 OA
HETATM   14  H   UNK N   1      26.275  13.169   5.566  0.00  0.00     0.222 HD
ENDBRANCH  11  13
BRANCH  11  15
HETATM   15  O   UNK N   1      28.337  15.274   3.976  0.00  0.00    -0.294 OA
BRANCH  15  16
HETATM   16  C   UNK N   1      29.279  15.038   4.965  0.00  0.00     0.215 C 
BRANCH  16  17
HETATM   17  C   UNK N   1      30.644  15.617   4.697  0.00  0.00     0.180 C 
HETATM   18  C   UNK N   1      31.180  15.780   3.289  0.00  0.00     0.182 C 
HETATM   19  C   UNK N   1      32.586  16.176   3.681  0.00  0.00     0.198 C 
HETATM   20  C   UNK N   1      32.820  15.210   4.868  0.00  0.00     0.262 C 
HETATM   21  O   UNK N   1      31.557  14.721   5.253  0.00  0.00    -0.353 OA
BRANCH  18  22
HETATM   22  O   UNK N   1      31.220  14.528   2.662  0.00  0.00    -0.390 OA
HETATM   23  H   UNK N   1      31.474  13.592   2.694  0.00  0.00     0.210 HD
ENDBRANCH  18  22
BRANCH  19  24
HETATM   24  O   UNK N   1      33.506  16.017   2.639  0.00  0.00    -0.388 OA
HETATM   25  H   UNK N   1      33.871  16.756   2.129  0.00  0.00     0.210 HD
ENDBRANCH  19  24
BRANCH  20  26
HETATM   26  N   UNK N   1      33.365  15.864   6.051  0.00  0.00    -0.297 N 
HETATM   27  C   UNK N   1      33.865  17.132   6.053  0.00  0.00     0.188 A 
HETATM   28  N   UNK N   1      34.297  17.500   7.279  0.00  0.00    -0.346 N 
HETATM   29  C   UNK N   1      34.051  16.425   8.044  0.00  0.00     0.122 A 
ATOM     30  HN  UNK N   1      34.712  18.388   7.560  1.00  0.00     0.167 HD
HETATM   31  C   UNK N   1      34.288  16.244   9.384  0.00  0.00     0.131 A 
HETATM   32  C   UNK N   1      33.494  15.443   7.306  0.00  0.00     0.142 A 
HETATM   33  N   UNK N   1      33.942  15.043   9.935  0.00  0.00    -0.337 N 
HETATM   34  C   UNK N   1      33.376  14.048   9.168  0.00  0.00     0.183 A 
ATOM     35  HN  UNK N   1      34.106  14.880  10.928  1.00  0.00     0.168 HD
HETATM   36  N   UNK N   1      33.145  14.246   7.832  0.00  0.00    -0.336 N 
ATOM     37  HN  UNK N   1      32.724  13.517   7.255  1.00  0.00     0.168 HD
BRANCH  31  38
HETATM   38  N   UNK N   1      34.863  17.266  10.165  0.00  0.00    -0.383 N 
HETATM   39  H   UNK N   1      34.409  17.646  10.951  0.00  0.00     0.157 HD
HETATM   40  H   UNK N   1      35.750  17.612   9.915  0.00  0.00     0.157 HD
ENDBRANCH  31  38
ENDBRANCH  20  26
ENDBRANCH  16  17
ENDBRANCH  15  16
ENDBRANCH  11  15
ENDBRANCH  10  11
ENDBRANCH   6  10
ENDBRANCH   5   6
ENDBRANCH   2   5
BRANCH   2  41
HETATM   41  O   UNK N   1      23.258  12.122   5.538  0.00  0.00    -0.195 OA
BRANCH  41  42
HETATM   42  P   UNK N   1      23.712  13.267   6.774  0.00  0.00     0.410 P 
HETATM   43  O   UNK N   1      25.196  13.235   7.201  0.00  0.00    -0.631 OA
BRANCH  42  44
HETATM   44  O   UNK N   1      23.570  11.841   7.742  0.00  0.00    -0.307 OA
HETATM   45  H   UNK N   1      24.305  11.497   8.275  0.00  0.00     0.222 HD
ENDBRANCH  42  44
BRANCH  42  46
HETATM   46  O   UNK N   1      22.691  13.925   8.015  0.00  0.00    -0.195 OA
BRANCH  46  47
HETATM   47  P   UNK N   1      21.031  13.875   7.484  0.00  0.00     0.401 P 
HETATM   48  O   UNK N   1      20.076  14.096   8.688  0.00  0.00    -0.631 OA
BRANCH  47  49
HETATM   49  O   UNK N   1      20.722  12.265   6.914  0.00  0.00    -0.307 OA
HETATM   50  H   UNK N   1      21.152  11.411   7.085  0.00  0.00     0.222 HD
ENDBRANCH  47  49
BRANCH  47  51
HETATM   51  O   UNK N   1      20.634  14.997   6.202  0.00  0.00    -0.294 OA
BRANCH  51  52
HETATM   52  C   UNK N   1      20.653  16.301   6.724  0.00  0.00     0.215 C 
BRANCH  52  53
HETATM   53  C   UNK N   1      20.645  17.362   5.620  0.00  0.00     0.180 C 
HETATM   54  C   UNK N   1      20.381  16.769   4.229  0.00  0.00     0.182 C 
HETATM   55  C   UNK N   1      21.502  17.369   3.404  0.00  0.00     0.198 C 
HETATM   56  C   UNK N   1      21.920  18.551   4.265  0.00  0.00     0.262 C 
HETATM   57  O   UNK N   1      21.856  18.069   5.582  0.00  0.00    -0.353 OA
BRANCH  54  58
HETATM   58  O   UNK N   1      19.134  17.198   3.767  0.00  0.00    -0.390 OA
HETATM   59  H   UNK N   1      18.496  17.887   4.009  0.00  0.00     0.210 HD
ENDBRANCH  54  58
BRANCH  55  60
HETATM   60  O   UNK N   1      22.559  16.453   3.358  0.00  0.00    -0.388 OA
HETATM   61  H   UNK N   1      23.010  15.594   3.365  0.00  0.00     0.210 HD
ENDBRANCH  55  60
BRANCH  56  62
HETATM   62  N   UNK N   1      23.278  19.007   3.974  0.00  0.00    -0.297 N 
HETATM   63  C   UNK N   1      23.616  20.076   3.202  0.00  0.00     0.188 A 
HETATM   64  N   UNK N   1      24.965  20.240   3.144  0.00  0.00    -0.346 N 
HETATM   65  C   UNK N   1      25.453  19.247   3.909  0.00  0.00     0.122 A 
ATOM     66  HN  UNK N   1      25.488  20.954   2.636  1.00  0.00     0.167 HD
HETATM   67  C   UNK N   1      26.760  18.941   4.230  0.00  0.00     0.131 A 
HETATM   68  C   UNK N   1      24.441  18.506   4.399  0.00  0.00     0.142 A 
HETATM   69  N   UNK N   1      26.982  17.875   5.057  0.00  0.00    -0.337 N 
HETATM   70  C   UNK N   1      25.934  17.130   5.547  0.00  0.00     0.183 A 
ATOM     71  HN  UNK N   1      27.938  17.627   5.313  1.00  0.00     0.168 HD
HETATM   72  N   UNK N   1      24.644  17.444   5.217  0.00  0.00    -0.336 N 
ATOM     73  HN  UNK N   1      23.860  16.898   5.576  1.00  0.00     0.168 HD
BRANCH  67  74
HETATM   74  N   UNK N   1      27.834  19.707   3.736  0.00  0.00    -0.383 N 
HETATM   75  H   UNK N   1      28.524  19.317   3.151  0.00  0.00     0.157 HD
HETATM   76  H   UNK N   1      27.898  20.657   3.982  0.00  0.00     0.157 HD
ENDBRANCH  67  74
ENDBRANCH  56  62
ENDBRANCH  52  53
ENDBRANCH  51  52
ENDBRANCH  47  51
ENDBRANCH  46  47
ENDBRANCH  42  46
ENDBRANCH  41  42
ENDBRANCH   2  41
TORSDOF 27
ENDMDL
MODEL 8
REMARK VINA RESULT:      -7.9      2.307      3.857
REMARK  27 active torsions:
REMARK  status: ('A' for Active; 'I' for Inactive)
REMARK    1  A    between atoms: C_7  and  C_1 
REMARK    2  A    between atoms: O_51  and  C_1 
REMARK    3  A    between atoms: C_8  and  C_2 
REMARK    4  A    between atoms: O_52  and  C_2 
REMARK    5  A    between atoms: C_11  and  O_37 
REMARK    6  A    between atoms: C_12  and  O_38 
REMARK    7  A    between atoms: C_13  and  O_39 
REMARK    8  A    between atoms: C_14  and  O_40 
REMARK    9  A    between atoms: N_21  and  C_15 
REMARK   10  A    between atoms: N_22  and  C_16 
REMARK   11  A    between atoms: C_19  and  N_35 
REMARK   12  A    between atoms: C_20  and  N_36 
REMARK   13  A    between atoms: P_59  and  O_41 
REMARK   14  A    between atoms: P_60  and  O_43 
REMARK   15  A    between atoms: P_61  and  O_45 
REMARK   16  A    between atoms: P_62  and  O_47 
REMARK   17  A    between atoms: P_63  and  O_49 
REMARK   18  A    between atoms: P_59  and  O_51 
REMARK   19  A    between atoms: P_60  and  O_52 
REMARK   20  A    between atoms: P_59  and  O_55 
REMARK   21  A    between atoms: P_61  and  O_55 
REMARK   22  A    between atoms: P_60  and  O_56 
REMARK   23  A    between atoms: P_62  and  O_56 
REMARK   24  A    between atoms: P_61  and  O_57 
REMARK   25  A    between atoms: P_63  and  O_57 
REMARK   26  A    between atoms: P_62  and  O_58 
REMARK   27  A    between atoms: P_63  and  O_58 
ROOT
HETATM    1  O   UNK N   1      33.810  15.125   5.835  0.00  0.00    -0.631 OA
HETATM    2  P   UNK N   1      33.287  16.585   5.888  0.00  0.00     0.410 P 
ENDROOT
BRANCH   2   3
HETATM    3  O   UNK N   1      33.004  17.001   4.224  0.00  0.00    -0.307 OA
HETATM    4  H   UNK N   1      32.462  16.474   3.616  0.00  0.00     0.222 HD
ENDBRANCH   2   3
BRANCH   2   5
HETATM    5  O   UNK N   1      31.887  16.509   6.930  0.00  0.00    -0.195 OA
BRANCH   5   6
HETATM    6  P   UNK N   1      30.422  16.572   5.993  0.00  0.00     0.410 P 
HETATM    7  O   UNK N   1      30.381  17.859   5.126  0.00  0.00    -0.631 OA
BRANCH   6   8
HETATM    8  O   UNK N   1      29.178  16.823   7.170  0.00  0.00    -0.307 OA
HETATM    9  H   UNK N   1      28.246  16.843   6.904  0.00  0.00     0.222 HD
ENDBRANCH   6   8
BRANCH   6  10
HETATM   10  O   UNK N   1      30.132  15.135   5.031  0.00  0.00    -0.195 OA
BRANCH  10  11
HETATM   11  P   UNK N   1      29.011  15.524   3.746  0.00  0.00     0.401 P 
HETATM   12  O   UNK N   1      28.905  14.249   2.858  0.00  0.00    -0.631 OA
BRANCH  11  13
HETATM   13  O   UNK N   1      29.537  16.786   2.676  0.00  0.00    -0.307 OA
HETATM   14  H   UNK N   1      29.003  17.269   2.026  0.00  0.00     0.222 HD
ENDBRANCH  11  13
BRANCH  11  15
HETATM   15  O   UNK N   1      27.441  15.807   4.419  0.00  0.00    -0.294 OA
BRANCH  15  16
HETATM   16  C   UNK N   1      26.790  16.336   3.315  0.00  0.00     0.215 C 
BRANCH  16  17
HETATM   17  C   UNK N   1      26.126  17.669   3.544  0.00  0.00     0.180 C 
HETATM   18  C   UNK N   1      26.883  18.851   4.114  0.00  0.00     0.182 C 
HETATM   19  C   UNK N   1      25.685  19.755   4.296  0.00  0.00     0.198 C 
HETATM   20  C   UNK N   1      24.646  18.731   4.813  0.00  0.00     0.262 C 
HETATM   21  O   UNK N   1      25.152  17.451   4.518  0.00  0.00    -0.353 OA
BRANCH  18  22
HETATM   22  O   UNK N   1      27.389  18.510   5.375  0.00  0.00    -0.390 OA
HETATM   23  H   UNK N   1      27.701  18.794   6.249  0.00  0.00     0.210 HD
ENDBRANCH  18  22
BRANCH  19  24
HETATM   24  O   UNK N   1      25.928  20.806   5.188  0.00  0.00    -0.388 OA
HETATM   25  H   UNK N   1      25.285  21.508   5.376  0.00  0.00     0.210 HD
ENDBRANCH  19  24
BRANCH  20  26
HETATM   26  N   UNK N   1      23.360  18.812   4.131  0.00  0.00    -0.297 N 
HETATM   27  C   UNK N   1      22.995  19.849   3.324  0.00  0.00     0.188 A 
HETATM   28  N   UNK N   1      21.758  19.672   2.809  0.00  0.00    -0.346 N 
HETATM   29  C   UNK N   1      21.362  18.494   3.315  0.00  0.00     0.122 A 
ATOM     30  HN  UNK N   1      21.244  20.290   2.180  1.00  0.00     0.167 HD
HETATM   31  C   UNK N   1      20.182  17.821   3.120  0.00  0.00     0.131 A 
HETATM   32  C   UNK N   1      22.323  17.979   4.110  0.00  0.00     0.142 A 
HETATM   33  N   UNK N   1      20.020  16.623   3.755  0.00  0.00    -0.337 N 
HETATM   34  C   UNK N   1      21.010  16.111   4.566  0.00  0.00     0.183 A 
ATOM     35  HN  UNK N   1      19.154  16.100   3.629  1.00  0.00     0.168 HD
HETATM   36  N   UNK N   1      22.183  16.795   4.749  0.00  0.00    -0.336 N 
ATOM     37  HN  UNK N   1      22.923  16.424   5.345  1.00  0.00     0.168 HD
BRANCH  31  38
HETATM   38  N   UNK N   1      19.175  18.347   2.287  0.00  0.00    -0.383 N 
HETATM   39  H   UNK N   1      18.224  18.122   2.404  0.00  0.00     0.157 HD
HETATM   40  H   UNK N   1      19.432  18.961   1.561  0.00  0.00     0.157 HD
ENDBRANCH  31  38
ENDBRANCH  20  26
ENDBRANCH  16  17
ENDBRANCH  15  16
ENDBRANCH  11  15
ENDBRANCH  10  11
ENDBRANCH   6  10
ENDBRANCH   5   6
ENDBRANCH   2   5
BRANCH   2  41
HETATM   41  O   UNK N   1      34.592  17.501   6.588  0.00  0.00    -0.195 OA
BRANCH  41  42
HETATM   42  P   UNK N   1      34.186  17.751   8.267  0.00  0.00     0.410 P 
HETATM   43  O   UNK N   1      33.134  18.847   8.543  0.00  0.00    -0.631 OA
BRANCH  42  44
HETATM   44  O   UNK N   1      35.271  19.077   8.033  0.00  0.00    -0.307 OA
HETATM   45  H   UNK N   1      35.105  19.958   8.404  0.00  0.00     0.222 HD
ENDBRANCH  42  44
BRANCH  42  46
HETATM   46  O   UNK N   1      35.207  17.465   9.642  0.00  0.00    -0.195 OA
BRANCH  46  47
HETATM   47  P   UNK N   1      35.248  15.757   9.986  0.00  0.00     0.401 P 
HETATM   48  O   UNK N   1      35.529  14.954   8.688  0.00  0.00    -0.631 OA
BRANCH  47  49
HETATM   49  O   UNK N   1      33.654  15.299  10.500  0.00  0.00    -0.307 OA
HETATM   50  H   UNK N   1      32.889  15.809  10.809  0.00  0.00     0.222 HD
ENDBRANCH  47  49
BRANCH  47  51
HETATM   51  O   UNK N   1      36.384  15.284  11.231  0.00  0.00    -0.294 OA
BRANCH  51  52
HETATM   52  C   UNK N   1      35.734  15.330  12.474  0.00  0.00     0.215 C 
BRANCH  52  53
HETATM   53  C   UNK N   1      35.612  13.943  13.111  0.00  0.00     0.180 C 
HETATM   54  C   UNK N   1      36.948  13.186  13.144  0.00  0.00     0.182 C 
HETATM   55  C   UNK N   1      36.571  11.840  12.556  0.00  0.00     0.198 C 
HETATM   56  C   UNK N   1      35.060  11.837  12.734  0.00  0.00     0.262 C 
HETATM   57  O   UNK N   1      34.667  13.153  12.439  0.00  0.00    -0.353 OA
BRANCH  54  58
HETATM   58  O   UNK N   1      37.376  13.052  14.467  0.00  0.00    -0.390 OA
HETATM   59  H   UNK N   1      38.201  13.201  14.956  0.00  0.00     0.210 HD
ENDBRANCH  54  58
BRANCH  55  60
HETATM   60  O   UNK N   1      36.860  11.857  11.187  0.00  0.00    -0.388 OA
HETATM   61  H   UNK N   1      37.301  11.623  10.355  0.00  0.00     0.210 HD
ENDBRANCH  55  60
BRANCH  56  62
HETATM   62  N   UNK N   1      34.388  10.909  11.828  0.00  0.00    -0.297 N 
HETATM   63  C   UNK N   1      34.071   9.613  12.099  0.00  0.00     0.188 A 
HETATM   64  N   UNK N   1      33.435   9.026  11.049  0.00  0.00    -0.346 N 
HETATM   65  C   UNK N   1      33.362   9.999  10.122  0.00  0.00     0.122 A 
ATOM     66  HN  UNK N   1      33.093   8.068  10.981  1.00  0.00     0.167 HD
HETATM   67  C   UNK N   1      32.796   9.977   8.863  0.00  0.00     0.131 A 
HETATM   68  C   UNK N   1      33.939  11.122  10.588  0.00  0.00     0.142 A 
HETATM   69  N   UNK N   1      32.840  11.124   8.122  0.00  0.00    -0.337 N 
HETATM   70  C   UNK N   1      33.435  12.262   8.617  0.00  0.00     0.183 A 
ATOM     71  HN  UNK N   1      32.427  11.138   7.189  1.00  0.00     0.168 HD
HETATM   72  N   UNK N   1      33.994  12.268   9.865  0.00  0.00    -0.336 N 
ATOM     73  HN  UNK N   1      34.437  13.107  10.242  1.00  0.00     0.168 HD
BRANCH  67  74
HETATM   74  N   UNK N   1      32.179   8.815   8.358  0.00  0.00    -0.383 N 
HETATM   75  H   UNK N   1      31.277   8.836   7.964  0.00  0.00     0.157 HD
HETATM   76  H   UNK N   1      32.663   7.959   8.399  0.00  0.00     0.157 HD
ENDBRANCH  67  74
ENDBRANCH  56  62
ENDBRANCH  52  53
ENDBRANCH  51  52
ENDBRANCH  47  51
ENDBRANCH  46  47
ENDBRANCH  42  46
ENDBRANCH  41  42
ENDBRANCH   2  41
TORSDOF 27
ENDMDL
MODEL 9
REMARK VINA RESULT:      -7.8      5.487      7.538
REMARK  27 active torsions:
REMARK  status: ('A' for Active; 'I' for Inactive)
REMARK    1  A    between atoms: C_7  and  C_1 
REMARK    2  A    between atoms: O_51  and  C_1 
REMARK    3  A    between atoms: C_8  and  C_2 
REMARK    4  A    between atoms: O_52  and  C_2 
REMARK    5  A    between atoms: C_11  and  O_37 
REMARK    6  A    between atoms: C_12  and  O_38 
REMARK    7  A    between atoms: C_13  and  O_39 
REMARK    8  A    between atoms: C_14  and  O_40 
REMARK    9  A    between atoms: N_21  and  C_15 
REMARK   10  A    between atoms: N_22  and  C_16 
REMARK   11  A    between atoms: C_19  and  N_35 
REMARK   12  A    between atoms: C_20  and  N_36 
REMARK   13  A    between atoms: P_59  and  O_41 
REMARK   14  A    between atoms: P_60  and  O_43 
REMARK   15  A    between atoms: P_61  and  O_45 
REMARK   16  A    between atoms: P_62  and  O_47 
REMARK   17  A    between atoms: P_63  and  O_49 
REMARK   18  A    between atoms: P_59  and  O_51 
REMARK   19  A    between atoms: P_60  and  O_52 
REMARK   20  A    between atoms: P_59  and  O_55 
REMARK   21  A    between atoms: P_61  and  O_55 
REMARK   22  A    between atoms: P_60  and  O_56 
REMARK   23  A    between atoms: P_62  and  O_56 
REMARK   24  A    between atoms: P_61  and  O_57 
REMARK   25  A    between atoms: P_63  and  O_57 
REMARK   26  A    between atoms: P_62  and  O_58 
REMARK   27  A    between atoms: P_63  and  O_58 
ROOT
HETATM    1  O   UNK N   1      27.430  14.925   1.297  0.00  0.00    -0.631 OA
HETATM    2  P   UNK N   1      26.910  15.205   2.732  0.00  0.00     0.410 P 
ENDROOT
BRANCH   2   3
HETATM    3  O   UNK N   1      27.485  16.805   3.093  0.00  0.00    -0.307 OA
HETATM    4  H   UNK N   1      28.385  17.115   2.905  0.00  0.00     0.222 HD
ENDBRANCH   2   3
BRANCH   2   5
HETATM    5  O   UNK N   1      25.179  14.997   2.617  0.00  0.00    -0.195 OA
BRANCH   5   6
HETATM    6  P   UNK N   1      24.400  15.532   4.079  0.00  0.00     0.410 P 
HETATM    7  O   UNK N   1      23.832  14.324   4.871  0.00  0.00    -0.631 OA
BRANCH   6   8
HETATM    8  O   UNK N   1      22.989  16.368   3.524  0.00  0.00    -0.307 OA
HETATM    9  H   UNK N   1      22.184  15.877   3.297  0.00  0.00     0.222 HD
ENDBRANCH   6   8
BRANCH   6  10
HETATM   10  O   UNK N   1      25.408  16.551   5.089  0.00  0.00    -0.195 OA
BRANCH  10  11
HETATM   11  P   UNK N   1      24.814  18.193   5.017  0.00  0.00     0.401 P 
HETATM   12  O   UNK N   1      25.842  19.065   5.799  0.00  0.00    -0.631 OA
BRANCH  11  13
HETATM   13  O   UNK N   1      23.294  18.455   5.815  0.00  0.00    -0.307 OA
HETATM   14  H   UNK N   1      23.116  19.039   6.568  0.00  0.00     0.222 HD
ENDBRANCH  11  13
BRANCH  11  15
HETATM   15  O   UNK N   1      24.829  18.741   3.375  0.00  0.00    -0.294 OA
BRANCH  15  16
HETATM   16  C   UNK N   1      23.923  19.786   3.453  0.00  0.00     0.215 C 
BRANCH  16  17
HETATM   17  C   UNK N   1      22.742  19.679   2.523  0.00  0.00     0.180 C 
HETATM   18  C   UNK N   1      22.163  20.893   1.824  0.00  0.00     0.182 C 
HETATM   19  C   UNK N   1      20.946  20.201   1.253  0.00  0.00     0.198 C 
HETATM   20  C   UNK N   1      20.556  19.301   2.450  0.00  0.00     0.262 C 
HETATM   21  O   UNK N   1      21.671  19.257   3.309  0.00  0.00    -0.353 OA
BRANCH  18  22
HETATM   22  O   UNK N   1      21.746  21.822   2.785  0.00  0.00    -0.390 OA
HETATM   23  H   UNK N   1      21.210  22.023   3.569  0.00  0.00     0.210 HD
ENDBRANCH  18  22
BRANCH  19  24
HETATM   24  O   UNK N   1      19.939  21.097   0.874  0.00  0.00    -0.388 OA
HETATM   25  H   UNK N   1      19.099  20.822   0.475  0.00  0.00     0.210 HD
ENDBRANCH  19  24
BRANCH  20  26
HETATM   26  N   UNK N   1      20.294  17.916   2.075  0.00  0.00    -0.297 N 
HETATM   27  C   UNK N   1      20.318  17.462   0.790  0.00  0.00     0.188 A 
HETATM   28  N   UNK N   1      20.051  16.139   0.720  0.00  0.00    -0.346 N 
HETATM   29  C   UNK N   1      19.862  15.779   1.999  0.00  0.00     0.122 A 
ATOM     30  HN  UNK N   1      20.005  15.550  -0.111  1.00  0.00     0.167 HD
HETATM   31  C   UNK N   1      19.566  14.543   2.516  0.00  0.00     0.131 A 
HETATM   32  C   UNK N   1      20.007  16.847   2.812  0.00  0.00     0.142 A 
HETATM   33  N   UNK N   1      19.422  14.437   3.870  0.00  0.00    -0.337 N 
HETATM   34  C   UNK N   1      19.570  15.536   4.687  0.00  0.00     0.183 A 
ATOM     35  HN  UNK N   1      19.202  13.530   4.282  1.00  0.00     0.168 HD
HETATM   36  N   UNK N   1      19.868  16.764   4.155  0.00  0.00    -0.336 N 
ATOM     37  HN  UNK N   1      19.982  17.584   4.751  1.00  0.00     0.168 HD
BRANCH  31  38
HETATM   38  N   UNK N   1      19.420  13.421   1.677  0.00  0.00    -0.383 N 
HETATM   39  H   UNK N   1      18.539  13.053   1.439  0.00  0.00     0.157 HD
HETATM   40  H   UNK N   1      20.228  12.990   1.315  0.00  0.00     0.157 HD
ENDBRANCH  31  38
ENDBRANCH  20  26
ENDBRANCH  16  17
ENDBRANCH  15  16
ENDBRANCH  11  15
ENDBRANCH  10  11
ENDBRANCH   6  10
ENDBRANCH   5   6
ENDBRANCH   2   5
BRANCH   2  41
HETATM   41  O   UNK N   1      27.664  13.989   3.724  0.00  0.00    -0.195 OA
BRANCH  41  42
HETATM   42  P   UNK N   1      28.645  13.011   2.663  0.00  0.00     0.410 P 
HETATM   43  O   UNK N   1      27.936  11.793   2.033  0.00  0.00    -0.631 OA
BRANCH  42  44
HETATM   44  O   UNK N   1      28.705  12.035   4.090  0.00  0.00    -0.307 OA
HETATM   45  H   UNK N   1      29.055  11.131   4.089  0.00  0.00     0.222 HD
ENDBRANCH  42  44
BRANCH  42  46
HETATM   46  O   UNK N   1      30.367  12.800   2.732  0.00  0.00    -0.195 OA
BRANCH  46  47
HETATM   47  P   UNK N   1      31.049  13.970   3.829  0.00  0.00     0.401 P 
HETATM   48  O   UNK N   1      30.604  13.664   5.285  0.00  0.00    -0.631 OA
BRANCH  47  49
HETATM   49  O   UNK N   1      30.359  15.512   3.430  0.00  0.00    -0.307 OA
HETATM   50  H   UNK N   1      30.088  15.916   2.590  0.00  0.00     0.222 HD
ENDBRANCH  47  49
BRANCH  47  51
HETATM   51  O   UNK N   1      32.792  14.114   3.764  0.00  0.00    -0.294 OA
BRANCH  51  52
HETATM   52  C   UNK N   1      33.123  15.451   3.494  0.00  0.00     0.215 C 
BRANCH  52  53
HETATM   53  C   UNK N   1      33.580  16.195   4.752  0.00  0.00     0.180 C 
HETATM   54  C   UNK N   1      34.190  15.259   5.805  0.00  0.00     0.182 C 
HETATM   55  C   UNK N   1      33.444  15.659   7.063  0.00  0.00     0.198 C 
HETATM   56  C   UNK N   1      32.912  17.032   6.684  0.00  0.00     0.262 C 
HETATM   57  O   UNK N   1      32.521  16.901   5.342  0.00  0.00    -0.353 OA
BRANCH  54  58
HETATM   58  O   UNK N   1      35.557  15.523   5.929  0.00  0.00    -0.390 OA
HETATM   59  H   UNK N   1      36.283  15.754   5.329  0.00  0.00     0.210 HD
ENDBRANCH  54  58
BRANCH  55  60
HETATM   60  O   UNK N   1      32.360  14.790   7.232  0.00  0.00    -0.388 OA
HETATM   61  H   UNK N   1      31.449  14.507   7.409  0.00  0.00     0.210 HD
ENDBRANCH  55  60
BRANCH  56  62
HETATM   62  N   UNK N   1      31.764  17.435   7.493  0.00  0.00    -0.297 N 
HETATM   63  C   UNK N   1      31.810  18.158   8.645  0.00  0.00     0.188 A 
HETATM   64  N   UNK N   1      30.564  18.377   9.145  0.00  0.00    -0.346 N 
HETATM   65  C   UNK N   1      29.744  17.775   8.265  0.00  0.00     0.122 A 
ATOM     66  HN  UNK N   1      30.310  18.883   9.994  1.00  0.00     0.167 HD
HETATM   67  C   UNK N   1      28.366  17.697   8.254  0.00  0.00     0.131 A 
HETATM   68  C   UNK N   1      30.465  17.205   7.281  0.00  0.00     0.142 A 
HETATM   69  N   UNK N   1      27.772  17.033   7.217  0.00  0.00    -0.337 N 
HETATM   70  C   UNK N   1      28.527  16.457   6.221  0.00  0.00     0.183 A 
ATOM     71  HN  UNK N   1      26.755  16.961   7.182  1.00  0.00     0.168 HD
HETATM   72  N   UNK N   1      29.892  16.541   6.248  0.00  0.00    -0.336 N 
ATOM     73  HN  UNK N   1      30.461  16.118   5.513  1.00  0.00     0.168 HD
BRANCH  67  74
HETATM   74  N   UNK N   1      27.590  18.292   9.269  0.00  0.00    -0.383 N 
HETATM   75  H   UNK N   1      27.754  19.213   9.574  0.00  0.00     0.157 HD
HETATM   76  H   UNK N   1      26.865  17.772   9.684  0.00  0.00     0.157 HD
ENDBRANCH  67  74
ENDBRANCH  56  62
ENDBRANCH  52  53
ENDBRANCH  51  52
ENDBRANCH  47  51
ENDBRANCH  46  47
ENDBRANCH  42  46
ENDBRANCH  41  42
ENDBRANCH   2  41
TORSDOF 27
ENDMDL
