REMARK  12 active torsions:
REMARK  status: ('A' for Active; 'I' for Inactive)
REMARK    1  A    between atoms: O_1  and  C_2 
REMARK    2  A    between atoms: C_2  and  C_4 
REMARK    3  A    between atoms: C_5  and  C_6 
REMARK    4  A    between atoms: C_6  and  O_7 
REMARK    5  A    between atoms: C_9  and  C_10 
REMARK    6  A    between atoms: C_10  and  O_11 
REMARK    7  A    between atoms: C_13  and  C_14 
REMARK    8  A    between atoms: C_14  and  O_15 
REMARK    9  A    between atoms: C_17  and  C_18 
REMARK   10  A    between atoms: C_18  and  O_19 
REMARK   11  A    between atoms: C_21  and  C_22 
REMARK   12  A    between atoms: C_22  and  O_23 
ROOT
HETATM    1  C   UNK N   1       1.856   1.181  -0.000  0.00  0.00     0.073 A 
HETATM    2  C   UNK N   1       1.874  -0.342  -0.000  0.00  0.00     0.073 A 
HETATM    3  C   UNK N   1       0.568  -1.130   0.000  0.00  0.00     0.073 A 
HETATM    4  C   UNK N   1      -0.764  -0.371   0.000  0.00  0.00     0.073 A 
HETATM    5  C   UNK N   1      -0.784   1.157  -0.000  0.00  0.00     0.073 A 
HETATM    6  C   UNK N   1       0.533   1.941  -0.000  0.00  0.00     0.073 A 
ENDROOT
BRANCH   1   7
HETATM    7  C   UNK N   1       3.247   2.006   0.000  0.00  0.00     0.178 C 
HETATM    8  O   UNK N   1       3.301   3.185  -0.000  0.00  0.00    -0.646 OA
BRANCH   7   9
HETATM    9  O   UNK N   1       4.461   1.518   0.000  0.00  0.00    -0.773 OA
HETATM   10  H   UNK N   1       4.592   0.590   0.000  0.00  0.00     0.167 HD
ENDBRANCH   7   9
ENDBRANCH   1   7
BRANCH   2  11
HETATM   11  C   UNK N   1       3.284  -1.137  -0.000  0.00  0.00     0.178 C 
HETATM   12  O   UNK N   1       3.365  -2.315   0.000  0.00  0.00    -0.646 OA
BRANCH  11  13
HETATM   13  O   UNK N   1       4.486  -0.622  -0.000  0.00  0.00    -0.773 OA
HETATM   14  H   UNK N   1       5.236  -1.183  -0.000  0.00  0.00     0.167 HD
ENDBRANCH  11  13
ENDBRANCH   2  11
BRANCH   6  15
HETATM   15  C   UNK N   1       0.516   3.592   0.000  0.00  0.00     0.178 C 
HETATM   16  O   UNK N   1      -0.477   4.242  -0.000  0.00  0.00    -0.646 OA
BRANCH  15  17
HETATM   17  O   UNK N   1       1.550   4.406   0.000  0.00  0.00    -0.773 OA
HETATM   18  H   UNK N   1       2.420   4.058   0.000  0.00  0.00     0.167 HD
ENDBRANCH  15  17
ENDBRANCH   6  15
BRANCH   3  19
HETATM   19  C   UNK N   1       0.587  -2.781  -0.000  0.00  0.00     0.178 C 
HETATM   20  O   UNK N   1      -0.392  -3.453   0.000  0.00  0.00    -0.646 OA
BRANCH  19  21
HETATM   21  O   UNK N   1       1.639  -3.572  -0.000  0.00  0.00    -0.773 OA
HETATM   22  H   UNK N   1       1.526  -4.502  -0.000  0.00  0.00     0.167 HD
ENDBRANCH  19  21
ENDBRANCH   3  19
BRANCH   5  23
HETATM   23  C   UNK N   1      -2.207   1.959  -0.000  0.00  0.00     0.178 C 
HETATM   24  O   UNK N   1      -2.301   3.141   0.000  0.00  0.00    -0.646 OA
BRANCH  23  25
HETATM   25  O   UNK N   1      -3.406   1.438  -0.000  0.00  0.00    -0.773 OA
HETATM   26  H   UNK N   1      -4.159   1.996  -0.000  0.00  0.00     0.167 HD
ENDBRANCH  23  25
ENDBRANCH   5  23
BRANCH   4  27
HETATM   27  C   UNK N   1      -2.164  -1.199   0.000  0.00  0.00     0.178 C 
HETATM   28  O   UNK N   1      -2.235  -2.383  -0.000  0.00  0.00    -0.646 OA
BRANCH  27  29
HETATM   29  O   UNK N   1      -3.370  -0.700   0.000  0.00  0.00    -0.773 OA
HETATM   30  H   UNK N   1      -3.492   0.229   0.000  0.00  0.00     0.167 HD
ENDBRANCH  27  29
ENDBRANCH   4  27
TORSDOF 12
