MODEL 1
REMARK VINA RESULT:      -4.5      0.000      0.000
REMARK  6 active torsions:
REMARK  status: ('A' for Active; 'I' for Inactive)
REMARK    1  A    between atoms: C_2  and  O_3 
REMARK    2  A    between atoms: C_2  and  C_8 
REMARK    3  A    between atoms: O_3  and  P_4 
REMARK    4  A    between atoms: P_4  and  O_5 
REMARK    5  A    between atoms: P_4  and  O_6 
REMARK    6  A    between atoms: C_8  and  O_9 
ROOT
HETATM    1  O   UNK N   1      20.023  19.511   2.236  0.00  0.00    -0.281 OA
ENDROOT
BRANCH   1   2
HETATM    2  C   UNK N   1      20.095  18.128   2.464  0.00  0.00     0.227 C 
HETATM    3  C   UNK N   1      21.339  17.808   3.287  0.00  0.00     0.052 C 
BRANCH   2   4
HETATM    4  C   UNK N   1      20.093  17.374   1.163  0.00  0.00     0.170 C 
HETATM    5  O   UNK N   1      19.880  16.170   1.161  0.00  0.00    -0.648 OA
BRANCH   4   6
HETATM    6  O   UNK N   1      20.343  18.004  -0.002  0.00  0.00    -0.774 OA
HETATM    7  H   UNK N   1      21.073  17.800  -0.553  0.00  0.00     0.167 HD
ENDBRANCH   4   6
ENDBRANCH   2   4
ENDBRANCH   1   2
BRANCH   1   8
HETATM    8  P   UNK N   1      21.574  20.146   2.729  0.00  0.00     0.391 P 
HETATM    9  O   UNK N   1      21.498  20.578   1.239  0.00  0.00    -0.632 OA
BRANCH   8  10
HETATM   10  O   UNK N   1      21.871  21.855   2.777  0.00  0.00    -0.307 OA
HETATM   11  H   UNK N   1      21.446  22.501   2.191  0.00  0.00     0.222 HD
ENDBRANCH   8  10
BRANCH   8  12
HETATM   12  O   UNK N   1      20.328  20.952   3.630  0.00  0.00    -0.307 OA
HETATM   13  H   UNK N   1      19.470  20.614   3.936  0.00  0.00     0.222 HD
ENDBRANCH   8  12
ENDBRANCH   1   8
TORSDOF 6
ENDMDL
MODEL 2
REMARK VINA RESULT:      -4.4     15.483     16.492
REMARK  6 active torsions:
REMARK  status: ('A' for Active; 'I' for Inactive)
REMARK    1  A    between atoms: C_2  and  O_3 
REMARK    2  A    between atoms: C_2  and  C_8 
REMARK    3  A    between atoms: O_3  and  P_4 
REMARK    4  A    between atoms: P_4  and  O_5 
REMARK    5  A    between atoms: P_4  and  O_6 
REMARK    6  A    between atoms: C_8  and  O_9 
ROOT
HETATM    1  O   UNK N   1      34.618  17.002  10.056  0.00  0.00    -0.281 OA
ENDROOT
BRANCH   1   2
HETATM    2  C   UNK N   1      34.085  16.975   8.757  0.00  0.00     0.227 C 
HETATM    3  C   UNK N   1      34.454  15.660   8.079  0.00  0.00     0.052 C 
BRANCH   2   4
HETATM    4  C   UNK N   1      34.570  18.154   7.960  0.00  0.00     0.170 C 
HETATM    5  O   UNK N   1      34.375  18.191   6.754  0.00  0.00    -0.648 OA
BRANCH   4   6
HETATM    6  O   UNK N   1      35.234  19.165   8.554  0.00  0.00    -0.774 OA
HETATM    7  H   UNK N   1      35.646  19.861   8.081  0.00  0.00     0.167 HD
ENDBRANCH   4   6
ENDBRANCH   2   4
ENDBRANCH   1   2
BRANCH   1   8
HETATM    8  P   UNK N   1      35.408  15.459  10.268  0.00  0.00     0.391 P 
HETATM    9  O   UNK N   1      36.494  16.457  10.755  0.00  0.00    -0.632 OA
BRANCH   8  10
HETATM   10  O   UNK N   1      35.831  14.875  11.846  0.00  0.00    -0.307 OA
HETATM   11  H   UNK N   1      36.039  15.444  12.603  0.00  0.00     0.222 HD
ENDBRANCH   8  10
BRANCH   8  12
HETATM   12  O   UNK N   1      34.035  15.534  11.327  0.00  0.00    -0.307 OA
HETATM   13  H   UNK N   1      33.417  16.265  11.487  0.00  0.00     0.222 HD
ENDBRANCH   8  12
ENDBRANCH   1   8
TORSDOF 6
ENDMDL
MODEL 3
REMARK VINA RESULT:      -4.3     14.158     14.998
REMARK  6 active torsions:
REMARK  status: ('A' for Active; 'I' for Inactive)
REMARK    1  A    between atoms: C_2  and  O_3 
REMARK    2  A    between atoms: C_2  and  C_8 
REMARK    3  A    between atoms: O_3  and  P_4 
REMARK    4  A    between atoms: P_4  and  O_5 
REMARK    5  A    between atoms: P_4  and  O_6 
REMARK    6  A    between atoms: C_8  and  O_9 
ROOT
HETATM    1  O   UNK N   1      33.718  16.293   9.190  0.00  0.00    -0.281 OA
ENDROOT
BRANCH   1   2
HETATM    2  C   UNK N   1      33.343  17.594   8.820  0.00  0.00     0.227 C 
HETATM    3  C   UNK N   1      32.008  17.553   8.084  0.00  0.00     0.052 C 
BRANCH   2   4
HETATM    4  C   UNK N   1      34.410  18.235   7.977  0.00  0.00     0.170 C 
HETATM    5  O   UNK N   1      34.531  17.912   6.804  0.00  0.00    -0.648 OA
BRANCH   4   6
HETATM    6  O   UNK N   1      35.251  19.149   8.502  0.00  0.00    -0.774 OA
HETATM    7  H   UNK N   1      35.016  20.046   8.641  0.00  0.00     0.167 HD
ENDBRANCH   4   6
ENDBRANCH   2   4
ENDBRANCH   1   2
BRANCH   1   8
HETATM    8  P   UNK N   1      32.399  15.266   8.685  0.00  0.00     0.391 P 
HETATM    9  O   UNK N   1      33.619  14.604   7.988  0.00  0.00    -0.632 OA
BRANCH   8  10
HETATM   10  O   UNK N   1      32.311  13.606   9.183  0.00  0.00    -0.307 OA
HETATM   11  H   UNK N   1      32.350  12.850   8.576  0.00  0.00     0.222 HD
ENDBRANCH   8  10
BRANCH   8  12
HETATM   12  O   UNK N   1      32.577  15.140  10.408  0.00  0.00    -0.307 OA
HETATM   13  H   UNK N   1      32.145  14.535  11.031  0.00  0.00     0.222 HD
ENDBRANCH   8  12
ENDBRANCH   1   8
TORSDOF 6
ENDMDL
MODEL 4
REMARK VINA RESULT:      -4.1     17.938     18.857
REMARK  6 active torsions:
REMARK  status: ('A' for Active; 'I' for Inactive)
REMARK    1  A    between atoms: C_2  and  O_3 
REMARK    2  A    between atoms: C_2  and  C_8 
REMARK    3  A    between atoms: O_3  and  P_4 
REMARK    4  A    between atoms: P_4  and  O_5 
REMARK    5  A    between atoms: P_4  and  O_6 
REMARK    6  A    between atoms: C_8  and  O_9 
ROOT
HETATM    1  O   UNK N   1      35.583  14.014  11.646  0.00  0.00    -0.281 OA
ENDROOT
BRANCH   1   2
HETATM    2  C   UNK N   1      34.933  15.220  11.341  0.00  0.00     0.227 C 
HETATM    3  C   UNK N   1      33.822  14.961  10.330  0.00  0.00     0.052 C 
BRANCH   2   4
HETATM    4  C   UNK N   1      35.914  16.236  10.825  0.00  0.00     0.170 C 
HETATM    5  O   UNK N   1      35.516  17.333  10.463  0.00  0.00    -0.648 OA
BRANCH   4   6
HETATM    6  O   UNK N   1      37.228  15.947  10.738  0.00  0.00    -0.774 OA
HETATM    7  H   UNK N   1      37.560  15.167  10.336  0.00  0.00     0.167 HD
ENDBRANCH   4   6
ENDBRANCH   2   4
ENDBRANCH   1   2
BRANCH   1   8
HETATM    8  P   UNK N   1      36.001  14.124  13.338  0.00  0.00     0.391 P 
HETATM    9  O   UNK N   1      34.813  13.124  13.356  0.00  0.00    -0.632 OA
BRANCH   8  10
HETATM   10  O   UNK N   1      36.624  12.754  14.202  0.00  0.00    -0.307 OA
HETATM   11  H   UNK N   1      37.015  12.798  15.089  0.00  0.00     0.222 HD
ENDBRANCH   8  10
BRANCH   8  12
HETATM   12  O   UNK N   1      37.336  13.423  12.478  0.00  0.00    -0.307 OA
HETATM   13  H   UNK N   1      38.054  12.859  12.806  0.00  0.00     0.222 HD
ENDBRANCH   8  12
ENDBRANCH   1   8
TORSDOF 6
ENDMDL
MODEL 5
REMARK VINA RESULT:      -4.0     10.537     11.410
REMARK  6 active torsions:
REMARK  status: ('A' for Active; 'I' for Inactive)
REMARK    1  A    between atoms: C_2  and  O_3 
REMARK    2  A    between atoms: C_2  and  C_8 
REMARK    3  A    between atoms: O_3  and  P_4 
REMARK    4  A    between atoms: P_4  and  O_5 
REMARK    5  A    between atoms: P_4  and  O_6 
REMARK    6  A    between atoms: C_8  and  O_9 
ROOT
HETATM    1  O   UNK N   1      29.756  24.109  -3.026  0.00  0.00    -0.281 OA
ENDROOT
BRANCH   1   2
HETATM    2  C   UNK N   1      28.652  24.087  -3.892  0.00  0.00     0.227 C 
HETATM    3  C   UNK N   1      28.714  25.285  -4.833  0.00  0.00     0.052 C 
BRANCH   2   4
HETATM    4  C   UNK N   1      27.366  24.073  -3.113  0.00  0.00     0.170 C 
HETATM    5  O   UNK N   1      27.346  23.601  -1.986  0.00  0.00    -0.648 OA
BRANCH   4   6
HETATM    6  O   UNK N   1      26.227  24.558  -3.648  0.00  0.00    -0.774 OA
HETATM    7  H   UNK N   1      25.375  24.365  -3.310  0.00  0.00     0.167 HD
ENDBRANCH   4   6
ENDBRANCH   2   4
ENDBRANCH   1   2
BRANCH   1   8
HETATM    8  P   UNK N   1      30.428  22.499  -3.085  0.00  0.00     0.391 P 
HETATM    9  O   UNK N   1      31.530  23.342  -3.783  0.00  0.00    -0.632 OA
BRANCH   8  10
HETATM   10  O   UNK N   1      31.873  22.095  -2.214  0.00  0.00    -0.307 OA
HETATM   11  H   UNK N   1      32.761  22.080  -2.604  0.00  0.00     0.222 HD
ENDBRANCH   8  10
BRANCH   8  12
HETATM   12  O   UNK N   1      30.289  22.986  -1.424  0.00  0.00    -0.307 OA
HETATM   13  H   UNK N   1      29.531  22.918  -0.822  0.00  0.00     0.222 HD
ENDBRANCH   8  12
ENDBRANCH   1   8
TORSDOF 6
ENDMDL
MODEL 6
REMARK VINA RESULT:      -4.0     21.281     22.344
REMARK  6 active torsions:
REMARK  status: ('A' for Active; 'I' for Inactive)
REMARK    1  A    between atoms: C_2  and  O_3 
REMARK    2  A    between atoms: C_2  and  C_8 
REMARK    3  A    between atoms: O_3  and  P_4 
REMARK    4  A    between atoms: P_4  and  O_5 
REMARK    5  A    between atoms: P_4  and  O_6 
REMARK    6  A    between atoms: C_8  and  O_9 
ROOT
HETATM    1  O   UNK N   1      42.755  22.460   3.462  0.00  0.00    -0.281 OA
ENDROOT
BRANCH   1   2
HETATM    2  C   UNK N   1      42.014  21.856   2.434  0.00  0.00     0.227 C 
HETATM    3  C   UNK N   1      41.212  22.917   1.689  0.00  0.00     0.052 C 
BRANCH   2   4
HETATM    4  C   UNK N   1      41.117  20.783   2.987  0.00  0.00     0.170 C 
HETATM    5  O   UNK N   1      41.601  19.850   3.612  0.00  0.00    -0.648 OA
BRANCH   4   6
HETATM    6  O   UNK N   1      39.784  20.825   2.787  0.00  0.00    -0.774 OA
HETATM    7  H   UNK N   1      39.190  21.266   3.362  0.00  0.00     0.167 HD
ENDBRANCH   4   6
ENDBRANCH   2   4
ENDBRANCH   1   2
BRANCH   1   8
HETATM    8  P   UNK N   1      44.400  22.518   2.880  0.00  0.00     0.391 P 
HETATM    9  O   UNK N   1      44.217  23.933   3.493  0.00  0.00    -0.632 OA
BRANCH   8  10
HETATM   10  O   UNK N   1      45.737  22.672   3.976  0.00  0.00    -0.307 OA
HETATM   11  H   UNK N   1      45.761  23.286   4.726  0.00  0.00     0.222 HD
ENDBRANCH   8  10
BRANCH   8  12
HETATM   12  O   UNK N   1      44.293  21.324   4.136  0.00  0.00    -0.307 OA
HETATM   13  H   UNK N   1      43.833  20.469   4.138  0.00  0.00     0.222 HD
ENDBRANCH   8  12
ENDBRANCH   1   8
TORSDOF 6
ENDMDL
MODEL 7
REMARK VINA RESULT:      -3.9     21.268     22.503
REMARK  6 active torsions:
REMARK  status: ('A' for Active; 'I' for Inactive)
REMARK    1  A    between atoms: C_2  and  O_3 
REMARK    2  A    between atoms: C_2  and  C_8 
REMARK    3  A    between atoms: O_3  and  P_4 
REMARK    4  A    between atoms: P_4  and  O_5 
REMARK    5  A    between atoms: P_4  and  O_6 
REMARK    6  A    between atoms: C_8  and  O_9 
ROOT
HETATM    1  O   UNK N   1      42.341  20.901   3.960  0.00  0.00    -0.281 OA
ENDROOT
BRANCH   1   2
HETATM    2  C   UNK N   1      43.598  21.154   3.390  0.00  0.00     0.227 C 
HETATM    3  C   UNK N   1      44.299  19.834   3.088  0.00  0.00     0.052 C 
BRANCH   2   4
HETATM    4  C   UNK N   1      44.429  22.018   4.299  0.00  0.00     0.170 C 
HETATM    5  O   UNK N   1      43.890  22.644   5.199  0.00  0.00    -0.648 OA
BRANCH   4   6
HETATM    6  O   UNK N   1      45.761  22.126   4.122  0.00  0.00    -0.774 OA
HETATM    7  H   UNK N   1      46.375  22.161   4.830  0.00  0.00     0.167 HD
ENDBRANCH   4   6
ENDBRANCH   2   4
ENDBRANCH   1   2
BRANCH   1   8
HETATM    8  P   UNK N   1      41.383  20.193   2.683  0.00  0.00     0.391 P 
HETATM    9  O   UNK N   1      40.639  19.712   3.959  0.00  0.00    -0.632 OA
BRANCH   8  10
HETATM   10  O   UNK N   1      39.740  20.681   2.415  0.00  0.00    -0.307 OA
HETATM   11  H   UNK N   1      38.988  20.070   2.369  0.00  0.00     0.222 HD
ENDBRANCH   8  10
BRANCH   8  12
HETATM   12  O   UNK N   1      41.277  21.922   2.568  0.00  0.00    -0.307 OA
HETATM   13  H   UNK N   1      40.515  22.480   2.347  0.00  0.00     0.222 HD
ENDBRANCH   8  12
ENDBRANCH   1   8
TORSDOF 6
ENDMDL
MODEL 8
REMARK VINA RESULT:      -3.9      1.416      2.128
REMARK  6 active torsions:
REMARK  status: ('A' for Active; 'I' for Inactive)
REMARK    1  A    between atoms: C_2  and  O_3 
REMARK    2  A    between atoms: C_2  and  C_8 
REMARK    3  A    between atoms: O_3  and  P_4 
REMARK    4  A    between atoms: P_4  and  O_5 
REMARK    5  A    between atoms: P_4  and  O_6 
REMARK    6  A    between atoms: C_8  and  O_9 
ROOT
HETATM    1  O   UNK N   1      20.078  19.071   2.434  0.00  0.00    -0.281 OA
ENDROOT
BRANCH   1   2
HETATM    2  C   UNK N   1      20.495  17.734   2.339  0.00  0.00     0.227 C 
HETATM    3  C   UNK N   1      20.008  17.138   1.023  0.00  0.00     0.052 C 
BRANCH   2   4
HETATM    4  C   UNK N   1      19.998  16.938   3.515  0.00  0.00     0.170 C 
HETATM    5  O   UNK N   1      20.255  17.310   4.650  0.00  0.00    -0.648 OA
BRANCH   4   6
HETATM    6  O   UNK N   1      19.288  15.807   3.334  0.00  0.00    -0.774 OA
HETATM    7  H   UNK N   1      19.144  15.174   4.010  0.00  0.00     0.167 HD
ENDBRANCH   4   6
ENDBRANCH   2   4
ENDBRANCH   1   2
BRANCH   1   8
HETATM    8  P   UNK N   1      21.545  20.010   2.556  0.00  0.00     0.391 P 
HETATM    9  O   UNK N   1      20.915  20.550   1.243  0.00  0.00    -0.632 OA
BRANCH   8  10
HETATM   10  O   UNK N   1      21.496  21.728   2.794  0.00  0.00    -0.307 OA
HETATM   11  H   UNK N   1      22.025  22.366   2.290  0.00  0.00     0.222 HD
ENDBRANCH   8  10
BRANCH   8  12
HETATM   12  O   UNK N   1      20.516  20.405   3.897  0.00  0.00    -0.307 OA
HETATM   13  H   UNK N   1      20.705  20.377   4.849  0.00  0.00     0.222 HD
ENDBRANCH   8  12
ENDBRANCH   1   8
TORSDOF 6
ENDMDL
MODEL 9
REMARK VINA RESULT:      -3.8     14.618     15.515
REMARK  6 active torsions:
REMARK  status: ('A' for Active; 'I' for Inactive)
REMARK    1  A    between atoms: C_2  and  O_3 
REMARK    2  A    between atoms: C_2  and  C_8 
REMARK    3  A    between atoms: O_3  and  P_4 
REMARK    4  A    between atoms: P_4  and  O_5 
REMARK    5  A    between atoms: P_4  and  O_6 
REMARK    6  A    between atoms: C_8  and  O_9 
ROOT
HETATM    1  O   UNK N   1      33.450  16.843   9.279  0.00  0.00    -0.281 OA
ENDROOT
BRANCH   1   2
HETATM    2  C   UNK N   1      33.538  15.469   9.008  0.00  0.00     0.227 C 
HETATM    3  C   UNK N   1      32.169  14.938   8.599  0.00  0.00     0.052 C 
BRANCH   2   4
HETATM    4  C   UNK N   1      34.076  14.726  10.201  0.00  0.00     0.170 C 
HETATM    5  O   UNK N   1      35.086  14.048  10.087  0.00  0.00    -0.648 OA
BRANCH   4   6
HETATM    6  O   UNK N   1      33.447  14.783  11.392  0.00  0.00    -0.774 OA
HETATM    7  H   UNK N   1      33.201  15.586  11.808  0.00  0.00     0.167 HD
ENDBRANCH   4   6
ENDBRANCH   2   4
ENDBRANCH   1   2
BRANCH   1   8
HETATM    8  P   UNK N   1      34.500  17.616   8.117  0.00  0.00     0.391 P 
HETATM    9  O   UNK N   1      33.235  18.516   8.069  0.00  0.00    -0.632 OA
BRANCH   8  10
HETATM   10  O   UNK N   1      35.117  19.215   8.387  0.00  0.00    -0.307 OA
HETATM   11  H   UNK N   1      34.595  19.950   8.745  0.00  0.00     0.222 HD
ENDBRANCH   8  10
BRANCH   8  12
HETATM   12  O   UNK N   1      35.229  17.725   9.688  0.00  0.00    -0.307 OA
HETATM   13  H   UNK N   1      35.171  18.435  10.348  0.00  0.00     0.222 HD
ENDBRANCH   8  12
ENDBRANCH   1   8
TORSDOF 6
ENDMDL
