MODEL 1
REMARK VINA RESULT:      -4.9      0.000      0.000
REMARK  6 active torsions:
REMARK  status: ('A' for Active; 'I' for Inactive)
REMARK    1  A    between atoms: C_3  and  O_2 
REMARK    2  A    between atoms: C_5  and  C_6 
REMARK    3  A    between atoms: C_6  and  O_7 
REMARK    4  A    between atoms: C_8  and  S_9 
REMARK    5  A    between atoms: C_10  and  O_11 
REMARK    6  A    between atoms: C_12  and  O_13 
ROOT
HETATM    1  C   UNK N   1      22.064  19.725   2.947  0.00  0.00     0.290 C 
HETATM    2  O   UNK N   1      21.944  19.499   4.335  0.00  0.00    -0.350 OA
HETATM    3  C   UNK N   1      21.555  18.157   4.526  0.00  0.00     0.164 C 
HETATM    4  C   UNK N   1      20.107  17.972   4.040  0.00  0.00     0.107 C 
HETATM    5  C   UNK N   1      20.057  18.312   2.551  0.00  0.00     0.167 C 
HETATM    6  C   UNK N   1      20.674  19.683   2.301  0.00  0.00     0.203 C 
ENDROOT
BRANCH   3   7
HETATM    7  C   UNK N   1      21.669  17.814   6.006  0.00  0.00     0.197 C 
BRANCH   7   8
HETATM    8  O   UNK N   1      21.073  18.810   6.777  0.00  0.00    -0.398 OA
HETATM    9  H   UNK N   1      20.334  19.364   6.479  0.00  0.00     0.209 HD
ENDBRANCH   7   8
ENDBRANCH   3   7
BRANCH   4  10
HETATM   10  S   UNK N   1      19.531  16.259   4.289  0.00  0.00    -0.172 SA
HETATM   11  H   UNK N   1      20.305  15.184   4.598  0.00  0.00     0.102 HD
ENDBRANCH   4  10
BRANCH   1  12
HETATM   12  O   UNK N   1      22.645  20.977   2.735  0.00  0.00    -0.363 OA
HETATM   13  C   UNK N   1      24.019  20.783   2.897  0.00  0.00     0.204 C 
ENDBRANCH   1  12
BRANCH   5  14
HETATM   14  O   UNK N   1      18.739  18.294   2.090  0.00  0.00    -0.392 OA
HETATM   15  H   UNK N   1      18.190  17.496   2.043  0.00  0.00     0.210 HD
ENDBRANCH   5  14
BRANCH   6  16
HETATM   16  O   UNK N   1      20.776  19.905   0.925  0.00  0.00    -0.388 OA
HETATM   17  H   UNK N   1      20.028  19.907   0.308  0.00  0.00     0.210 HD
ENDBRANCH   6  16
TORSDOF 6
ENDMDL
MODEL 2
REMARK VINA RESULT:      -4.8     13.709     15.206
REMARK  6 active torsions:
REMARK  status: ('A' for Active; 'I' for Inactive)
REMARK    1  A    between atoms: C_3  and  O_2 
REMARK    2  A    between atoms: C_5  and  C_6 
REMARK    3  A    between atoms: C_6  and  O_7 
REMARK    4  A    between atoms: C_8  and  S_9 
REMARK    5  A    between atoms: C_10  and  O_11 
REMARK    6  A    between atoms: C_12  and  O_13 
ROOT
HETATM    1  C   UNK N   1      35.096  15.989  10.797  0.00  0.00     0.290 C 
HETATM    2  O   UNK N   1      35.367  16.713   9.616  0.00  0.00    -0.350 OA
HETATM    3  C   UNK N   1      34.155  17.261   9.153  0.00  0.00     0.164 C 
HETATM    4  C   UNK N   1      33.247  16.130   8.638  0.00  0.00     0.107 C 
HETATM    5  C   UNK N   1      32.967  15.178   9.801  0.00  0.00     0.167 C 
HETATM    6  C   UNK N   1      34.274  14.741  10.452  0.00  0.00     0.203 C 
ENDROOT
BRANCH   3   7
HETATM    7  C   UNK N   1      34.453  18.254   8.037  0.00  0.00     0.197 C 
BRANCH   7   8
HETATM    8  O   UNK N   1      35.311  19.251   8.498  0.00  0.00    -0.398 OA
HETATM    9  H   UNK N   1      35.064  19.928   9.148  0.00  0.00     0.209 HD
ENDBRANCH   7   8
ENDBRANCH   3   7
BRANCH   4  10
HETATM   10  S   UNK N   1      31.668  16.778   7.994  0.00  0.00    -0.172 SA
HETATM   11  H   UNK N   1      31.513  17.630   6.944  0.00  0.00     0.102 HD
ENDBRANCH   4  10
BRANCH   1  12
HETATM   12  O   UNK N   1      36.302  15.609  11.390  0.00  0.00    -0.363 OA
HETATM   13  C   UNK N   1      37.003  14.917  10.400  0.00  0.00     0.204 C 
ENDBRANCH   1  12
BRANCH   5  14
HETATM   14  O   UNK N   1      32.262  14.059   9.355  0.00  0.00    -0.392 OA
HETATM   15  H   UNK N   1      31.340  13.868   9.587  0.00  0.00     0.210 HD
ENDBRANCH   5  14
BRANCH   6  16
HETATM   16  O   UNK N   1      33.996  14.013  11.612  0.00  0.00    -0.388 OA
HETATM   17  H   UNK N   1      34.216  13.077  11.744  0.00  0.00     0.210 HD
ENDBRANCH   6  16
TORSDOF 6
ENDMDL
MODEL 3
REMARK VINA RESULT:      -4.6     12.968     14.358
REMARK  6 active torsions:
REMARK  status: ('A' for Active; 'I' for Inactive)
REMARK    1  A    between atoms: C_3  and  O_2 
REMARK    2  A    between atoms: C_5  and  C_6 
REMARK    3  A    between atoms: C_6  and  O_7 
REMARK    4  A    between atoms: C_8  and  S_9 
REMARK    5  A    between atoms: C_10  and  O_11 
REMARK    6  A    between atoms: C_12  and  O_13 
ROOT
HETATM    1  C   UNK N   1      33.867  17.321   7.137  0.00  0.00     0.290 C 
HETATM    2  O   UNK N   1      34.060  15.935   6.960  0.00  0.00    -0.350 OA
HETATM    3  C   UNK N   1      33.665  15.285   8.147  0.00  0.00     0.164 C 
HETATM    4  C   UNK N   1      34.670  15.612   9.265  0.00  0.00     0.107 C 
HETATM    5  C   UNK N   1      34.664  17.125   9.483  0.00  0.00     0.167 C 
HETATM    6  C   UNK N   1      34.879  17.850   8.160  0.00  0.00     0.203 C 
ENDROOT
BRANCH   3   7
HETATM    7  C   UNK N   1      33.615  13.783   7.898  0.00  0.00     0.197 C 
BRANCH   7   8
HETATM    8  O   UNK N   1      32.322  13.304   8.107  0.00  0.00    -0.398 OA
HETATM    9  H   UNK N   1      32.067  12.371   8.037  0.00  0.00     0.209 HD
ENDBRANCH   7   8
ENDBRANCH   3   7
BRANCH   4  10
HETATM   10  S   UNK N   1      34.232  14.775  10.826  0.00  0.00    -0.172 SA
HETATM   11  H   UNK N   1      34.453  15.244  12.083  0.00  0.00     0.102 HD
ENDBRANCH   4  10
BRANCH   1  12
HETATM   12  O   UNK N   1      34.052  17.970   5.913  0.00  0.00    -0.363 OA
HETATM   13  C   UNK N   1      33.121  17.396   5.044  0.00  0.00     0.204 C 
ENDBRANCH   1  12
BRANCH   5  14
HETATM   14  O   UNK N   1      35.659  17.490  10.392  0.00  0.00    -0.392 OA
HETATM   15  H   UNK N   1      36.610  17.435  10.210  0.00  0.00     0.210 HD
ENDBRANCH   5  14
BRANCH   6  16
HETATM   16  O   UNK N   1      34.701  19.224   8.347  0.00  0.00    -0.388 OA
HETATM   17  H   UNK N   1      33.897  19.634   8.700  0.00  0.00     0.210 HD
ENDBRANCH   6  16
TORSDOF 6
ENDMDL
MODEL 4
REMARK VINA RESULT:      -4.5     18.200     19.647
REMARK  6 active torsions:
REMARK  status: ('A' for Active; 'I' for Inactive)
REMARK    1  A    between atoms: C_3  and  O_2 
REMARK    2  A    between atoms: C_5  and  C_6 
REMARK    3  A    between atoms: C_6  and  O_7 
REMARK    4  A    between atoms: C_8  and  S_9 
REMARK    5  A    between atoms: C_10  and  O_11 
REMARK    6  A    between atoms: C_12  and  O_13 
ROOT
HETATM    1  C   UNK N   1      36.960  14.069  15.275  0.00  0.00     0.290 C 
HETATM    2  O   UNK N   1      36.180  13.722  16.400  0.00  0.00    -0.350 OA
HETATM    3  C   UNK N   1      35.720  12.402  16.220  0.00  0.00     0.164 C 
HETATM    4  C   UNK N   1      34.681  12.375  15.084  0.00  0.00     0.107 C 
HETATM    5  C   UNK N   1      35.364  12.858  13.804  0.00  0.00     0.167 C 
HETATM    6  C   UNK N   1      36.053  14.196  14.045  0.00  0.00     0.203 C 
ENDROOT
BRANCH   3   7
HETATM    7  C   UNK N   1      35.098  11.912  17.521  0.00  0.00     0.197 C 
BRANCH   7   8
HETATM    8  O   UNK N   1      35.118  12.928  18.475  0.00  0.00    -0.398 OA
HETATM    9  H   UNK N   1      35.913  13.215  18.952  0.00  0.00     0.209 HD
ENDBRANCH   7   8
ENDBRANCH   3   7
BRANCH   4  10
HETATM   10  S   UNK N   1      34.021  10.695  14.820  0.00  0.00    -0.172 SA
HETATM   11  H   UNK N   1      33.704   9.791  15.786  0.00  0.00     0.102 HD
ENDBRANCH   4  10
BRANCH   1  12
HETATM   12  O   UNK N   1      37.598  15.288  15.518  0.00  0.00    -0.363 OA
HETATM   13  C   UNK N   1      37.193  15.672  16.798  0.00  0.00     0.204 C 
ENDBRANCH   1  12
BRANCH   5  14
HETATM   14  O   UNK N   1      34.431  12.985  12.773  0.00  0.00    -0.392 OA
HETATM   15  H   UNK N   1      33.721  12.348  12.600  0.00  0.00     0.210 HD
ENDBRANCH   5  14
BRANCH   6  16
HETATM   16  O   UNK N   1      36.811  14.539  12.923  0.00  0.00    -0.388 OA
HETATM   17  H   UNK N   1      36.474  15.025  12.155  0.00  0.00     0.210 HD
ENDBRANCH   6  16
TORSDOF 6
ENDMDL
MODEL 5
REMARK VINA RESULT:      -4.5     15.658     17.038
REMARK  6 active torsions:
REMARK  status: ('A' for Active; 'I' for Inactive)
REMARK    1  A    between atoms: C_3  and  O_2 
REMARK    2  A    between atoms: C_5  and  C_6 
REMARK    3  A    between atoms: C_6  and  O_7 
REMARK    4  A    between atoms: C_8  and  S_9 
REMARK    5  A    between atoms: C_10  and  O_11 
REMARK    6  A    between atoms: C_12  and  O_13 
ROOT
HETATM    1  C   UNK N   1      35.187  15.645  10.046  0.00  0.00     0.290 C 
HETATM    2  O   UNK N   1      36.582  15.450  10.125  0.00  0.00    -0.350 OA
HETATM    3  C   UNK N   1      36.846  14.087   9.882  0.00  0.00     0.164 C 
HETATM    4  C   UNK N   1      36.334  13.250  11.068  0.00  0.00     0.107 C 
HETATM    5  C   UNK N   1      34.826  13.466  11.186  0.00  0.00     0.167 C 
HETATM    6  C   UNK N   1      34.507  14.955  11.235  0.00  0.00     0.203 C 
ENDROOT
BRANCH   3   7
HETATM    7  C   UNK N   1      38.347  13.896   9.704  0.00  0.00     0.197 C 
BRANCH   7   8
HETATM    8  O   UNK N   1      39.014  15.101   9.922  0.00  0.00    -0.398 OA
HETATM    9  H   UNK N   1      38.954  15.872   9.336  0.00  0.00     0.209 HD
ENDBRANCH   7   8
ENDBRANCH   3   7
BRANCH   4  10
HETATM   10  S   UNK N   1      36.674  11.473  10.829  0.00  0.00    -0.172 SA
HETATM   11  H   UNK N   1      35.805  10.542  10.352  0.00  0.00     0.102 HD
ENDBRANCH   4  10
BRANCH   1  12
HETATM   12  O   UNK N   1      34.912  17.014  10.075  0.00  0.00    -0.363 OA
HETATM   13  C   UNK N   1      34.508  17.340   8.779  0.00  0.00     0.204 C 
ENDBRANCH   1  12
BRANCH   5  14
HETATM   14  O   UNK N   1      34.332  12.837  12.331  0.00  0.00    -0.392 OA
HETATM   15  H   UNK N   1      33.399  12.839  12.594  0.00  0.00     0.210 HD
ENDBRANCH   5  14
BRANCH   6  16
HETATM   16  O   UNK N   1      33.124  15.139  11.171  0.00  0.00    -0.388 OA
HETATM   17  H   UNK N   1      32.541  15.227  11.941  0.00  0.00     0.210 HD
ENDBRANCH   6  16
TORSDOF 6
ENDMDL
MODEL 6
REMARK VINA RESULT:      -4.5     16.264     18.043
REMARK  6 active torsions:
REMARK  status: ('A' for Active; 'I' for Inactive)
REMARK    1  A    between atoms: C_3  and  O_2 
REMARK    2  A    between atoms: C_5  and  C_6 
REMARK    3  A    between atoms: C_6  and  O_7 
REMARK    4  A    between atoms: C_8  and  S_9 
REMARK    5  A    between atoms: C_10  and  O_11 
REMARK    6  A    between atoms: C_12  and  O_13 
ROOT
HETATM    1  C   UNK N   1      35.294  13.122  12.993  0.00  0.00     0.290 C 
HETATM    2  O   UNK N   1      34.608  14.147  12.308  0.00  0.00    -0.350 OA
HETATM    3  C   UNK N   1      34.752  13.920  10.925  0.00  0.00     0.164 C 
HETATM    4  C   UNK N   1      36.213  14.178  10.515  0.00  0.00     0.107 C 
HETATM    5  C   UNK N   1      37.102  13.205  11.289  0.00  0.00     0.167 C 
HETATM    6  C   UNK N   1      36.803  13.289  12.781  0.00  0.00     0.203 C 
ENDROOT
BRANCH   3   7
HETATM    7  C   UNK N   1      33.814  14.852  10.168  0.00  0.00     0.197 C 
BRANCH   7   8
HETATM    8  O   UNK N   1      32.657  15.078  10.913  0.00  0.00    -0.398 OA
HETATM    9  H   UNK N   1      32.648  15.463  11.805  0.00  0.00     0.209 HD
ENDBRANCH   7   8
ENDBRANCH   3   7
BRANCH   4  10
HETATM   10  S   UNK N   1      36.460  13.930   8.725  0.00  0.00    -0.172 SA
HETATM   11  H   UNK N   1      37.642  13.673   8.101  0.00  0.00     0.102 HD
ENDBRANCH   4  10
BRANCH   1  12
HETATM   12  O   UNK N   1      34.997  13.201  14.356  0.00  0.00    -0.363 OA
HETATM   13  C   UNK N   1      34.343  12.006  14.664  0.00  0.00     0.204 C 
ENDBRANCH   1  12
BRANCH   5  14
HETATM   14  O   UNK N   1      38.450  13.489  11.059  0.00  0.00    -0.392 OA
HETATM   15  H   UNK N   1      38.842  13.592  10.178  0.00  0.00     0.210 HD
ENDBRANCH   5  14
BRANCH   6  16
HETATM   16  O   UNK N   1      37.498  12.279  13.453  0.00  0.00    -0.388 OA
HETATM   17  H   UNK N   1      38.108  12.425  14.193  0.00  0.00     0.210 HD
ENDBRANCH   6  16
TORSDOF 6
ENDMDL
MODEL 7
REMARK VINA RESULT:      -4.4     20.551     22.804
REMARK  6 active torsions:
REMARK  status: ('A' for Active; 'I' for Inactive)
REMARK    1  A    between atoms: C_3  and  O_2 
REMARK    2  A    between atoms: C_5  and  C_6 
REMARK    3  A    between atoms: C_6  and  O_7 
REMARK    4  A    between atoms: C_8  and  S_9 
REMARK    5  A    between atoms: C_10  and  O_11 
REMARK    6  A    between atoms: C_12  and  O_13 
ROOT
HETATM    1  C   UNK N   1      44.156  23.635   3.200  0.00  0.00     0.290 C 
HETATM    2  O   UNK N   1      43.213  23.700   2.152  0.00  0.00    -0.350 OA
HETATM    3  C   UNK N   1      42.135  22.855   2.482  0.00  0.00     0.164 C 
HETATM    4  C   UNK N   1      42.597  21.389   2.413  0.00  0.00     0.107 C 
HETATM    5  C   UNK N   1      43.726  21.198   3.425  0.00  0.00     0.167 C 
HETATM    6  C   UNK N   1      44.809  22.249   3.213  0.00  0.00     0.203 C 
ENDROOT
BRANCH   3   7
HETATM    7  C   UNK N   1      40.993  23.101   1.504  0.00  0.00     0.197 C 
BRANCH   7   8
HETATM    8  O   UNK N   1      40.860  24.466   1.255  0.00  0.00    -0.398 OA
HETATM    9  H   UNK N   1      40.650  25.127   1.933  0.00  0.00     0.209 HD
ENDBRANCH   7   8
ENDBRANCH   3   7
BRANCH   4  10
HETATM   10  S   UNK N   1      41.235  20.238   2.802  0.00  0.00    -0.172 SA
HETATM   11  H   UNK N   1      39.933  20.570   3.014  0.00  0.00     0.102 HD
ENDBRANCH   4  10
BRANCH   1  12
HETATM   12  O   UNK N   1      45.132  24.615   3.000  0.00  0.00    -0.363 OA
HETATM   13  C   UNK N   1      45.396  24.604   1.629  0.00  0.00     0.204 C 
ENDBRANCH   1  12
BRANCH   5  14
HETATM   14  O   UNK N   1      44.276  19.919   3.307  0.00  0.00    -0.392 OA
HETATM   15  H   UNK N   1      44.526  19.362   4.059  0.00  0.00     0.210 HD
ENDBRANCH   5  14
BRANCH   6  16
HETATM   16  O   UNK N   1      45.746  22.168   4.247  0.00  0.00    -0.388 OA
HETATM   17  H   UNK N   1      46.489  21.546   4.274  0.00  0.00     0.210 HD
ENDBRANCH   6  16
TORSDOF 6
ENDMDL
MODEL 8
REMARK VINA RESULT:      -4.4      2.565      3.816
REMARK  6 active torsions:
REMARK  status: ('A' for Active; 'I' for Inactive)
REMARK    1  A    between atoms: C_3  and  O_2 
REMARK    2  A    between atoms: C_5  and  C_6 
REMARK    3  A    between atoms: C_6  and  O_7 
REMARK    4  A    between atoms: C_8  and  S_9 
REMARK    5  A    between atoms: C_10  and  O_11 
REMARK    6  A    between atoms: C_12  and  O_13 
ROOT
HETATM    1  C   UNK N   1      21.449  19.518   3.701  0.00  0.00     0.290 C 
HETATM    2  O   UNK N   1      21.946  18.199   3.774  0.00  0.00    -0.350 OA
HETATM    3  C   UNK N   1      23.201  18.241   4.415  0.00  0.00     0.164 C 
HETATM    4  C   UNK N   1      24.223  18.923   3.489  0.00  0.00     0.107 C 
HETATM    5  C   UNK N   1      23.741  20.347   3.214  0.00  0.00     0.167 C 
HETATM    6  C   UNK N   1      22.300  20.330   2.718  0.00  0.00     0.203 C 
ENDROOT
BRANCH   3   7
HETATM    7  C   UNK N   1      23.640  16.819   4.739  0.00  0.00     0.197 C 
BRANCH   7   8
HETATM    8  O   UNK N   1      23.580  16.600   6.114  0.00  0.00    -0.398 OA
HETATM    9  H   UNK N   1      22.808  16.236   6.576  0.00  0.00     0.209 HD
ENDBRANCH   7   8
ENDBRANCH   3   7
BRANCH   4  10
HETATM   10  S   UNK N   1      25.881  18.982   4.250  0.00  0.00    -0.172 SA
HETATM   11  H   UNK N   1      27.014  18.409   3.763  0.00  0.00     0.102 HD
ENDBRANCH   4  10
BRANCH   1  12
HETATM   12  O   UNK N   1      20.123  19.485   3.261  0.00  0.00    -0.363 OA
HETATM   13  C   UNK N   1      20.073  18.468   2.305  0.00  0.00     0.204 C 
ENDBRANCH   1  12
BRANCH   5  14
HETATM   14  O   UNK N   1      24.562  20.965   2.268  0.00  0.00    -0.392 OA
HETATM   15  H   UNK N   1      24.490  21.897   2.011  0.00  0.00     0.210 HD
ENDBRANCH   5  14
BRANCH   6  16
HETATM   16  O   UNK N   1      21.821  21.640   2.635  0.00  0.00    -0.388 OA
HETATM   17  H   UNK N   1      22.123  22.301   1.992  0.00  0.00     0.210 HD
ENDBRANCH   6  16
TORSDOF 6
ENDMDL
MODEL 9
REMARK VINA RESULT:      -4.4     13.280     14.487
REMARK  6 active torsions:
REMARK  status: ('A' for Active; 'I' for Inactive)
REMARK    1  A    between atoms: C_3  and  O_2 
REMARK    2  A    between atoms: C_5  and  C_6 
REMARK    3  A    between atoms: C_6  and  O_7 
REMARK    4  A    between atoms: C_8  and  S_9 
REMARK    5  A    between atoms: C_10  and  O_11 
REMARK    6  A    between atoms: C_12  and  O_13 
ROOT
HETATM    1  C   UNK N   1      34.991  16.723   9.338  0.00  0.00     0.290 C 
HETATM    2  O   UNK N   1      34.176  15.572   9.320  0.00  0.00    -0.350 OA
HETATM    3  C   UNK N   1      34.297  14.971   8.051  0.00  0.00     0.164 C 
HETATM    4  C   UNK N   1      33.621  15.865   6.997  0.00  0.00     0.107 C 
HETATM    5  C   UNK N   1      34.332  17.218   6.993  0.00  0.00     0.167 C 
HETATM    6  C   UNK N   1      34.396  17.785   8.406  0.00  0.00     0.203 C 
ENDROOT
BRANCH   3   7
HETATM    7  C   UNK N   1      33.639  13.597   8.087  0.00  0.00     0.197 C 
BRANCH   7   8
HETATM    8  O   UNK N   1      32.337  13.702   8.573  0.00  0.00    -0.398 OA
HETATM    9  H   UNK N   1      31.606  13.120   8.308  0.00  0.00     0.209 HD
ENDBRANCH   7   8
ENDBRANCH   3   7
BRANCH   4  10
HETATM   10  S   UNK N   1      33.717  15.126   5.331  0.00  0.00    -0.172 SA
HETATM   11  H   UNK N   1      34.841  14.673   4.713  0.00  0.00     0.102 HD
ENDBRANCH   4  10
BRANCH   1  12
HETATM   12  O   UNK N   1      35.054  17.221  10.642  0.00  0.00    -0.363 OA
HETATM   13  C   UNK N   1      35.548  16.171  11.418  0.00  0.00     0.204 C 
ENDBRANCH   1  12
BRANCH   5  14
HETATM   14  O   UNK N   1      33.670  18.114   6.152  0.00  0.00    -0.392 OA
HETATM   15  H   UNK N   1      33.504  19.044   6.369  0.00  0.00     0.210 HD
ENDBRANCH   5  14
BRANCH   6  16
HETATM   16  O   UNK N   1      35.194  18.932   8.412  0.00  0.00    -0.388 OA
HETATM   17  H   UNK N   1      34.870  19.831   8.580  0.00  0.00     0.210 HD
ENDBRANCH   6  16
TORSDOF 6
ENDMDL
