REMARK  13 active torsions:
REMARK  status: ('A' for Active; 'I' for Inactive)
REMARK    1  A    between atoms: C_7  and  C_3 
REMARK    2  A    between atoms: C_8  and  C_4 
REMARK    3  A    between atoms: N_25  and  C_4 
REMARK    4  A    between atoms: C_9  and  C_7 
REMARK    5  A    between atoms: C_15  and  C_9 
REMARK    6  A    between atoms: C_9  and  N_17 
REMARK    7  A    between atoms: C_11  and  O_29 
REMARK    8  A    between atoms: C_12  and  O_30 
REMARK    9  A    between atoms: N_18  and  C_13 
REMARK   10  A    between atoms: O_31  and  C_15 
REMARK   11  A    between atoms: C_16  and  N_28 
REMARK   12  A    between atoms: S_35  and  N_25 
REMARK   13  A    between atoms: N_26  and  S_35 
ROOT
HETATM    1  C   UNK N   1       0.441  -1.251   0.595  0.00  0.00     0.174 C 
HETATM    2  C   UNK N   1       1.679  -1.974   0.117  0.00  0.00     0.181 C 
HETATM    3  C   UNK N   1       2.488  -0.823  -0.381  0.00  0.00     0.198 C 
HETATM    4  C   UNK N   1       1.405   0.166  -0.862  0.00  0.00     0.262 C 
HETATM    5  O   UNK N   1       0.143  -0.319  -0.418  0.00  0.00    -0.354 OA
ENDROOT
BRANCH   1   6
HETATM    6  C   UNK N   1      -0.730  -2.202   0.850  0.00  0.00     0.168 C 
BRANCH   6   7
HETATM    7  N   UNK N   1      -1.163  -2.881  -0.373  0.00  0.00    -0.300 N 
HETATM    8  H   UNK N   1      -1.719  -2.467  -1.121  0.00  0.00     0.173 HD
BRANCH   7   9
HETATM    9  S   UNK N   1      -0.553  -4.550  -0.327  0.00  0.00     0.320 S 
HETATM   10  O   UNK N   1      -1.183  -5.619  -1.234  0.00  0.00    -0.182 OA
HETATM   11  O   UNK N   1      -0.484  -3.999  -1.759  0.00  0.00    -0.182 OA
BRANCH   9  12
HETATM   12  N   UNK N   1      -2.248  -4.627   0.248  0.00  0.00    -0.249 N 
HETATM   13  C   UNK N   1      -3.371  -4.464  -0.398  0.00  0.00     0.149 C 
ATOM     14  HN  UNK N   1      -2.353  -4.831   1.242  1.00  0.00     0.182 HD
BRANCH  13  15
HETATM   15  C   UNK N   1      -4.659  -4.580   0.378  0.00  0.00     0.154 C 
BRANCH  15  16
HETATM   16  C   UNK N   1      -5.548  -3.307   0.366  0.00  0.00     0.011 C 
HETATM   17  C   UNK N   1      -4.713  -2.044   0.531  0.00  0.00     0.012 C 
BRANCH  16  18
HETATM   18  C   UNK N   1      -6.424  -3.157  -0.880  0.00  0.00     0.002 C 
HETATM   19  C   UNK N   1      -7.667  -4.038  -0.785  0.00  0.00     0.005 C 
ENDBRANCH  16  18
ENDBRANCH  15  16
BRANCH  15  20
HETATM   20  N   UNK N   1      -5.398  -5.748  -0.075  0.00  0.00    -0.419 N 
HETATM   21  H   UNK N   1      -6.366  -5.709  -0.394  0.00  0.00     0.150 HD
HETATM   22  H   UNK N   1      -4.924  -6.652  -0.075  0.00  0.00     0.150 HD
ENDBRANCH  15  20
ENDBRANCH  13  15
BRANCH  13  23
HETATM   23  O   UNK N   1      -3.386  -4.191  -1.721  0.00  0.00    -0.347 OA
HETATM   24  H   UNK N   1      -3.227  -4.087  -2.638  0.00  0.00     0.219 HD
ENDBRANCH  13  23
ENDBRANCH   9  12
ENDBRANCH   7   9
ENDBRANCH   6   7
ENDBRANCH   1   6
BRANCH   2  25
HETATM   25  O   UNK N   1       2.325  -2.682   1.135  0.00  0.00    -0.390 OA
HETATM   26  H   UNK N   1       2.123  -3.316   1.841  0.00  0.00     0.210 HD
ENDBRANCH   2  25
BRANCH   3  27
HETATM   27  O   UNK N   1       3.345  -1.216  -1.415  0.00  0.00    -0.388 OA
HETATM   28  H   UNK N   1       3.406  -1.867  -2.132  0.00  0.00     0.210 HD
ENDBRANCH   3  27
BRANCH   4  29
HETATM   29  N   UNK N   1       1.634   1.511  -0.308  0.00  0.00    -0.297 N 
HETATM   30  C   UNK N   1       0.696   2.314   0.266  0.00  0.00     0.188 A 
HETATM   31  N   UNK N   1       1.242   3.480   0.711  0.00  0.00    -0.346 N 
HETATM   32  C   UNK N   1       2.550   3.370   0.414  0.00  0.00     0.122 A 
ATOM     33  HN  UNK N   1       0.767   4.260   1.166  1.00  0.00     0.167 HD
HETATM   34  C   UNK N   1       3.594   4.241   0.670  0.00  0.00     0.131 A 
HETATM   35  C   UNK N   1       2.781   2.195  -0.202  0.00  0.00     0.142 A 
HETATM   36  N   UNK N   1       4.852   3.860   0.295  0.00  0.00    -0.337 N 
HETATM   37  C   UNK N   1       5.069   2.652  -0.324  0.00  0.00     0.183 A 
ATOM     38  HN  UNK N   1       5.641   4.481   0.476  1.00  0.00     0.168 HD
HETATM   39  N   UNK N   1       4.024   1.806  -0.582  0.00  0.00    -0.336 N 
ATOM     40  HN  UNK N   1       4.176   0.911  -1.046  1.00  0.00     0.168 HD
BRANCH  34  41
HETATM   41  N   UNK N   1       3.379   5.478   1.310  0.00  0.00    -0.383 N 
HETATM   42  H   UNK N   1       4.052   6.041   1.758  0.00  0.00     0.157 HD
HETATM   43  H   UNK N   1       2.454   5.817   1.310  0.00  0.00     0.157 HD
ENDBRANCH  34  41
ENDBRANCH   4  29
TORSDOF 13
