MODEL 1
REMARK VINA RESULT:      -4.9      0.000      0.000
REMARK  7 active torsions:
REMARK  status: ('A' for Active; 'I' for Inactive)
REMARK    1  A    between atoms: C_2  and  N_1 
REMARK    2  A    between atoms: C_2  and  C_3 
REMARK    3  A    between atoms: C_2  and  C_11 
REMARK    4  A    between atoms: C_3  and  C_4 
REMARK    5  A    between atoms: C_4  and  O_5 
REMARK    6  A    between atoms: O_5  and  N_6 
REMARK       I    between atoms: N_6  and  C_7 
REMARK       I    between atoms: C_7  and  N_8 
REMARK    7  A    between atoms: C_11  and  O_12 
ROOT
HETATM    1  C   UNK N   1      43.984  23.333   2.227  0.00  0.00     0.204 C 
ENDROOT
BRANCH   1   2
HETATM    2  C   UNK N   1      42.904  22.596   2.994  0.00  0.00     0.064 C 
BRANCH   2   3
HETATM    3  C   UNK N   1      43.501  21.962   4.239  0.00  0.00     0.175 C 
BRANCH   3   4
HETATM    4  N   UNK N   1      43.633  22.960   5.290  0.00  0.00    -0.417 N 
HETATM    5  H   UNK N   1      44.353  23.682   5.262  0.00  0.00     0.150 HD
HETATM    6  H   UNK N   1      42.987  22.938   6.078  0.00  0.00     0.150 HD
ENDBRANCH   3   4
BRANCH   3   7
HETATM    7  C   UNK N   1      44.828  21.333   3.929  0.00  0.00     0.163 C 
HETATM    8  O   UNK N   1      44.870  20.231   3.407  0.00  0.00    -0.648 OA
BRANCH   7   9
HETATM    9  O   UNK N   1      45.977  21.962   4.247  0.00  0.00    -0.775 OA
HETATM   10  H   UNK N   1      46.809  21.560   4.401  0.00  0.00     0.167 HD
ENDBRANCH   7   9
ENDBRANCH   3   7
ENDBRANCH   2   3
ENDBRANCH   1   2
BRANCH   1  11
HETATM   11  O   UNK N   1      44.502  24.360   3.019  0.00  0.00    -0.266 OA
BRANCH  11  12
HETATM   12  N   UNK N   1      45.794  24.462   2.672  0.00  0.00    -0.097 N 
HETATM   13  C   UNK N   1      46.317  25.654   2.107  0.00  0.00     0.689 C 
HETATM   14  N   UNK N   1      47.646  25.685   1.635  0.00  0.00    -0.233 N 
HETATM   15  N   UNK N   1      45.591  26.710   2.037  0.00  0.00    -0.233 N 
HETATM   16  H   UNK N   1      48.215  24.887   1.542  0.00  0.00     0.174 HD
HETATM   17  H   UNK N   1      48.026  26.557   1.383  0.00  0.00     0.174 HD
HETATM   18  H   UNK N   1      45.707  27.468   1.420  0.00  0.00     0.174 HD
ATOM     19  HN  UNK N   1      44.811  26.770   2.690  1.00  0.00     0.174 HD
HETATM   20  H   UNK N   1      46.392  23.692   2.812  0.00  0.00     0.213 HD
ENDBRANCH  11  12
ENDBRANCH   1  11
TORSDOF 7
ENDMDL
MODEL 2
REMARK VINA RESULT:      -4.7     13.882     15.967
REMARK  7 active torsions:
REMARK  status: ('A' for Active; 'I' for Inactive)
REMARK    1  A    between atoms: C_2  and  N_1 
REMARK    2  A    between atoms: C_2  and  C_3 
REMARK    3  A    between atoms: C_2  and  C_11 
REMARK    4  A    between atoms: C_3  and  C_4 
REMARK    5  A    between atoms: C_4  and  O_5 
REMARK    6  A    between atoms: O_5  and  N_6 
REMARK       I    between atoms: N_6  and  C_7 
REMARK       I    between atoms: C_7  and  N_8 
REMARK    7  A    between atoms: C_11  and  O_12 
ROOT
HETATM    1  C   UNK N   1      31.211  16.995   7.616  0.00  0.00     0.204 C 
ENDROOT
BRANCH   1   2
HETATM    2  C   UNK N   1      32.071  17.715   8.637  0.00  0.00     0.064 C 
BRANCH   2   3
HETATM    3  C   UNK N   1      33.499  17.199   8.558  0.00  0.00     0.175 C 
BRANCH   3   4
HETATM    4  N   UNK N   1      34.041  17.032   9.899  0.00  0.00    -0.417 N 
HETATM    5  H   UNK N   1      35.040  17.106  10.092  0.00  0.00     0.150 HD
HETATM    6  H   UNK N   1      33.402  16.836  10.669  0.00  0.00     0.150 HD
ENDBRANCH   3   4
BRANCH   3   7
HETATM    7  C   UNK N   1      34.355  18.130   7.749  0.00  0.00     0.163 C 
HETATM    8  O   UNK N   1      34.966  19.028   8.305  0.00  0.00    -0.648 OA
BRANCH   7   9
HETATM    9  O   UNK N   1      34.433  18.002   6.410  0.00  0.00    -0.775 OA
HETATM   10  H   UNK N   1      35.077  18.388   5.849  0.00  0.00     0.167 HD
ENDBRANCH   7   9
ENDBRANCH   3   7
ENDBRANCH   2   3
ENDBRANCH   1   2
BRANCH   1  11
HETATM   11  O   UNK N   1      29.884  16.984   8.049  0.00  0.00    -0.266 OA
BRANCH  11  12
HETATM   12  N   UNK N   1      29.296  18.016   7.425  0.00  0.00    -0.097 N 
HETATM   13  C   UNK N   1      28.176  18.681   7.989  0.00  0.00     0.689 C 
HETATM   14  N   UNK N   1      27.504  19.676   7.249  0.00  0.00    -0.233 N 
HETATM   15  N   UNK N   1      27.783  18.394   9.177  0.00  0.00    -0.233 N 
HETATM   16  H   UNK N   1      27.669  19.860   6.297  0.00  0.00     0.174 HD
HETATM   17  H   UNK N   1      26.828  20.220   7.715  0.00  0.00     0.174 HD
HETATM   18  H   UNK N   1      26.885  18.538   9.553  0.00  0.00     0.174 HD
ATOM     19  HN  UNK N   1      28.473  17.971   9.795  1.00  0.00     0.174 HD
HETATM   20  H   UNK N   1      29.648  18.317   6.556  0.00  0.00     0.213 HD
ENDBRANCH  11  12
ENDBRANCH   1  11
TORSDOF 7
ENDMDL
MODEL 3
REMARK VINA RESULT:      -4.6     13.247     14.740
REMARK  7 active torsions:
REMARK  status: ('A' for Active; 'I' for Inactive)
REMARK    1  A    between atoms: C_2  and  N_1 
REMARK    2  A    between atoms: C_2  and  C_3 
REMARK    3  A    between atoms: C_2  and  C_11 
REMARK    4  A    between atoms: C_3  and  C_4 
REMARK    5  A    between atoms: C_4  and  O_5 
REMARK    6  A    between atoms: O_5  and  N_6 
REMARK       I    between atoms: N_6  and  C_7 
REMARK       I    between atoms: C_7  and  N_8 
REMARK    7  A    between atoms: C_11  and  O_12 
ROOT
HETATM    1  C   UNK N   1      33.960  14.684   9.435  0.00  0.00     0.204 C 
ENDROOT
BRANCH   1   2
HETATM    2  C   UNK N   1      34.482  15.740   8.481  0.00  0.00     0.064 C 
BRANCH   2   3
HETATM    3  C   UNK N   1      34.074  17.120   8.971  0.00  0.00     0.175 C 
BRANCH   3   4
HETATM    4  N   UNK N   1      32.624  17.203   9.067  0.00  0.00    -0.417 N 
HETATM    5  H   UNK N   1      32.037  16.370   9.112  0.00  0.00     0.150 HD
HETATM    6  H   UNK N   1      32.181  18.121   9.091  0.00  0.00     0.150 HD
ENDBRANCH   3   4
BRANCH   3   7
HETATM    7  C   UNK N   1      34.610  18.186   8.060  0.00  0.00     0.163 C 
HETATM    8  O   UNK N   1      35.214  19.137   8.530  0.00  0.00    -0.648 OA
BRANCH   7   9
HETATM    9  O   UNK N   1      34.407  18.120   6.730  0.00  0.00    -0.775 OA
HETATM   10  H   UNK N   1      33.763  18.592   6.239  0.00  0.00     0.167 HD
ENDBRANCH   7   9
ENDBRANCH   3   7
ENDBRANCH   2   3
ENDBRANCH   1   2
BRANCH   1  11
HETATM   11  O   UNK N   1      34.034  15.160  10.746  0.00  0.00    -0.266 OA
BRANCH  11  12
HETATM   12  N   UNK N   1      34.843  14.306  11.391  0.00  0.00    -0.097 N 
HETATM   13  C   UNK N   1      36.208  14.614  11.626  0.00  0.00     0.689 C 
HETATM   14  N   UNK N   1      37.061  13.643  12.191  0.00  0.00    -0.233 N 
HETATM   15  N   UNK N   1      36.668  15.778  11.341  0.00  0.00    -0.233 N 
HETATM   16  H   UNK N   1      36.812  12.699  12.318  0.00  0.00     0.174 HD
HETATM   17  H   UNK N   1      37.959  13.927  12.476  0.00  0.00     0.174 HD
HETATM   18  H   UNK N   1      37.607  16.017  11.164  0.00  0.00     0.174 HD
ATOM     19  HN  UNK N   1      35.989  16.536  11.292  1.00  0.00     0.174 HD
HETATM   20  H   UNK N   1      34.481  13.447  11.707  0.00  0.00     0.213 HD
ENDBRANCH  11  12
ENDBRANCH   1  11
TORSDOF 7
ENDMDL
MODEL 4
REMARK VINA RESULT:      -4.5     14.657     16.460
REMARK  7 active torsions:
REMARK  status: ('A' for Active; 'I' for Inactive)
REMARK    1  A    between atoms: C_2  and  N_1 
REMARK    2  A    between atoms: C_2  and  C_3 
REMARK    3  A    between atoms: C_2  and  C_11 
REMARK    4  A    between atoms: C_3  and  C_4 
REMARK    5  A    between atoms: C_4  and  O_5 
REMARK    6  A    between atoms: O_5  and  N_6 
REMARK       I    between atoms: N_6  and  C_7 
REMARK       I    between atoms: C_7  and  N_8 
REMARK    7  A    between atoms: C_11  and  O_12 
ROOT
HETATM    1  C   UNK N   1      30.871  16.945   8.176  0.00  0.00     0.204 C 
ENDROOT
BRANCH   1   2
HETATM    2  C   UNK N   1      30.518  18.263   8.837  0.00  0.00     0.064 C 
BRANCH   2   3
HETATM    3  C   UNK N   1      29.439  18.039   9.883  0.00  0.00     0.175 C 
BRANCH   3   4
HETATM    4  N   UNK N   1      29.728  16.831  10.643  0.00  0.00    -0.417 N 
HETATM    5  H   UNK N   1      29.867  15.928  10.189  0.00  0.00     0.150 HD
HETATM    6  H   UNK N   1      29.793  16.889  11.658  0.00  0.00     0.150 HD
ENDBRANCH   3   4
BRANCH   3   7
HETATM    7  C   UNK N   1      28.086  17.954   9.239  0.00  0.00     0.163 C 
HETATM    8  O   UNK N   1      27.451  16.914   9.298  0.00  0.00    -0.648 OA
BRANCH   7   9
HETATM    9  O   UNK N   1      27.576  19.007   8.571  0.00  0.00    -0.775 OA
HETATM   10  H   UNK N   1      27.114  19.734   8.942  0.00  0.00     0.167 HD
ENDBRANCH   7   9
ENDBRANCH   3   7
ENDBRANCH   2   3
ENDBRANCH   1   2
BRANCH   1  11
HETATM   11  O   UNK N   1      32.083  16.476   8.688  0.00  0.00    -0.266 OA
BRANCH  11  12
HETATM   12  N   UNK N   1      32.845  17.567   8.858  0.00  0.00    -0.097 N 
HETATM   13  C   UNK N   1      34.102  17.700   8.211  0.00  0.00     0.689 C 
HETATM   14  N   UNK N   1      34.934  18.798   8.512  0.00  0.00    -0.233 N 
HETATM   15  N   UNK N   1      34.478  16.834   7.342  0.00  0.00    -0.233 N 
HETATM   16  H   UNK N   1      34.769  19.428   9.250  0.00  0.00     0.174 HD
HETATM   17  H   UNK N   1      35.728  18.944   7.948  0.00  0.00     0.174 HD
HETATM   18  H   UNK N   1      35.402  16.636   7.066  0.00  0.00     0.174 HD
ATOM     19  HN  UNK N   1      33.742  16.292   6.891  1.00  0.00     0.174 HD
HETATM   20  H   UNK N   1      32.526  18.290   9.445  0.00  0.00     0.213 HD
ENDBRANCH  11  12
ENDBRANCH   1  11
TORSDOF 7
ENDMDL
MODEL 5
REMARK VINA RESULT:      -4.5      1.828      2.208
REMARK  7 active torsions:
REMARK  status: ('A' for Active; 'I' for Inactive)
REMARK    1  A    between atoms: C_2  and  N_1 
REMARK    2  A    between atoms: C_2  and  C_3 
REMARK    3  A    between atoms: C_2  and  C_11 
REMARK    4  A    between atoms: C_3  and  C_4 
REMARK    5  A    between atoms: C_4  and  O_5 
REMARK    6  A    between atoms: O_5  and  N_6 
REMARK       I    between atoms: N_6  and  C_7 
REMARK       I    between atoms: C_7  and  N_8 
REMARK    7  A    between atoms: C_11  and  O_12 
ROOT
HETATM    1  C   UNK N   1      43.303  23.922   0.289  0.00  0.00     0.204 C 
ENDROOT
BRANCH   1   2
HETATM    2  C   UNK N   1      43.623  22.722   1.158  0.00  0.00     0.064 C 
BRANCH   2   3
HETATM    3  C   UNK N   1      42.665  22.672   2.337  0.00  0.00     0.175 C 
BRANCH   3   4
HETATM    4  N   UNK N   1      41.572  23.611   2.127  0.00  0.00    -0.417 N 
HETATM    5  H   UNK N   1      41.244  23.859   1.194  0.00  0.00     0.150 HD
HETATM    6  H   UNK N   1      41.120  24.032   2.938  0.00  0.00     0.150 HD
ENDBRANCH   3   4
BRANCH   3   7
HETATM    7  C   UNK N   1      43.386  22.970   3.619  0.00  0.00     0.163 C 
HETATM    8  O   UNK N   1      43.601  22.072   4.416  0.00  0.00    -0.648 OA
BRANCH   7   9
HETATM    9  O   UNK N   1      43.775  24.226   3.912  0.00  0.00    -0.775 OA
HETATM   10  H   UNK N   1      43.254  25.003   3.844  0.00  0.00     0.167 HD
ENDBRANCH   7   9
ENDBRANCH   3   7
ENDBRANCH   2   3
ENDBRANCH   1   2
BRANCH   1  11
HETATM   11  O   UNK N   1      43.863  25.070   0.854  0.00  0.00    -0.266 OA
BRANCH  11  12
HETATM   12  N   UNK N   1      45.168  24.796   1.001  0.00  0.00    -0.097 N 
HETATM   13  C   UNK N   1      46.008  25.607   1.809  0.00  0.00     0.689 C 
HETATM   14  N   UNK N   1      47.398  25.367   1.840  0.00  0.00    -0.233 N 
HETATM   15  N   UNK N   1      45.507  26.547   2.525  0.00  0.00    -0.233 N 
HETATM   16  H   UNK N   1      47.864  24.751   1.229  0.00  0.00     0.174 HD
HETATM   17  H   UNK N   1      47.934  25.844   2.513  0.00  0.00     0.174 HD
HETATM   18  H   UNK N   1      45.975  27.343   2.866  0.00  0.00     0.174 HD
ATOM     19  HN  UNK N   1      44.521  26.460   2.764  1.00  0.00     0.174 HD
HETATM   20  H   UNK N   1      45.551  24.016   0.538  0.00  0.00     0.213 HD
ENDBRANCH  11  12
ENDBRANCH   1  11
TORSDOF 7
ENDMDL
MODEL 6
REMARK VINA RESULT:      -4.4     13.678     15.842
REMARK  7 active torsions:
REMARK  status: ('A' for Active; 'I' for Inactive)
REMARK    1  A    between atoms: C_2  and  N_1 
REMARK    2  A    between atoms: C_2  and  C_3 
REMARK    3  A    between atoms: C_2  and  C_11 
REMARK    4  A    between atoms: C_3  and  C_4 
REMARK    5  A    between atoms: C_4  and  O_5 
REMARK    6  A    between atoms: O_5  and  N_6 
REMARK       I    between atoms: N_6  and  C_7 
REMARK       I    between atoms: C_7  and  N_8 
REMARK    7  A    between atoms: C_11  and  O_12 
ROOT
HETATM    1  C   UNK N   1      31.871  17.308   7.475  0.00  0.00     0.204 C 
ENDROOT
BRANCH   1   2
HETATM    2  C   UNK N   1      32.971  18.142   8.101  0.00  0.00     0.064 C 
BRANCH   2   3
HETATM    3  C   UNK N   1      34.258  17.336   8.154  0.00  0.00     0.175 C 
BRANCH   3   4
HETATM    4  N   UNK N   1      34.123  16.133   7.347  0.00  0.00    -0.417 N 
HETATM    5  H   UNK N   1      33.960  15.216   7.765  0.00  0.00     0.150 HD
HETATM    6  H   UNK N   1      34.194  16.207   6.332  0.00  0.00     0.150 HD
ENDBRANCH   3   4
BRANCH   3   7
HETATM    7  C   UNK N   1      34.608  16.991   9.572  0.00  0.00     0.163 C 
HETATM    8  O   UNK N   1      35.512  17.587  10.136  0.00  0.00    -0.648 OA
BRANCH   7   9
HETATM    9  O   UNK N   1      33.954  16.009  10.222  0.00  0.00    -0.775 OA
HETATM   10  H   UNK N   1      33.767  15.975  11.140  0.00  0.00     0.167 HD
ENDBRANCH   7   9
ENDBRANCH   3   7
ENDBRANCH   2   3
ENDBRANCH   1   2
BRANCH   1  11
HETATM   11  O   UNK N   1      31.076  16.753   8.481  0.00  0.00    -0.266 OA
BRANCH  11  12
HETATM   12  N   UNK N   1      29.839  17.225   8.260  0.00  0.00    -0.097 N 
HETATM   13  C   UNK N   1      29.210  18.110   9.174  0.00  0.00     0.689 C 
HETATM   14  N   UNK N   1      27.864  18.484   8.977  0.00  0.00    -0.233 N 
HETATM   15  N   UNK N   1      29.865  18.584  10.170  0.00  0.00    -0.233 N 
HETATM   16  H   UNK N   1      27.269  18.068   8.313  0.00  0.00     0.174 HD
HETATM   17  H   UNK N   1      27.499  19.206   9.537  0.00  0.00     0.174 HD
HETATM   18  H   UNK N   1      29.491  18.935  11.011  0.00  0.00     0.174 HD
ATOM     19  HN  UNK N   1      30.880  18.600  10.083  1.00  0.00     0.174 HD
HETATM   20  H   UNK N   1      29.358  16.950   7.446  0.00  0.00     0.213 HD
ENDBRANCH  11  12
ENDBRANCH   1  11
TORSDOF 7
ENDMDL
MODEL 7
REMARK VINA RESULT:      -4.4     25.188     26.082
REMARK  7 active torsions:
REMARK  status: ('A' for Active; 'I' for Inactive)
REMARK    1  A    between atoms: C_2  and  N_1 
REMARK    2  A    between atoms: C_2  and  C_3 
REMARK    3  A    between atoms: C_2  and  C_11 
REMARK    4  A    between atoms: C_3  and  C_4 
REMARK    5  A    between atoms: C_4  and  O_5 
REMARK    6  A    between atoms: O_5  and  N_6 
REMARK       I    between atoms: N_6  and  C_7 
REMARK       I    between atoms: C_7  and  N_8 
REMARK    7  A    between atoms: C_11  and  O_12 
ROOT
HETATM    1  C   UNK N   1      21.312  13.608   9.905  0.00  0.00     0.204 C 
ENDROOT
BRANCH   1   2
HETATM    2  C   UNK N   1      22.721  13.081  10.099  0.00  0.00     0.064 C 
BRANCH   2   3
HETATM    3  C   UNK N   1      22.703  11.923  11.083  0.00  0.00     0.175 C 
BRANCH   3   4
HETATM    4  N   UNK N   1      21.410  11.857  11.748  0.00  0.00    -0.417 N 
HETATM    5  H   UNK N   1      20.642  12.481  11.500  0.00  0.00     0.150 HD
HETATM    6  H   UNK N   1      21.267  11.165  12.483  0.00  0.00     0.150 HD
ENDBRANCH   3   4
BRANCH   3   7
HETATM    7  C   UNK N   1      23.812  12.062  12.085  0.00  0.00     0.163 C 
HETATM    8  O   UNK N   1      23.565  11.986  13.278  0.00  0.00    -0.648 OA
BRANCH   7   9
HETATM    9  O   UNK N   1      25.076  12.298  11.682  0.00  0.00    -0.775 OA
HETATM   10  H   UNK N   1      25.465  12.026  10.873  0.00  0.00     0.167 HD
ENDBRANCH   7   9
ENDBRANCH   3   7
ENDBRANCH   2   3
ENDBRANCH   1   2
BRANCH   1  11
HETATM   11  O   UNK N   1      21.300  14.535   8.859  0.00  0.00    -0.266 OA
BRANCH  11  12
HETATM   12  N   UNK N   1      20.323  15.402   9.163  0.00  0.00    -0.097 N 
HETATM   13  C   UNK N   1      20.177  16.627   8.461  0.00  0.00     0.689 C 
HETATM   14  N   UNK N   1      19.222  17.573   8.888  0.00  0.00    -0.233 N 
HETATM   15  N   UNK N   1      20.898  16.872   7.428  0.00  0.00    -0.233 N 
HETATM   16  H   UNK N   1      18.725  17.509   9.736  0.00  0.00     0.174 HD
HETATM   17  H   UNK N   1      19.040  18.343   8.303  0.00  0.00     0.174 HD
HETATM   18  H   UNK N   1      21.115  17.756   7.054  0.00  0.00     0.174 HD
ATOM     19  HN  UNK N   1      21.287  16.064   6.943  1.00  0.00     0.174 HD
HETATM   20  H   UNK N   1      19.695  15.185   9.890  0.00  0.00     0.213 HD
ENDBRANCH  11  12
ENDBRANCH   1  11
TORSDOF 7
ENDMDL
MODEL 8
REMARK VINA RESULT:      -4.2     13.815     16.043
REMARK  7 active torsions:
REMARK  status: ('A' for Active; 'I' for Inactive)
REMARK    1  A    between atoms: C_2  and  N_1 
REMARK    2  A    between atoms: C_2  and  C_3 
REMARK    3  A    between atoms: C_2  and  C_11 
REMARK    4  A    between atoms: C_3  and  C_4 
REMARK    5  A    between atoms: C_4  and  O_5 
REMARK    6  A    between atoms: O_5  and  N_6 
REMARK       I    between atoms: N_6  and  C_7 
REMARK       I    between atoms: C_7  and  N_8 
REMARK    7  A    between atoms: C_11  and  O_12 
ROOT
HETATM    1  C   UNK N   1      35.326  13.478  11.399  0.00  0.00     0.204 C 
ENDROOT
BRANCH   1   2
HETATM    2  C   UNK N   1      34.767  14.251  10.221  0.00  0.00     0.064 C 
BRANCH   2   3
HETATM    3  C   UNK N   1      35.754  15.328   9.800  0.00  0.00     0.175 C 
BRANCH   3   4
HETATM    4  N   UNK N   1      37.077  15.019  10.321  0.00  0.00    -0.417 N 
HETATM    5  H   UNK N   1      37.313  15.144  11.306  0.00  0.00     0.150 HD
HETATM    6  H   UNK N   1      37.790  14.667   9.684  0.00  0.00     0.150 HD
ENDBRANCH   3   4
BRANCH   3   7
HETATM    7  C   UNK N   1      35.296  16.678  10.270  0.00  0.00     0.163 C 
HETATM    8  O   UNK N   1      35.206  17.598   9.473  0.00  0.00    -0.648 OA
BRANCH   7   9
HETATM    9  O   UNK N   1      35.011  16.893  11.569  0.00  0.00    -0.775 OA
HETATM   10  H   UNK N   1      34.695  16.261  12.183  0.00  0.00     0.167 HD
ENDBRANCH   7   9
ENDBRANCH   3   7
ENDBRANCH   2   3
ENDBRANCH   1   2
BRANCH   1  11
HETATM   11  O   UNK N   1      34.851  14.032  12.590  0.00  0.00    -0.266 OA
BRANCH  11  12
HETATM   12  N   UNK N   1      35.945  14.370  13.288  0.00  0.00    -0.097 N 
HETATM   13  C   UNK N   1      36.163  13.884  14.604  0.00  0.00     0.689 C 
HETATM   14  N   UNK N   1      37.256  14.359  15.358  0.00  0.00    -0.233 N 
HETATM   15  N   UNK N   1      35.378  13.001  15.106  0.00  0.00    -0.233 N 
HETATM   16  H   UNK N   1      37.821  15.119  15.088  0.00  0.00     0.174 HD
HETATM   17  H   UNK N   1      37.467  13.903  16.204  0.00  0.00     0.174 HD
HETATM   18  H   UNK N   1      35.228  12.818  16.062  0.00  0.00     0.174 HD
ATOM     19  HN  UNK N   1      34.854  12.429  14.445  1.00  0.00     0.174 HD
HETATM   20  H   UNK N   1      36.611  14.969  12.880  0.00  0.00     0.213 HD
ENDBRANCH  11  12
ENDBRANCH   1  11
TORSDOF 7
ENDMDL
MODEL 9
REMARK VINA RESULT:      -4.2     14.938     17.547
REMARK  7 active torsions:
REMARK  status: ('A' for Active; 'I' for Inactive)
REMARK    1  A    between atoms: C_2  and  N_1 
REMARK    2  A    between atoms: C_2  and  C_3 
REMARK    3  A    between atoms: C_2  and  C_11 
REMARK    4  A    between atoms: C_3  and  C_4 
REMARK    5  A    between atoms: C_4  and  O_5 
REMARK    6  A    between atoms: O_5  and  N_6 
REMARK       I    between atoms: N_6  and  C_7 
REMARK       I    between atoms: C_7  and  N_8 
REMARK    7  A    between atoms: C_11  and  O_12 
ROOT
HETATM    1  C   UNK N   1      35.903  13.828  13.354  0.00  0.00     0.204 C 
ENDROOT
BRANCH   1   2
HETATM    2  C   UNK N   1      35.603  13.977  11.876  0.00  0.00     0.064 C 
BRANCH   2   3
HETATM    3  C   UNK N   1      34.918  15.310  11.624  0.00  0.00     0.175 C 
BRANCH   3   4
HETATM    4  N   UNK N   1      33.686  15.102  10.878  0.00  0.00    -0.417 N 
HETATM    5  H   UNK N   1      33.684  14.948   9.870  0.00  0.00     0.150 HD
HETATM    6  H   UNK N   1      32.797  15.110  11.379  0.00  0.00     0.150 HD
ENDBRANCH   3   4
BRANCH   3   7
HETATM    7  C   UNK N   1      35.834  16.247  10.892  0.00  0.00     0.163 C 
HETATM    8  O   UNK N   1      35.379  17.244  10.355  0.00  0.00    -0.648 OA
BRANCH   7   9
HETATM    9  O   UNK N   1      37.152  15.983  10.794  0.00  0.00    -0.775 OA
HETATM   10  H   UNK N   1      37.827  16.293  11.365  0.00  0.00     0.167 HD
ENDBRANCH   7   9
ENDBRANCH   3   7
ENDBRANCH   2   3
ENDBRANCH   1   2
BRANCH   1  11
HETATM   11  O   UNK N   1      34.799  13.269  14.002  0.00  0.00    -0.266 OA
BRANCH  11  12
HETATM   12  N   UNK N   1      35.121  13.250  15.304  0.00  0.00    -0.097 N 
HETATM   13  C   UNK N   1      34.969  12.076  16.087  0.00  0.00     0.689 C 
HETATM   14  N   UNK N   1      35.194  12.125  17.479  0.00  0.00    -0.233 N 
HETATM   15  N   UNK N   1      34.645  10.965  15.533  0.00  0.00    -0.233 N 
HETATM   16  H   UNK N   1      35.322  12.959  17.987  0.00  0.00     0.174 HD
HETATM   17  H   UNK N   1      35.224  11.274  17.972  0.00  0.00     0.174 HD
HETATM   18  H   UNK N   1      34.220  10.190  15.966  0.00  0.00     0.174 HD
ATOM     19  HN  UNK N   1      34.848  10.877  14.538  1.00  0.00     0.174 HD
HETATM   20  H   UNK N   1      35.468  14.070  15.726  0.00  0.00     0.213 HD
ENDBRANCH  11  12
ENDBRANCH   1  11
TORSDOF 7
ENDMDL
