MODEL 1
REMARK VINA RESULT:      -4.5      0.000      0.000
REMARK  0 active torsions:
REMARK  status: ('A' for Active; 'I' for Inactive)
ROOT
HETATM    1  C   UNK N   1      27.244  27.321  -7.269  0.00  0.00     0.310 C 
HETATM    2  N   UNK N   1      27.042  26.398  -6.157  0.00  0.00     0.094 N 
HETATM    3  C   UNK N   1      27.040  27.142  -4.898  0.00  0.00     0.230 C 
HETATM    4  C   UNK N   1      25.658  27.782  -4.772  0.00  0.00     0.038 C 
HETATM    5  C   UNK N   1      24.769  26.957  -5.684  0.00  0.00     0.038 C 
HETATM    6  C   UNK N   1      25.685  25.855  -6.201  0.00  0.00     0.230 C 
HETATM    7  C   UNK N   1      25.605  24.660  -5.233  0.00  0.00     0.114 C 
HETATM    8  C   UNK N   1      26.378  24.895  -3.951  0.00  0.00     0.131 C 
HETATM    9  O   UNK N   1      26.363  24.041  -3.079  0.00  0.00    -0.298 OA
HETATM   10  C   UNK N   1      27.217  26.138  -3.752  0.00  0.00     0.114 C 
ENDROOT
TORSDOF 0
ENDMDL
MODEL 2
REMARK VINA RESULT:      -4.3     19.957     21.090
REMARK  0 active torsions:
REMARK  status: ('A' for Active; 'I' for Inactive)
ROOT
HETATM    1  C   UNK N   1      23.157  11.057   7.953  0.00  0.00     0.310 C 
HETATM    2  N   UNK N   1      23.251  11.270   9.394  0.00  0.00     0.094 N 
HETATM    3  C   UNK N   1      24.408  12.113   9.689  0.00  0.00     0.230 C 
HETATM    4  C   UNK N   1      23.990  13.551   9.386  0.00  0.00     0.038 C 
HETATM    5  C   UNK N   1      22.474  13.528   9.437  0.00  0.00     0.038 C 
HETATM    6  C   UNK N   1      22.136  12.100   9.848  0.00  0.00     0.230 C 
HETATM    7  C   UNK N   1      22.074  12.037  11.385  0.00  0.00     0.114 C 
HETATM    8  C   UNK N   1      23.447  12.045  12.026  0.00  0.00     0.131 C 
HETATM    9  O   UNK N   1      23.540  12.040  13.242  0.00  0.00    -0.298 OA
HETATM   10  C   UNK N   1      24.708  12.001  11.190  0.00  0.00     0.114 C 
ENDROOT
TORSDOF 0
ENDMDL
MODEL 3
REMARK VINA RESULT:      -4.2     16.524     17.830
REMARK  0 active torsions:
REMARK  status: ('A' for Active; 'I' for Inactive)
ROOT
HETATM    1  C   UNK N   1      31.124  17.096   7.094  0.00  0.00     0.310 C 
HETATM    2  N   UNK N   1      32.300  17.215   7.951  0.00  0.00     0.094 N 
HETATM    3  C   UNK N   1      32.869  15.889   8.187  0.00  0.00     0.230 C 
HETATM    4  C   UNK N   1      33.671  15.529   6.937  0.00  0.00     0.038 C 
HETATM    5  C   UNK N   1      33.960  16.862   6.270  0.00  0.00     0.038 C 
HETATM    6  C   UNK N   1      33.376  17.892   7.228  0.00  0.00     0.230 C 
HETATM    7  C   UNK N   1      34.467  18.292   8.239  0.00  0.00     0.114 C 
HETATM    8  C   UNK N   1      34.699  17.233   9.297  0.00  0.00     0.131 C 
HETATM    9  O   UNK N   1      35.567  17.406  10.137  0.00  0.00    -0.298 OA
HETATM   10  C   UNK N   1      33.838  15.990   9.373  0.00  0.00     0.114 C 
ENDROOT
TORSDOF 0
ENDMDL
MODEL 4
REMARK VINA RESULT:      -4.2      1.388      2.030
REMARK  0 active torsions:
REMARK  status: ('A' for Active; 'I' for Inactive)
ROOT
HETATM    1  C   UNK N   1      28.477  28.265  -4.736  0.00  0.00     0.310 C 
HETATM    2  N   UNK N   1      27.579  27.155  -5.036  0.00  0.00     0.094 N 
HETATM    3  C   UNK N   1      27.243  26.450  -3.800  0.00  0.00     0.230 C 
HETATM    4  C   UNK N   1      26.169  27.282  -3.100  0.00  0.00     0.038 C 
HETATM    5  C   UNK N   1      25.567  28.134  -4.202  0.00  0.00     0.038 C 
HETATM    6  C   UNK N   1      26.279  27.669  -5.466  0.00  0.00     0.230 C 
HETATM    7  C   UNK N   1      25.474  26.509  -6.080  0.00  0.00     0.114 C 
HETATM    8  C   UNK N   1      25.660  25.206  -5.328  0.00  0.00     0.131 C 
HETATM    9  O   UNK N   1      25.044  24.216  -5.687  0.00  0.00    -0.298 OA
HETATM   10  C   UNK N   1      26.636  25.092  -4.177  0.00  0.00     0.114 C 
ENDROOT
TORSDOF 0
ENDMDL
MODEL 5
REMARK VINA RESULT:      -4.1     16.887     18.050
REMARK  0 active torsions:
REMARK  status: ('A' for Active; 'I' for Inactive)
ROOT
HETATM    1  C   UNK N   1      33.754  13.986   7.254  0.00  0.00     0.310 C 
HETATM    2  N   UNK N   1      34.134  15.364   7.547  0.00  0.00     0.094 N 
HETATM    3  C   UNK N   1      33.296  16.277   6.771  0.00  0.00     0.230 C 
HETATM    4  C   UNK N   1      31.956  16.368   7.500  0.00  0.00     0.038 C 
HETATM    5  C   UNK N   1      32.264  15.928   8.920  0.00  0.00     0.038 C 
HETATM    6  C   UNK N   1      33.769  15.699   8.923  0.00  0.00     0.230 C 
HETATM    7  C   UNK N   1      34.463  17.020   9.304  0.00  0.00     0.114 C 
HETATM    8  C   UNK N   1      34.476  18.022   8.168  0.00  0.00     0.131 C 
HETATM    9  O   UNK N   1      34.960  19.127   8.350  0.00  0.00    -0.298 OA
HETATM   10  C   UNK N   1      33.956  17.663   6.793  0.00  0.00     0.114 C 
ENDROOT
TORSDOF 0
ENDMDL
MODEL 6
REMARK VINA RESULT:      -4.0     15.032     16.249
REMARK  0 active torsions:
REMARK  status: ('A' for Active; 'I' for Inactive)
ROOT
HETATM    1  C   UNK N   1      29.787  16.801   5.641  0.00  0.00     0.310 C 
HETATM    2  N   UNK N   1      31.094  17.270   6.089  0.00  0.00     0.094 N 
HETATM    3  C   UNK N   1      31.369  16.747   7.426  0.00  0.00     0.230 C 
HETATM    4  C   UNK N   1      31.821  15.299   7.245  0.00  0.00     0.038 C 
HETATM    5  C   UNK N   1      32.287  15.222   5.803  0.00  0.00     0.038 C 
HETATM    6  C   UNK N   1      32.148  16.649   5.288  0.00  0.00     0.230 C 
HETATM    7  C   UNK N   1      33.468  17.394   5.554  0.00  0.00     0.114 C 
HETATM    8  C   UNK N   1      33.635  17.786   7.008  0.00  0.00     0.131 C 
HETATM    9  O   UNK N   1      34.658  18.348   7.363  0.00  0.00    -0.298 OA
HETATM   10  C   UNK N   1      32.535  17.549   8.021  0.00  0.00     0.114 C 
ENDROOT
TORSDOF 0
ENDMDL
MODEL 7
REMARK VINA RESULT:      -4.0     14.950     16.221
REMARK  0 active torsions:
REMARK  status: ('A' for Active; 'I' for Inactive)
ROOT
HETATM    1  C   UNK N   1      31.234  14.397   5.680  0.00  0.00     0.310 C 
HETATM    2  N   UNK N   1      32.177  15.421   6.117  0.00  0.00     0.094 N 
HETATM    3  C   UNK N   1      32.310  16.439   5.076  0.00  0.00     0.230 C 
HETATM    4  C   UNK N   1      31.088  17.349   5.195  0.00  0.00     0.038 C 
HETATM    5  C   UNK N   1      30.588  17.133   6.612  0.00  0.00     0.038 C 
HETATM    6  C   UNK N   1      31.607  16.183   7.227  0.00  0.00     0.230 C 
HETATM    7  C   UNK N   1      32.727  17.019   7.872  0.00  0.00     0.114 C 
HETATM    8  C   UNK N   1      33.681  17.604   6.850  0.00  0.00     0.131 C 
HETATM    9  O   UNK N   1      34.592  18.324   7.226  0.00  0.00    -0.298 OA
HETATM   10  C   UNK N   1      33.565  17.269   5.379  0.00  0.00     0.114 C 
ENDROOT
TORSDOF 0
ENDMDL
MODEL 8
REMARK VINA RESULT:      -3.9      2.507      3.422
REMARK  0 active torsions:
REMARK  status: ('A' for Active; 'I' for Inactive)
ROOT
HETATM    1  C   UNK N   1      29.288  28.415  -3.387  0.00  0.00     0.310 C 
HETATM    2  N   UNK N   1      28.025  27.995  -3.987  0.00  0.00     0.094 N 
HETATM    3  C   UNK N   1      26.911  28.583  -3.245  0.00  0.00     0.230 C 
HETATM    4  C   UNK N   1      26.788  30.032  -3.716  0.00  0.00     0.038 C 
HETATM    5  C   UNK N   1      27.481  30.055  -5.067  0.00  0.00     0.038 C 
HETATM    6  C   UNK N   1      27.876  28.604  -5.308  0.00  0.00     0.230 C 
HETATM    7  C   UNK N   1      26.720  27.899  -6.043  0.00  0.00     0.114 C 
HETATM    8  C   UNK N   1      25.557  27.577  -5.126  0.00  0.00     0.131 C 
HETATM    9  O   UNK N   1      24.557  27.054  -5.591  0.00  0.00    -0.298 OA
HETATM   10  C   UNK N   1      25.630  27.834  -3.637  0.00  0.00     0.114 C 
ENDROOT
TORSDOF 0
ENDMDL
MODEL 9
REMARK VINA RESULT:      -3.9      2.448      3.510
REMARK  0 active torsions:
REMARK  status: ('A' for Active; 'I' for Inactive)
ROOT
HETATM    1  C   UNK N   1      26.488  25.146  -4.170  0.00  0.00     0.310 C 
HETATM    2  N   UNK N   1      26.805  26.554  -4.390  0.00  0.00     0.094 N 
HETATM    3  C   UNK N   1      27.128  26.767  -5.800  0.00  0.00     0.230 C 
HETATM    4  C   UNK N   1      25.797  26.829  -6.549  0.00  0.00     0.038 C 
HETATM    5  C   UNK N   1      24.774  27.174  -5.482  0.00  0.00     0.038 C 
HETATM    6  C   UNK N   1      25.603  27.367  -4.219  0.00  0.00     0.230 C 
HETATM    7  C   UNK N   1      26.021  28.846  -4.132  0.00  0.00     0.114 C 
HETATM    8  C   UNK N   1      27.144  29.192  -5.089  0.00  0.00     0.131 C 
HETATM    9  O   UNK N   1      27.544  30.343  -5.151  0.00  0.00    -0.298 OA
HETATM   10  C   UNK N   1      27.821  28.130  -5.929  0.00  0.00     0.114 C 
ENDROOT
TORSDOF 0
ENDMDL
