REMARK  6 active torsions:
REMARK  status: ('A' for Active; 'I' for Inactive)
REMARK    1  A    between atoms: C_2  and  N_3 
REMARK    2  A    between atoms: C_2  and  C_35 
REMARK       I    between atoms: N_3  and  C_4 
REMARK    3  A    between atoms: C_9  and  C_12 
REMARK    4  A    between atoms: C_13  and  C_25 
REMARK    5  A    between atoms: C_16  and  C_17 
REMARK    6  A    between atoms: C_27  and  C_31 
ROOT
HETATM    1  C   UNK N   1      -0.698  -3.878  -0.548  0.00  0.00     0.091 A 
HETATM    2  C   UNK N   1       0.398  -4.743  -0.429  0.00  0.00     0.073 A 
HETATM    3  N   UNK N   1      -0.042  -6.015  -0.576  0.00  0.00    -0.343 N 
ATOM      4  HN  UNK N   1       0.513  -6.870  -0.532  1.00  0.00     0.167 HD
HETATM    5  C   UNK N   1      -1.375  -5.913  -0.794  0.00  0.00     0.088 A 
HETATM    6  N   UNK N   1      -1.793  -4.628  -0.766  0.00  0.00    -0.337 N 
HETATM    7  C   UNK N   1      -3.149  -4.140  -0.976  0.00  0.00     0.158 C 
ENDROOT
BRANCH   1   8
HETATM    8  C   UNK N   1      -0.731  -2.401  -0.402  0.00  0.00     0.079 A 
HETATM    9  C   UNK N   1       0.175  -1.573  -1.067  0.00  0.00     0.050 A 
HETATM   10  C   UNK N   1       0.185  -0.212  -0.778  0.00  0.00     0.108 A 
HETATM   11  N   UNK N   1      -0.659   0.286   0.160  0.00  0.00    -0.202 N 
HETATM   12  C   UNK N   1      -1.557  -0.520   0.784  0.00  0.00     0.679 A 
ATOM     13  HN  UNK N   1      -0.620   1.276   0.400  1.00  0.00     0.183 HD
HETATM   14  N   UNK N   1      -2.426   0.027   1.766  0.00  0.00    -0.218 N 
HETATM   15  N   UNK N   1      -1.601  -1.849   0.483  0.00  0.00    -0.190 N 
HETATM   16  H   UNK N   1      -2.172   0.874   2.200  0.00  0.00     0.178 HD
ATOM     17  HN  UNK N   1      -2.301  -2.440   0.931  1.00  0.00     0.184 HD
BRANCH  14  18
HETATM   18  C   UNK N   1      -3.671  -0.608   2.156  0.00  0.00     0.128 C 
HETATM   19  C   UNK N   1      -3.436  -2.025   2.671  0.00  0.00     0.038 C 
BRANCH  18  20
HETATM   20  C   UNK N   1      -4.676  -0.551   1.030  0.00  0.00    -0.035 A 
HETATM   21  C   UNK N   1      -5.924  -1.172   1.167  0.00  0.00     0.009 A 
HETATM   22  C   UNK N   1      -6.863  -1.100   0.132  0.00  0.00     0.001 A 
HETATM   23  C   UNK N   1      -6.568  -0.392  -1.037  0.00  0.00     0.000 A 
HETATM   24  C   UNK N   1      -5.333   0.243  -1.176  0.00  0.00     0.001 A 
HETATM   25  C   UNK N   1      -4.393   0.162  -0.150  0.00  0.00     0.009 A 
ENDBRANCH  18  20
ENDBRANCH  14  18
ENDBRANCH   1   8
BRANCH   2  26
HETATM   26  C   UNK N   1       1.820  -4.408  -0.135  0.00  0.00    -0.006 A 
HETATM   27  C   UNK N   1       2.242  -3.083  -0.120  0.00  0.00     0.030 A 
HETATM   28  C   UNK N   1       3.566  -2.724   0.100  0.00  0.00     0.048 A 
HETATM   29  C   UNK N   1       4.508  -3.728   0.352  0.00  0.00     0.016 A 
HETATM   30  C   UNK N   1       4.106  -5.072   0.368  0.00  0.00     0.002 A 
HETATM   31  C   UNK N   1       2.768  -5.413   0.110  0.00  0.00     0.014 A 
BRANCH  28  32
HETATM   32  C   UNK N   1       3.940  -1.271   0.014  0.00  0.00     0.417 C 
HETATM   33  F   UNK N   1       3.234  -0.548   0.959  0.00  0.00    -0.166 F 
HETATM   34  F   UNK N   1       5.294  -1.083   0.221  0.00  0.00    -0.166 F 
HETATM   35  F   UNK N   1       3.613  -0.794  -1.245  0.00  0.00    -0.166 F 
ENDBRANCH  28  32
ENDBRANCH   2  26
BRANCH   5  36
HETATM   36  C   UNK N   1      -2.276  -7.093  -1.098  0.00  0.00     0.057 C 
HETATM   37  C   UNK N   1      -1.566  -8.447  -0.966  0.00  0.00     0.031 C 
HETATM   38  C   UNK N   1      -1.437  -8.842   0.508  0.00  0.00     0.114 C 
HETATM   39  N   UNK N   1      -2.758  -8.902   1.132  0.00  0.00    -0.421 N 
HETATM   40  C   UNK N   1      -3.325  -7.557   1.142  0.00  0.00     0.114 C 
HETATM   41  H   UNK N   1      -3.208  -9.742   1.497  0.00  0.00     0.153 HD
HETATM   42  C   UNK N   1      -3.577  -7.097  -0.289  0.00  0.00     0.031 C 
ENDBRANCH   5  36
TORSDOF 6
