MODEL 1
REMARK VINA RESULT:      -5.0      0.000      0.000
REMARK  27 active torsions:
REMARK  status: ('A' for Active; 'I' for Inactive)
REMARK    1  A    between atoms: C_5  and  C_3 
REMARK    2  A    between atoms: C_6  and  C_4 
REMARK    3  A    between atoms: C_7  and  C_5 
REMARK    4  A    between atoms: C_8  and  C_6 
REMARK    5  A    between atoms: C_9  and  C_7 
REMARK    6  A    between atoms: C_10  and  C_8 
REMARK    7  A    between atoms: C_11  and  C_9 
REMARK    8  A    between atoms: C_12  and  C_10 
REMARK    9  A    between atoms: C_13  and  C_11 
REMARK   10  A    between atoms: C_14  and  C_12 
REMARK   11  A    between atoms: C_15  and  C_13 
REMARK   12  A    between atoms: C_16  and  C_14 
REMARK   13  A    between atoms: C_17  and  C_15 
REMARK   14  A    between atoms: C_18  and  C_16 
REMARK   15  A    between atoms: C_19  and  C_17 
REMARK   16  A    between atoms: C_20  and  C_18 
REMARK   17  A    between atoms: C_21  and  C_19 
REMARK   18  A    between atoms: C_22  and  C_20 
REMARK   19  A    between atoms: C_23  and  C_21 
REMARK   20  A    between atoms: C_24  and  C_22 
REMARK   21  A    between atoms: C_26  and  C_23 
REMARK   22  A    between atoms: C_28  and  C_24 
REMARK   23  A    between atoms: C_26  and  C_25 
REMARK   24  A    between atoms: C_27  and  C_25 
REMARK   25  A    between atoms: C_26  and  O_32 
REMARK   26  A    between atoms: O_30  and  C_27 
REMARK   27  A    between atoms: O_32  and  C_28 
ROOT
HETATM    1  C   UNK N   1      29.770  23.943  -4.383  0.00  0.00     0.141 C 
ENDROOT
BRANCH   1   2
HETATM    2  C   UNK N   1      30.042  23.260  -5.730  0.00  0.00     0.033 C 
BRANCH   2   3
HETATM    3  C   UNK N   1      29.506  21.832  -5.790  0.00  0.00     0.002 C 
BRANCH   3   4
HETATM    4  C   UNK N   1      30.654  20.827  -5.736  0.00  0.00     0.000 C 
BRANCH   4   5
HETATM    5  C   UNK N   1      30.568  19.810  -6.868  0.00  0.00     0.000 C 
BRANCH   5   6
HETATM    6  C   UNK N   1      29.189  19.825  -7.511  0.00  0.00     0.000 C 
BRANCH   6   7
HETATM    7  C   UNK N   1      29.305  19.874  -9.028  0.00  0.00     0.000 C 
BRANCH   7   8
HETATM    8  C   UNK N   1      29.406  21.297  -9.539  0.00  0.00     0.000 C 
BRANCH   8   9
HETATM    9  C   UNK N   1      28.143  22.054  -9.191  0.00  0.00     0.000 C 
BRANCH   9  10
HETATM   10  C   UNK N   1      26.980  21.472  -9.963  0.00  0.00     0.000 C 
BRANCH  10  11
HETATM   11  C   UNK N   1      25.700  21.722  -9.198  0.00  0.00    -0.000 C 
BRANCH  11  12
HETATM   12  C   UNK N   1      25.559  20.684  -8.106  0.00  0.00    -0.005 C 
HETATM   13  C   UNK N   1      24.526  21.147  -7.102  0.00  0.00     0.005 C 
ENDBRANCH  11  12
ENDBRANCH  10  11
ENDBRANCH   9  10
ENDBRANCH   8   9
ENDBRANCH   7   8
ENDBRANCH   6   7
ENDBRANCH   5   6
ENDBRANCH   4   5
ENDBRANCH   3   4
ENDBRANCH   2   3
ENDBRANCH   1   2
BRANCH   1  14
HETATM   14  C   UNK N   1      31.026  23.899  -3.514  0.00  0.00     0.142 C 
BRANCH  14  15
HETATM   15  C   UNK N   1      30.999  22.878  -2.411  0.00  0.00     0.141 C 
HETATM   16  O   UNK N   1      31.691  21.879  -2.504  0.00  0.00    -0.650 OA
BRANCH  15  17
HETATM   17  O   UNK N   1      30.210  23.040  -1.331  0.00  0.00    -0.776 OA
HETATM   18  H   UNK N   1      29.684  23.811  -1.235  0.00  0.00     0.167 HD
ENDBRANCH  15  17
ENDBRANCH  14  15
ENDBRANCH   1  14
BRANCH   1  19
HETATM   19  O   UNK N   1      28.738  23.344  -3.688  0.00  0.00    -0.316 OA
BRANCH  19  20
HETATM   20  C   UNK N   1      27.632  23.968  -3.215  0.00  0.00     0.259 C 
HETATM   21  O   UNK N   1      27.232  23.682  -2.098  0.00  0.00    -0.265 OA
BRANCH  20  22
HETATM   22  C   UNK N   1      26.917  25.029  -4.000  0.00  0.00     0.111 C 
BRANCH  22  23
HETATM   23  C   UNK N   1      25.853  24.368  -4.867  0.00  0.00     0.010 C 
BRANCH  23  24
HETATM   24  C   UNK N   1      26.407  23.932  -6.223  0.00  0.00     0.000 C 
BRANCH  24  25
HETATM   25  C   UNK N   1      26.377  25.017  -7.302  0.00  0.00     0.000 C 
BRANCH  25  26
HETATM   26  C   UNK N   1      27.765  25.379  -7.812  0.00  0.00     0.000 C 
BRANCH  26  27
HETATM   27  C   UNK N   1      28.139  26.763  -7.324  0.00  0.00     0.000 C 
BRANCH  27  28
HETATM   28  C   UNK N   1      26.869  27.445  -6.877  0.00  0.00     0.000 C 
BRANCH  28  29
HETATM   29  C   UNK N   1      27.118  28.371  -5.711  0.00  0.00     0.000 C 
BRANCH  29  30
HETATM   30  C   UNK N   1      25.850  28.384  -4.889  0.00  0.00     0.000 C 
BRANCH  30  31
HETATM   31  C   UNK N   1      26.165  28.509  -3.418  0.00  0.00    -0.000 C 
BRANCH  31  32
HETATM   32  C   UNK N   1      27.645  28.795  -3.275  0.00  0.00    -0.005 C 
HETATM   33  C   UNK N   1      27.891  29.581  -2.006  0.00  0.00     0.005 C 
ENDBRANCH  31  32
ENDBRANCH  30  31
ENDBRANCH  29  30
ENDBRANCH  28  29
ENDBRANCH  27  28
ENDBRANCH  26  27
ENDBRANCH  25  26
ENDBRANCH  24  25
ENDBRANCH  23  24
ENDBRANCH  22  23
ENDBRANCH  20  22
ENDBRANCH  19  20
ENDBRANCH   1  19
TORSDOF 27
ENDMDL
MODEL 2
REMARK VINA RESULT:      -4.9     12.396     15.491
REMARK  27 active torsions:
REMARK  status: ('A' for Active; 'I' for Inactive)
REMARK    1  A    between atoms: C_5  and  C_3 
REMARK    2  A    between atoms: C_6  and  C_4 
REMARK    3  A    between atoms: C_7  and  C_5 
REMARK    4  A    between atoms: C_8  and  C_6 
REMARK    5  A    between atoms: C_9  and  C_7 
REMARK    6  A    between atoms: C_10  and  C_8 
REMARK    7  A    between atoms: C_11  and  C_9 
REMARK    8  A    between atoms: C_12  and  C_10 
REMARK    9  A    between atoms: C_13  and  C_11 
REMARK   10  A    between atoms: C_14  and  C_12 
REMARK   11  A    between atoms: C_15  and  C_13 
REMARK   12  A    between atoms: C_16  and  C_14 
REMARK   13  A    between atoms: C_17  and  C_15 
REMARK   14  A    between atoms: C_18  and  C_16 
REMARK   15  A    between atoms: C_19  and  C_17 
REMARK   16  A    between atoms: C_20  and  C_18 
REMARK   17  A    between atoms: C_21  and  C_19 
REMARK   18  A    between atoms: C_22  and  C_20 
REMARK   19  A    between atoms: C_23  and  C_21 
REMARK   20  A    between atoms: C_24  and  C_22 
REMARK   21  A    between atoms: C_26  and  C_23 
REMARK   22  A    between atoms: C_28  and  C_24 
REMARK   23  A    between atoms: C_26  and  C_25 
REMARK   24  A    between atoms: C_27  and  C_25 
REMARK   25  A    between atoms: C_26  and  O_32 
REMARK   26  A    between atoms: O_30  and  C_27 
REMARK   27  A    between atoms: O_32  and  C_28 
ROOT
HETATM    1  C   UNK N   1      22.383  19.473   3.379  0.00  0.00     0.141 C 
ENDROOT
BRANCH   1   2
HETATM    2  C   UNK N   1      23.836  19.712   3.812  0.00  0.00     0.033 C 
BRANCH   2   3
HETATM    3  C   UNK N   1      24.697  20.306   2.700  0.00  0.00     0.002 C 
BRANCH   3   4
HETATM    4  C   UNK N   1      26.136  20.485   3.176  0.00  0.00     0.000 C 
BRANCH   4   5
HETATM    5  C   UNK N   1      26.260  20.292   4.683  0.00  0.00     0.000 C 
BRANCH   5   6
HETATM    6  C   UNK N   1      27.719  20.288   5.115  0.00  0.00     0.000 C 
BRANCH   6   7
HETATM    7  C   UNK N   1      28.313  18.893   4.983  0.00  0.00     0.000 C 
BRANCH   7   8
HETATM    8  C   UNK N   1      27.674  17.916   5.950  0.00  0.00     0.000 C 
BRANCH   8   9
HETATM    9  C   UNK N   1      27.208  16.687   5.199  0.00  0.00     0.000 C 
BRANCH   9  10
HETATM   10  C   UNK N   1      25.707  16.558   5.331  0.00  0.00     0.000 C 
BRANCH  10  11
HETATM   11  C   UNK N   1      25.100  16.387   3.956  0.00  0.00    -0.000 C 
BRANCH  11  12
HETATM   12  C   UNK N   1      26.180  16.554   2.909  0.00  0.00    -0.005 C 
HETATM   13  C   UNK N   1      26.017  15.490   1.846  0.00  0.00     0.005 C 
ENDBRANCH  11  12
ENDBRANCH  10  11
ENDBRANCH   9  10
ENDBRANCH   8   9
ENDBRANCH   7   8
ENDBRANCH   6   7
ENDBRANCH   5   6
ENDBRANCH   4   5
ENDBRANCH   3   4
ENDBRANCH   2   3
ENDBRANCH   1   2
BRANCH   1  14
HETATM   14  C   UNK N   1      21.918  20.607   2.467  0.00  0.00     0.142 C 
BRANCH  14  15
HETATM   15  C   UNK N   1      20.941  20.204   1.399  0.00  0.00     0.141 C 
HETATM   16  O   UNK N   1      21.084  20.629   0.266  0.00  0.00    -0.650 OA
BRANCH  15  17
HETATM   17  O   UNK N   1      19.899  19.395   1.677  0.00  0.00    -0.776 OA
HETATM   18  H   UNK N   1      20.023  18.469   1.760  0.00  0.00     0.167 HD
ENDBRANCH  15  17
ENDBRANCH  14  15
ENDBRANCH   1  14
BRANCH   1  19
HETATM   19  O   UNK N   1      21.519  19.396   4.454  0.00  0.00    -0.316 OA
BRANCH  19  20
HETATM   20  C   UNK N   1      21.485  18.403   5.376  0.00  0.00     0.259 C 
HETATM   21  O   UNK N   1      21.380  18.704   6.554  0.00  0.00    -0.265 OA
BRANCH  20  22
HETATM   22  C   UNK N   1      21.522  16.953   4.990  0.00  0.00     0.111 C 
BRANCH  22  23
HETATM   23  C   UNK N   1      22.096  16.149   6.149  0.00  0.00     0.010 C 
BRANCH  23  24
HETATM   24  C   UNK N   1      21.883  14.646   5.966  0.00  0.00     0.000 C 
BRANCH  24  25
HETATM   25  C   UNK N   1      21.084  13.975   7.085  0.00  0.00     0.000 C 
BRANCH  25  26
HETATM   26  C   UNK N   1      20.557  14.970   8.109  0.00  0.00     0.000 C 
BRANCH  26  27
HETATM   27  C   UNK N   1      21.051  14.588   9.489  0.00  0.00     0.000 C 
BRANCH  27  28
HETATM   28  C   UNK N   1      21.095  13.080   9.553  0.00  0.00     0.000 C 
BRANCH  28  29
HETATM   29  C   UNK N   1      22.175  12.597  10.491  0.00  0.00     0.000 C 
BRANCH  29  30
HETATM   30  C   UNK N   1      23.488  13.094   9.932  0.00  0.00     0.000 C 
BRANCH  30  31
HETATM   31  C   UNK N   1      24.196  12.000   9.169  0.00  0.00    -0.000 C 
BRANCH  31  32
HETATM   32  C   UNK N   1      24.448  12.494   7.761  0.00  0.00    -0.005 C 
HETATM   33  C   UNK N   1      25.085  13.865   7.809  0.00  0.00     0.005 C 
ENDBRANCH  31  32
ENDBRANCH  30  31
ENDBRANCH  29  30
ENDBRANCH  28  29
ENDBRANCH  27  28
ENDBRANCH  26  27
ENDBRANCH  25  26
ENDBRANCH  24  25
ENDBRANCH  23  24
ENDBRANCH  22  23
ENDBRANCH  20  22
ENDBRANCH  19  20
ENDBRANCH   1  19
TORSDOF 27
ENDMDL
MODEL 3
REMARK VINA RESULT:      -4.9     15.880     20.243
REMARK  27 active torsions:
REMARK  status: ('A' for Active; 'I' for Inactive)
REMARK    1  A    between atoms: C_5  and  C_3 
REMARK    2  A    between atoms: C_6  and  C_4 
REMARK    3  A    between atoms: C_7  and  C_5 
REMARK    4  A    between atoms: C_8  and  C_6 
REMARK    5  A    between atoms: C_9  and  C_7 
REMARK    6  A    between atoms: C_10  and  C_8 
REMARK    7  A    between atoms: C_11  and  C_9 
REMARK    8  A    between atoms: C_12  and  C_10 
REMARK    9  A    between atoms: C_13  and  C_11 
REMARK   10  A    between atoms: C_14  and  C_12 
REMARK   11  A    between atoms: C_15  and  C_13 
REMARK   12  A    between atoms: C_16  and  C_14 
REMARK   13  A    between atoms: C_17  and  C_15 
REMARK   14  A    between atoms: C_18  and  C_16 
REMARK   15  A    between atoms: C_19  and  C_17 
REMARK   16  A    between atoms: C_20  and  C_18 
REMARK   17  A    between atoms: C_21  and  C_19 
REMARK   18  A    between atoms: C_22  and  C_20 
REMARK   19  A    between atoms: C_23  and  C_21 
REMARK   20  A    between atoms: C_24  and  C_22 
REMARK   21  A    between atoms: C_26  and  C_23 
REMARK   22  A    between atoms: C_28  and  C_24 
REMARK   23  A    between atoms: C_26  and  C_25 
REMARK   24  A    between atoms: C_27  and  C_25 
REMARK   25  A    between atoms: C_26  and  O_32 
REMARK   26  A    between atoms: O_30  and  C_27 
REMARK   27  A    between atoms: O_32  and  C_28 
ROOT
HETATM    1  C   UNK N   1      32.928  16.547   9.082  0.00  0.00     0.141 C 
ENDROOT
BRANCH   1   2
HETATM    2  C   UNK N   1      32.151  15.495   8.280  0.00  0.00     0.033 C 
BRANCH   2   3
HETATM    3  C   UNK N   1      31.213  16.111   7.244  0.00  0.00     0.002 C 
BRANCH   3   4
HETATM    4  C   UNK N   1      31.353  15.395   5.903  0.00  0.00     0.000 C 
BRANCH   4   5
HETATM    5  C   UNK N   1      30.830  16.245   4.752  0.00  0.00     0.000 C 
BRANCH   5   6
HETATM    6  C   UNK N   1      29.355  16.568   4.939  0.00  0.00     0.000 C 
BRANCH   6   7
HETATM    7  C   UNK N   1      29.056  17.991   4.486  0.00  0.00     0.000 C 
BRANCH   7   8
HETATM    8  C   UNK N   1      28.267  18.759   5.528  0.00  0.00     0.000 C 
BRANCH   8   9
HETATM    9  C   UNK N   1      27.801  17.814   6.614  0.00  0.00     0.000 C 
BRANCH   9  10
HETATM   10  C   UNK N   1      28.153  18.392   7.966  0.00  0.00     0.000 C 
BRANCH  10  11
HETATM   11  C   UNK N   1      27.989  17.322   9.022  0.00  0.00    -0.000 C 
BRANCH  11  12
HETATM   12  C   UNK N   1      29.107  17.444  10.034  0.00  0.00    -0.005 C 
HETATM   13  C   UNK N   1      29.812  18.770   9.847  0.00  0.00     0.005 C 
ENDBRANCH  11  12
ENDBRANCH  10  11
ENDBRANCH   9  10
ENDBRANCH   8   9
ENDBRANCH   7   8
ENDBRANCH   6   7
ENDBRANCH   5   6
ENDBRANCH   4   5
ENDBRANCH   3   4
ENDBRANCH   2   3
ENDBRANCH   1   2
BRANCH   1  14
HETATM   14  C   UNK N   1      32.935  17.876   8.327  0.00  0.00     0.142 C 
BRANCH  14  15
HETATM   15  C   UNK N   1      34.265  18.268   7.745  0.00  0.00     0.141 C 
HETATM   16  O   UNK N   1      34.536  17.943   6.603  0.00  0.00    -0.650 OA
BRANCH  15  17
HETATM   17  O   UNK N   1      35.167  18.957   8.471  0.00  0.00    -0.776 OA
HETATM   18  H   UNK N   1      35.635  19.676   8.093  0.00  0.00     0.167 HD
ENDBRANCH  15  17
ENDBRANCH  14  15
ENDBRANCH   1  14
BRANCH   1  19
HETATM   19  O   UNK N   1      34.236  16.172   9.314  0.00  0.00    -0.316 OA
BRANCH  19  20
HETATM   20  C   UNK N   1      34.833  16.079  10.528  0.00  0.00     0.259 C 
HETATM   21  O   UNK N   1      35.423  17.052  10.965  0.00  0.00    -0.265 OA
BRANCH  20  22
HETATM   22  C   UNK N   1      34.747  14.836  11.366  0.00  0.00     0.111 C 
BRANCH  22  23
HETATM   23  C   UNK N   1      35.816  14.897  12.450  0.00  0.00     0.010 C 
BRANCH  23  24
HETATM   24  C   UNK N   1      35.614  13.822  13.517  0.00  0.00     0.000 C 
BRANCH  24  25
HETATM   25  C   UNK N   1      36.781  13.669  14.495  0.00  0.00     0.000 C 
BRANCH  25  26
HETATM   26  C   UNK N   1      36.398  14.018  15.927  0.00  0.00     0.000 C 
BRANCH  26  27
HETATM   27  C   UNK N   1      35.114  13.305  16.296  0.00  0.00     0.000 C 
BRANCH  27  28
HETATM   28  C   UNK N   1      35.380  12.513  17.553  0.00  0.00     0.000 C 
BRANCH  28  29
HETATM   29  C   UNK N   1      35.041  11.053  17.370  0.00  0.00     0.000 C 
BRANCH  29  30
HETATM   30  C   UNK N   1      35.766  10.592  16.127  0.00  0.00     0.000 C 
BRANCH  30  31
HETATM   31  C   UNK N   1      34.876   9.718  15.278  0.00  0.00    -0.000 C 
BRANCH  31  32
HETATM   32  C   UNK N   1      33.857  10.605  14.595  0.00  0.00    -0.005 C 
HETATM   33  C   UNK N   1      33.971  10.450  13.095  0.00  0.00     0.005 C 
ENDBRANCH  31  32
ENDBRANCH  30  31
ENDBRANCH  29  30
ENDBRANCH  28  29
ENDBRANCH  27  28
ENDBRANCH  26  27
ENDBRANCH  25  26
ENDBRANCH  24  25
ENDBRANCH  23  24
ENDBRANCH  22  23
ENDBRANCH  20  22
ENDBRANCH  19  20
ENDBRANCH   1  19
TORSDOF 27
ENDMDL
MODEL 4
REMARK VINA RESULT:      -4.8      1.571      3.454
REMARK  27 active torsions:
REMARK  status: ('A' for Active; 'I' for Inactive)
REMARK    1  A    between atoms: C_5  and  C_3 
REMARK    2  A    between atoms: C_6  and  C_4 
REMARK    3  A    between atoms: C_7  and  C_5 
REMARK    4  A    between atoms: C_8  and  C_6 
REMARK    5  A    between atoms: C_9  and  C_7 
REMARK    6  A    between atoms: C_10  and  C_8 
REMARK    7  A    between atoms: C_11  and  C_9 
REMARK    8  A    between atoms: C_12  and  C_10 
REMARK    9  A    between atoms: C_13  and  C_11 
REMARK   10  A    between atoms: C_14  and  C_12 
REMARK   11  A    between atoms: C_15  and  C_13 
REMARK   12  A    between atoms: C_16  and  C_14 
REMARK   13  A    between atoms: C_17  and  C_15 
REMARK   14  A    between atoms: C_18  and  C_16 
REMARK   15  A    between atoms: C_19  and  C_17 
REMARK   16  A    between atoms: C_20  and  C_18 
REMARK   17  A    between atoms: C_21  and  C_19 
REMARK   18  A    between atoms: C_22  and  C_20 
REMARK   19  A    between atoms: C_23  and  C_21 
REMARK   20  A    between atoms: C_24  and  C_22 
REMARK   21  A    between atoms: C_26  and  C_23 
REMARK   22  A    between atoms: C_28  and  C_24 
REMARK   23  A    between atoms: C_26  and  C_25 
REMARK   24  A    between atoms: C_27  and  C_25 
REMARK   25  A    between atoms: C_26  and  O_32 
REMARK   26  A    between atoms: O_30  and  C_27 
REMARK   27  A    between atoms: O_32  and  C_28 
ROOT
HETATM    1  C   UNK N   1      31.761  21.977  -4.674  0.00  0.00     0.141 C 
ENDROOT
BRANCH   1   2
HETATM    2  C   UNK N   1      31.236  21.951  -6.115  0.00  0.00     0.033 C 
BRANCH   2   3
HETATM    3  C   UNK N   1      29.816  21.400  -6.219  0.00  0.00     0.002 C 
BRANCH   3   4
HETATM    4  C   UNK N   1      29.796  20.132  -7.069  0.00  0.00     0.000 C 
BRANCH   4   5
HETATM    5  C   UNK N   1      28.583  20.090  -7.992  0.00  0.00     0.000 C 
BRANCH   5   6
HETATM    6  C   UNK N   1      28.555  21.304  -8.910  0.00  0.00     0.000 C 
BRANCH   6   7
HETATM    7  C   UNK N   1      27.180  21.956  -8.892  0.00  0.00     0.000 C 
BRANCH   7   8
HETATM    8  C   UNK N   1      26.371  21.532  -7.682  0.00  0.00     0.000 C 
BRANCH   8   9
HETATM    9  C   UNK N   1      25.948  22.756  -6.898  0.00  0.00     0.000 C 
BRANCH   9  10
HETATM   10  C   UNK N   1      25.667  23.892  -7.856  0.00  0.00     0.000 C 
BRANCH  10  11
HETATM   11  C   UNK N   1      26.209  25.179  -7.274  0.00  0.00    -0.000 C 
BRANCH  11  12
HETATM   12  C   UNK N   1      25.966  26.309  -8.250  0.00  0.00    -0.005 C 
HETATM   13  C   UNK N   1      25.992  25.767  -9.663  0.00  0.00     0.005 C 
ENDBRANCH  11  12
ENDBRANCH  10  11
ENDBRANCH   9  10
ENDBRANCH   8   9
ENDBRANCH   7   8
ENDBRANCH   6   7
ENDBRANCH   5   6
ENDBRANCH   4   5
ENDBRANCH   3   4
ENDBRANCH   2   3
ENDBRANCH   1   2
BRANCH   1  14
HETATM   14  C   UNK N   1      32.543  20.697  -4.381  0.00  0.00     0.142 C 
BRANCH  14  15
HETATM   15  C   UNK N   1      33.483  20.780  -3.212  0.00  0.00     0.141 C 
HETATM   16  O   UNK N   1      34.669  20.560  -3.382  0.00  0.00    -0.650 OA
BRANCH  15  17
HETATM   17  O   UNK N   1      33.033  21.075  -1.976  0.00  0.00    -0.776 OA
HETATM   18  H   UNK N   1      33.049  20.430  -1.296  0.00  0.00     0.167 HD
ENDBRANCH  15  17
ENDBRANCH  14  15
ENDBRANCH   1  14
BRANCH   1  19
HETATM   19  O   UNK N   1      30.745  22.088  -3.745  0.00  0.00    -0.316 OA
BRANCH  19  20
HETATM   20  C   UNK N   1      30.547  23.134  -2.905  0.00  0.00     0.259 C 
HETATM   21  O   UNK N   1      30.695  22.958  -1.708  0.00  0.00    -0.265 OA
BRANCH  20  22
HETATM   22  C   UNK N   1      30.200  24.505  -3.408  0.00  0.00     0.111 C 
BRANCH  22  23
HETATM   23  C   UNK N   1      28.963  24.409  -4.292  0.00  0.00     0.010 C 
BRANCH  23  24
HETATM   24  C   UNK N   1      27.709  24.065  -3.488  0.00  0.00     0.000 C 
BRANCH  24  25
HETATM   25  C   UNK N   1      26.549  25.048  -3.668  0.00  0.00     0.000 C 
BRANCH  25  26
HETATM   26  C   UNK N   1      27.002  26.501  -3.656  0.00  0.00     0.000 C 
BRANCH  26  27
HETATM   27  C   UNK N   1      25.821  27.398  -3.348  0.00  0.00     0.000 C 
BRANCH  27  28
HETATM   28  C   UNK N   1      26.058  28.715  -4.047  0.00  0.00     0.000 C 
BRANCH  28  29
HETATM   29  C   UNK N   1      26.699  28.518  -5.399  0.00  0.00     0.000 C 
BRANCH  29  30
HETATM   30  C   UNK N   1      27.667  29.662  -5.591  0.00  0.00     0.000 C 
BRANCH  30  31
HETATM   31  C   UNK N   1      28.752  29.289  -6.573  0.00  0.00    -0.000 C 
BRANCH  31  32
HETATM   32  C   UNK N   1      28.855  27.780  -6.611  0.00  0.00    -0.005 C 
HETATM   33  C   UNK N   1      30.249  27.355  -6.204  0.00  0.00     0.005 C 
ENDBRANCH  31  32
ENDBRANCH  30  31
ENDBRANCH  29  30
ENDBRANCH  28  29
ENDBRANCH  27  28
ENDBRANCH  26  27
ENDBRANCH  25  26
ENDBRANCH  24  25
ENDBRANCH  23  24
ENDBRANCH  22  23
ENDBRANCH  20  22
ENDBRANCH  19  20
ENDBRANCH   1  19
TORSDOF 27
ENDMDL
MODEL 5
REMARK VINA RESULT:      -4.6      1.863      3.578
REMARK  27 active torsions:
REMARK  status: ('A' for Active; 'I' for Inactive)
REMARK    1  A    between atoms: C_5  and  C_3 
REMARK    2  A    between atoms: C_6  and  C_4 
REMARK    3  A    between atoms: C_7  and  C_5 
REMARK    4  A    between atoms: C_8  and  C_6 
REMARK    5  A    between atoms: C_9  and  C_7 
REMARK    6  A    between atoms: C_10  and  C_8 
REMARK    7  A    between atoms: C_11  and  C_9 
REMARK    8  A    between atoms: C_12  and  C_10 
REMARK    9  A    between atoms: C_13  and  C_11 
REMARK   10  A    between atoms: C_14  and  C_12 
REMARK   11  A    between atoms: C_15  and  C_13 
REMARK   12  A    between atoms: C_16  and  C_14 
REMARK   13  A    between atoms: C_17  and  C_15 
REMARK   14  A    between atoms: C_18  and  C_16 
REMARK   15  A    between atoms: C_19  and  C_17 
REMARK   16  A    between atoms: C_20  and  C_18 
REMARK   17  A    between atoms: C_21  and  C_19 
REMARK   18  A    between atoms: C_22  and  C_20 
REMARK   19  A    between atoms: C_23  and  C_21 
REMARK   20  A    between atoms: C_24  and  C_22 
REMARK   21  A    between atoms: C_26  and  C_23 
REMARK   22  A    between atoms: C_28  and  C_24 
REMARK   23  A    between atoms: C_26  and  C_25 
REMARK   24  A    between atoms: C_27  and  C_25 
REMARK   25  A    between atoms: C_26  and  O_32 
REMARK   26  A    between atoms: O_30  and  C_27 
REMARK   27  A    between atoms: O_32  and  C_28 
ROOT
HETATM    1  C   UNK N   1      31.947  22.903  -3.775  0.00  0.00     0.141 C 
ENDROOT
BRANCH   1   2
HETATM    2  C   UNK N   1      32.306  23.995  -4.792  0.00  0.00     0.033 C 
BRANCH   2   3
HETATM    3  C   UNK N   1      31.134  24.379  -5.691  0.00  0.00     0.002 C 
BRANCH   3   4
HETATM    4  C   UNK N   1      31.586  24.478  -7.146  0.00  0.00     0.000 C 
BRANCH   4   5
HETATM    5  C   UNK N   1      30.513  25.107  -8.028  0.00  0.00     0.000 C 
BRANCH   5   6
HETATM    6  C   UNK N   1      29.182  25.186  -7.295  0.00  0.00     0.000 C 
BRANCH   6   7
HETATM    7  C   UNK N   1      28.081  24.522  -8.111  0.00  0.00     0.000 C 
BRANCH   7   8
HETATM    8  C   UNK N   1      28.308  23.030  -8.253  0.00  0.00     0.000 C 
BRANCH   8   9
HETATM    9  C   UNK N   1      27.996  22.341  -6.943  0.00  0.00     0.000 C 
BRANCH   9  10
HETATM   10  C   UNK N   1      29.189  21.516  -6.514  0.00  0.00     0.000 C 
BRANCH  10  11
HETATM   11  C   UNK N   1      29.356  20.352  -7.465  0.00  0.00    -0.000 C 
BRANCH  11  12
HETATM   12  C   UNK N   1      30.790  19.874  -7.422  0.00  0.00    -0.005 C 
HETATM   13  C   UNK N   1      31.694  20.946  -7.993  0.00  0.00     0.005 C 
ENDBRANCH  11  12
ENDBRANCH  10  11
ENDBRANCH   9  10
ENDBRANCH   8   9
ENDBRANCH   7   8
ENDBRANCH   6   7
ENDBRANCH   5   6
ENDBRANCH   4   5
ENDBRANCH   3   4
ENDBRANCH   2   3
ENDBRANCH   1   2
BRANCH   1  14
HETATM   14  C   UNK N   1      32.517  21.560  -4.229  0.00  0.00     0.142 C 
BRANCH  14  15
HETATM   15  C   UNK N   1      33.292  20.813  -3.180  0.00  0.00     0.141 C 
HETATM   16  O   UNK N   1      34.198  20.073  -3.521  0.00  0.00    -0.650 OA
BRANCH  15  17
HETATM   17  O   UNK N   1      32.989  20.932  -1.872  0.00  0.00    -0.776 OA
HETATM   18  H   UNK N   1      33.622  20.717  -1.214  0.00  0.00     0.167 HD
ENDBRANCH  15  17
ENDBRANCH  14  15
ENDBRANCH   1  14
BRANCH   1  19
HETATM   19  O   UNK N   1      30.582  22.764  -3.614  0.00  0.00    -0.316 OA
BRANCH  19  20
HETATM   20  C   UNK N   1      29.885  23.028  -2.482  0.00  0.00     0.259 C 
HETATM   21  O   UNK N   1      30.475  23.012  -1.415  0.00  0.00    -0.265 OA
BRANCH  20  22
HETATM   22  C   UNK N   1      28.427  23.386  -2.507  0.00  0.00     0.111 C 
BRANCH  22  23
HETATM   23  C   UNK N   1      28.136  24.181  -3.774  0.00  0.00     0.010 C 
BRANCH  23  24
HETATM   24  C   UNK N   1      26.643  24.220  -4.097  0.00  0.00     0.000 C 
BRANCH  24  25
HETATM   25  C   UNK N   1      26.022  25.619  -4.073  0.00  0.00     0.000 C 
BRANCH  25  26
HETATM   26  C   UNK N   1      25.523  26.064  -5.441  0.00  0.00     0.000 C 
BRANCH  26  27
HETATM   27  C   UNK N   1      25.255  27.554  -5.422  0.00  0.00     0.000 C 
BRANCH  27  28
HETATM   28  C   UNK N   1      25.491  28.040  -4.012  0.00  0.00     0.000 C 
BRANCH  28  29
HETATM   29  C   UNK N   1      26.279  29.327  -3.995  0.00  0.00     0.000 C 
BRANCH  29  30
HETATM   30  C   UNK N   1      27.618  29.024  -4.627  0.00  0.00     0.000 C 
BRANCH  30  31
HETATM   31  C   UNK N   1      28.554  28.391  -3.625  0.00  0.00    -0.000 C 
BRANCH  31  32
HETATM   32  C   UNK N   1      29.561  27.555  -4.386  0.00  0.00    -0.005 C 
HETATM   33  C   UNK N   1      30.620  27.043  -3.434  0.00  0.00     0.005 C 
ENDBRANCH  31  32
ENDBRANCH  30  31
ENDBRANCH  29  30
ENDBRANCH  28  29
ENDBRANCH  27  28
ENDBRANCH  26  27
ENDBRANCH  25  26
ENDBRANCH  24  25
ENDBRANCH  23  24
ENDBRANCH  22  23
ENDBRANCH  20  22
ENDBRANCH  19  20
ENDBRANCH   1  19
TORSDOF 27
ENDMDL
MODEL 6
REMARK VINA RESULT:      -4.6     12.405     15.745
REMARK  27 active torsions:
REMARK  status: ('A' for Active; 'I' for Inactive)
REMARK    1  A    between atoms: C_5  and  C_3 
REMARK    2  A    between atoms: C_6  and  C_4 
REMARK    3  A    between atoms: C_7  and  C_5 
REMARK    4  A    between atoms: C_8  and  C_6 
REMARK    5  A    between atoms: C_9  and  C_7 
REMARK    6  A    between atoms: C_10  and  C_8 
REMARK    7  A    between atoms: C_11  and  C_9 
REMARK    8  A    between atoms: C_12  and  C_10 
REMARK    9  A    between atoms: C_13  and  C_11 
REMARK   10  A    between atoms: C_14  and  C_12 
REMARK   11  A    between atoms: C_15  and  C_13 
REMARK   12  A    between atoms: C_16  and  C_14 
REMARK   13  A    between atoms: C_17  and  C_15 
REMARK   14  A    between atoms: C_18  and  C_16 
REMARK   15  A    between atoms: C_19  and  C_17 
REMARK   16  A    between atoms: C_20  and  C_18 
REMARK   17  A    between atoms: C_21  and  C_19 
REMARK   18  A    between atoms: C_22  and  C_20 
REMARK   19  A    between atoms: C_23  and  C_21 
REMARK   20  A    between atoms: C_24  and  C_22 
REMARK   21  A    between atoms: C_26  and  C_23 
REMARK   22  A    between atoms: C_28  and  C_24 
REMARK   23  A    between atoms: C_26  and  C_25 
REMARK   24  A    between atoms: C_27  and  C_25 
REMARK   25  A    between atoms: C_26  and  O_32 
REMARK   26  A    between atoms: O_30  and  C_27 
REMARK   27  A    between atoms: O_32  and  C_28 
ROOT
HETATM    1  C   UNK N   1      35.754  14.555   9.415  0.00  0.00     0.141 C 
ENDROOT
BRANCH   1   2
HETATM    2  C   UNK N   1      35.162  13.357   8.659  0.00  0.00     0.033 C 
BRANCH   2   3
HETATM    3  C   UNK N   1      34.087  13.762   7.653  0.00  0.00     0.002 C 
BRANCH   3   4
HETATM    4  C   UNK N   1      34.583  13.548   6.226  0.00  0.00     0.000 C 
BRANCH   4   5
HETATM    5  C   UNK N   1      34.692  14.863   5.463  0.00  0.00     0.000 C 
BRANCH   5   6
HETATM    6  C   UNK N   1      33.315  15.453   5.194  0.00  0.00     0.000 C 
BRANCH   6   7
HETATM    7  C   UNK N   1      33.438  16.848   4.598  0.00  0.00     0.000 C 
BRANCH   7   8
HETATM    8  C   UNK N   1      32.103  17.566   4.567  0.00  0.00     0.000 C 
BRANCH   8   9
HETATM    9  C   UNK N   1      31.093  16.731   3.808  0.00  0.00     0.000 C 
BRANCH   9  10
HETATM   10  C   UNK N   1      29.724  16.925   4.419  0.00  0.00     0.000 C 
BRANCH  10  11
HETATM   11  C   UNK N   1      29.217  15.597   4.936  0.00  0.00    -0.000 C 
BRANCH  11  12
HETATM   12  C   UNK N   1      27.706  15.578   4.868  0.00  0.00    -0.005 C 
HETATM   13  C   UNK N   1      27.240  16.522   3.781  0.00  0.00     0.005 C 
ENDBRANCH  11  12
ENDBRANCH  10  11
ENDBRANCH   9  10
ENDBRANCH   8   9
ENDBRANCH   7   8
ENDBRANCH   6   7
ENDBRANCH   5   6
ENDBRANCH   4   5
ENDBRANCH   3   4
ENDBRANCH   2   3
ENDBRANCH   1   2
BRANCH   1  14
HETATM   14  C   UNK N   1      36.339  14.092  10.748  0.00  0.00     0.142 C 
BRANCH  14  15
HETATM   15  C   UNK N   1      35.522  14.447  11.958  0.00  0.00     0.141 C 
HETATM   16  O   UNK N   1      36.054  15.027  12.889  0.00  0.00    -0.650 OA
BRANCH  15  17
HETATM   17  O   UNK N   1      34.217  14.119  12.039  0.00  0.00    -0.776 OA
HETATM   18  H   UNK N   1      33.626  14.339  11.345  0.00  0.00     0.167 HD
ENDBRANCH  15  17
ENDBRANCH  14  15
ENDBRANCH   1  14
BRANCH   1  19
HETATM   19  O   UNK N   1      34.813  15.533   9.670  0.00  0.00    -0.316 OA
BRANCH  19  20
HETATM   20  C   UNK N   1      34.946  16.854   9.395  0.00  0.00     0.259 C 
HETATM   21  O   UNK N   1      35.520  17.563  10.204  0.00  0.00    -0.265 OA
BRANCH  20  22
HETATM   22  C   UNK N   1      34.453  17.456   8.112  0.00  0.00     0.111 C 
BRANCH  22  23
HETATM   23  C   UNK N   1      33.012  17.911   8.301  0.00  0.00     0.010 C 
BRANCH  23  24
HETATM   24  C   UNK N   1      32.039  16.733   8.345  0.00  0.00     0.000 C 
BRANCH  24  25
HETATM   25  C   UNK N   1      30.569  17.113   8.155  0.00  0.00     0.000 C 
BRANCH  25  26
HETATM   26  C   UNK N   1      30.216  18.441   8.809  0.00  0.00     0.000 C 
BRANCH  26  27
HETATM   27  C   UNK N   1      28.712  18.554   8.947  0.00  0.00     0.000 C 
BRANCH  27  28
HETATM   28  C   UNK N   1      28.098  17.998   7.685  0.00  0.00     0.000 C 
BRANCH  28  29
HETATM   29  C   UNK N   1      28.201  18.977   6.541  0.00  0.00     0.000 C 
BRANCH  29  30
HETATM   30  C   UNK N   1      27.411  20.201   6.946  0.00  0.00     0.000 C 
BRANCH  30  31
HETATM   31  C   UNK N   1      26.972  20.984   5.733  0.00  0.00    -0.000 C 
BRANCH  31  32
HETATM   32  C   UNK N   1      27.338  20.186   4.499  0.00  0.00    -0.005 C 
HETATM   33  C   UNK N   1      26.278  20.375   3.437  0.00  0.00     0.005 C 
ENDBRANCH  31  32
ENDBRANCH  30  31
ENDBRANCH  29  30
ENDBRANCH  28  29
ENDBRANCH  27  28
ENDBRANCH  26  27
ENDBRANCH  25  26
ENDBRANCH  24  25
ENDBRANCH  23  24
ENDBRANCH  22  23
ENDBRANCH  20  22
ENDBRANCH  19  20
ENDBRANCH   1  19
TORSDOF 27
ENDMDL
MODEL 7
REMARK VINA RESULT:      -4.6     10.991     13.953
REMARK  27 active torsions:
REMARK  status: ('A' for Active; 'I' for Inactive)
REMARK    1  A    between atoms: C_5  and  C_3 
REMARK    2  A    between atoms: C_6  and  C_4 
REMARK    3  A    between atoms: C_7  and  C_5 
REMARK    4  A    between atoms: C_8  and  C_6 
REMARK    5  A    between atoms: C_9  and  C_7 
REMARK    6  A    between atoms: C_10  and  C_8 
REMARK    7  A    between atoms: C_11  and  C_9 
REMARK    8  A    between atoms: C_12  and  C_10 
REMARK    9  A    between atoms: C_13  and  C_11 
REMARK   10  A    between atoms: C_14  and  C_12 
REMARK   11  A    between atoms: C_15  and  C_13 
REMARK   12  A    between atoms: C_16  and  C_14 
REMARK   13  A    between atoms: C_17  and  C_15 
REMARK   14  A    between atoms: C_18  and  C_16 
REMARK   15  A    between atoms: C_19  and  C_17 
REMARK   16  A    between atoms: C_20  and  C_18 
REMARK   17  A    between atoms: C_21  and  C_19 
REMARK   18  A    between atoms: C_22  and  C_20 
REMARK   19  A    between atoms: C_23  and  C_21 
REMARK   20  A    between atoms: C_24  and  C_22 
REMARK   21  A    between atoms: C_26  and  C_23 
REMARK   22  A    between atoms: C_28  and  C_24 
REMARK   23  A    between atoms: C_26  and  C_25 
REMARK   24  A    between atoms: C_27  and  C_25 
REMARK   25  A    between atoms: C_26  and  O_32 
REMARK   26  A    between atoms: O_30  and  C_27 
REMARK   27  A    between atoms: O_32  and  C_28 
ROOT
HETATM    1  C   UNK N   1      21.712  18.947   4.250  0.00  0.00     0.141 C 
ENDROOT
BRANCH   1   2
HETATM    2  C   UNK N   1      21.970  18.329   5.630  0.00  0.00     0.033 C 
BRANCH   2   3
HETATM    3  C   UNK N   1      21.830  16.808   5.636  0.00  0.00     0.002 C 
BRANCH   3   4
HETATM    4  C   UNK N   1      23.169  16.150   5.958  0.00  0.00     0.000 C 
BRANCH   4   5
HETATM    5  C   UNK N   1      23.353  14.844   5.192  0.00  0.00     0.000 C 
BRANCH   5   6
HETATM    6  C   UNK N   1      22.799  14.957   3.779  0.00  0.00     0.000 C 
BRANCH   6   7
HETATM    7  C   UNK N   1      23.817  15.612   2.856  0.00  0.00     0.000 C 
BRANCH   7   8
HETATM    8  C   UNK N   1      24.827  14.610   2.333  0.00  0.00     0.000 C 
BRANCH   8   9
HETATM    9  C   UNK N   1      26.226  15.164   2.500  0.00  0.00     0.000 C 
BRANCH   9  10
HETATM   10  C   UNK N   1      26.148  16.554   3.090  0.00  0.00     0.000 C 
BRANCH  10  11
HETATM   11  C   UNK N   1      27.213  16.704   4.153  0.00  0.00    -0.000 C 
BRANCH  11  12
HETATM   12  C   UNK N   1      27.297  15.426   4.959  0.00  0.00    -0.005 C 
HETATM   13  C   UNK N   1      26.772  15.677   6.355  0.00  0.00     0.005 C 
ENDBRANCH  11  12
ENDBRANCH  10  11
ENDBRANCH   9  10
ENDBRANCH   8   9
ENDBRANCH   7   8
ENDBRANCH   6   7
ENDBRANCH   5   6
ENDBRANCH   4   5
ENDBRANCH   3   4
ENDBRANCH   2   3
ENDBRANCH   1   2
BRANCH   1  14
HETATM   14  C   UNK N   1      20.659  18.130   3.502  0.00  0.00     0.142 C 
BRANCH  14  15
HETATM   15  C   UNK N   1      19.695  18.938   2.679  0.00  0.00     0.141 C 
HETATM   16  O   UNK N   1      20.050  20.013   2.229  0.00  0.00    -0.650 OA
BRANCH  15  17
HETATM   17  O   UNK N   1      18.441  18.501   2.446  0.00  0.00    -0.776 OA
HETATM   18  H   UNK N   1      17.801  18.501   3.131  0.00  0.00     0.167 HD
ENDBRANCH  15  17
ENDBRANCH  14  15
ENDBRANCH   1  14
BRANCH   1  19
HETATM   19  O   UNK N   1      22.854  18.997   3.474  0.00  0.00    -0.316 OA
BRANCH  19  20
HETATM   20  C   UNK N   1      23.579  20.109   3.199  0.00  0.00     0.259 C 
HETATM   21  O   UNK N   1      22.986  21.144   2.941  0.00  0.00    -0.265 OA
BRANCH  20  22
HETATM   22  C   UNK N   1      25.079  20.117   3.251  0.00  0.00     0.111 C 
BRANCH  22  23
HETATM   23  C   UNK N   1      25.524  19.982   4.702  0.00  0.00     0.010 C 
BRANCH  23  24
HETATM   24  C   UNK N   1      26.945  20.502   4.917  0.00  0.00     0.000 C 
BRANCH  24  25
HETATM   25  C   UNK N   1      27.448  20.400   6.359  0.00  0.00     0.000 C 
BRANCH  25  26
HETATM   26  C   UNK N   1      28.102  19.059   6.660  0.00  0.00     0.000 C 
BRANCH  26  27
HETATM   27  C   UNK N   1      28.274  18.903   8.156  0.00  0.00     0.000 C 
BRANCH  27  28
HETATM   28  C   UNK N   1      29.668  18.378   8.400  0.00  0.00     0.000 C 
BRANCH  28  29
HETATM   29  C   UNK N   1      29.867  17.022   7.769  0.00  0.00     0.000 C 
BRANCH  29  30
HETATM   30  C   UNK N   1      31.096  17.127   6.895  0.00  0.00     0.000 C 
BRANCH  30  31
HETATM   31  C   UNK N   1      30.837  16.538   5.529  0.00  0.00    -0.000 C 
BRANCH  31  32
HETATM   32  C   UNK N   1      31.354  17.510   4.491  0.00  0.00    -0.005 C 
HETATM   33  C   UNK N   1      32.862  17.589   4.574  0.00  0.00     0.005 C 
ENDBRANCH  31  32
ENDBRANCH  30  31
ENDBRANCH  29  30
ENDBRANCH  28  29
ENDBRANCH  27  28
ENDBRANCH  26  27
ENDBRANCH  25  26
ENDBRANCH  24  25
ENDBRANCH  23  24
ENDBRANCH  22  23
ENDBRANCH  20  22
ENDBRANCH  19  20
ENDBRANCH   1  19
TORSDOF 27
ENDMDL
MODEL 8
REMARK VINA RESULT:      -4.5     13.962     16.386
REMARK  27 active torsions:
REMARK  status: ('A' for Active; 'I' for Inactive)
REMARK    1  A    between atoms: C_5  and  C_3 
REMARK    2  A    between atoms: C_6  and  C_4 
REMARK    3  A    between atoms: C_7  and  C_5 
REMARK    4  A    between atoms: C_8  and  C_6 
REMARK    5  A    between atoms: C_9  and  C_7 
REMARK    6  A    between atoms: C_10  and  C_8 
REMARK    7  A    between atoms: C_11  and  C_9 
REMARK    8  A    between atoms: C_12  and  C_10 
REMARK    9  A    between atoms: C_13  and  C_11 
REMARK   10  A    between atoms: C_14  and  C_12 
REMARK   11  A    between atoms: C_15  and  C_13 
REMARK   12  A    between atoms: C_16  and  C_14 
REMARK   13  A    between atoms: C_17  and  C_15 
REMARK   14  A    between atoms: C_18  and  C_16 
REMARK   15  A    between atoms: C_19  and  C_17 
REMARK   16  A    between atoms: C_20  and  C_18 
REMARK   17  A    between atoms: C_21  and  C_19 
REMARK   18  A    between atoms: C_22  and  C_20 
REMARK   19  A    between atoms: C_23  and  C_21 
REMARK   20  A    between atoms: C_24  and  C_22 
REMARK   21  A    between atoms: C_26  and  C_23 
REMARK   22  A    between atoms: C_28  and  C_24 
REMARK   23  A    between atoms: C_26  and  C_25 
REMARK   24  A    between atoms: C_27  and  C_25 
REMARK   25  A    between atoms: C_26  and  O_32 
REMARK   26  A    between atoms: O_30  and  C_27 
REMARK   27  A    between atoms: O_32  and  C_28 
ROOT
HETATM    1  C   UNK N   1      20.127  16.090   7.489  0.00  0.00     0.141 C 
ENDROOT
BRANCH   1   2
HETATM    2  C   UNK N   1      20.954  14.854   7.866  0.00  0.00     0.033 C 
BRANCH   2   3
HETATM    3  C   UNK N   1      20.933  14.559   9.364  0.00  0.00     0.002 C 
BRANCH   3   4
HETATM    4  C   UNK N   1      20.947  13.052   9.611  0.00  0.00     0.000 C 
BRANCH   4   5
HETATM    5  C   UNK N   1      21.808  12.686  10.815  0.00  0.00     0.000 C 
BRANCH   5   6
HETATM    6  C   UNK N   1      22.900  11.700  10.425  0.00  0.00     0.000 C 
BRANCH   6   7
HETATM    7  C   UNK N   1      23.959  12.384   9.572  0.00  0.00     0.000 C 
BRANCH   7   8
HETATM    8  C   UNK N   1      24.166  11.670   8.251  0.00  0.00     0.000 C 
BRANCH   8   9
HETATM    9  C   UNK N   1      23.739  12.571   7.112  0.00  0.00     0.000 C 
BRANCH   9  10
HETATM   10  C   UNK N   1      24.933  13.363   6.627  0.00  0.00     0.000 C 
BRANCH  10  11
HETATM   11  C   UNK N   1      24.765  14.812   7.026  0.00  0.00    -0.000 C 
BRANCH  11  12
HETATM   12  C   UNK N   1      25.996  15.589   6.615  0.00  0.00    -0.005 C 
HETATM   13  C   UNK N   1      26.329  15.276   5.172  0.00  0.00     0.005 C 
ENDBRANCH  11  12
ENDBRANCH  10  11
ENDBRANCH   9  10
ENDBRANCH   8   9
ENDBRANCH   7   8
ENDBRANCH   6   7
ENDBRANCH   5   6
ENDBRANCH   4   5
ENDBRANCH   3   4
ENDBRANCH   2   3
ENDBRANCH   1   2
BRANCH   1  14
HETATM   14  C   UNK N   1      19.701  16.836   8.753  0.00  0.00     0.142 C 
BRANCH  14  15
HETATM   15  C   UNK N   1      20.054  18.297   8.778  0.00  0.00     0.141 C 
HETATM   16  O   UNK N   1      19.868  18.939   9.797  0.00  0.00    -0.650 OA
BRANCH  15  17
HETATM   17  O   UNK N   1      20.556  18.911   7.688  0.00  0.00    -0.776 OA
HETATM   18  H   UNK N   1      20.576  19.847   7.636  0.00  0.00     0.167 HD
ENDBRANCH  15  17
ENDBRANCH  14  15
ENDBRANCH   1  14
BRANCH   1  19
HETATM   19  O   UNK N   1      18.992  15.766   6.772  0.00  0.00    -0.316 OA
BRANCH  19  20
HETATM   20  C   UNK N   1      18.921  15.599   5.429  0.00  0.00     0.259 C 
HETATM   21  O   UNK N   1      18.304  14.643   4.990  0.00  0.00    -0.265 OA
BRANCH  20  22
HETATM   22  C   UNK N   1      19.535  16.578   4.470  0.00  0.00     0.111 C 
BRANCH  22  23
HETATM   23  C   UNK N   1      20.560  15.850   3.610  0.00  0.00     0.010 C 
BRANCH  23  24
HETATM   24  C   UNK N   1      21.860  15.583   4.369  0.00  0.00     0.000 C 
BRANCH  24  25
HETATM   25  C   UNK N   1      22.543  16.837   4.921  0.00  0.00     0.000 C 
BRANCH  25  26
HETATM   26  C   UNK N   1      23.587  17.404   3.970  0.00  0.00     0.000 C 
BRANCH  26  27
HETATM   27  C   UNK N   1      24.172  18.672   4.558  0.00  0.00     0.000 C 
BRANCH  27  28
HETATM   28  C   UNK N   1      25.148  19.230   3.550  0.00  0.00     0.000 C 
BRANCH  28  29
HETATM   29  C   UNK N   1      26.571  18.867   3.898  0.00  0.00     0.000 C 
BRANCH  29  30
HETATM   30  C   UNK N   1      26.812  19.357   5.307  0.00  0.00     0.000 C 
BRANCH  30  31
HETATM   31  C   UNK N   1      27.853  20.450   5.326  0.00  0.00    -0.000 C 
BRANCH  31  32
HETATM   32  C   UNK N   1      27.277  21.637   6.068  0.00  0.00    -0.005 C 
HETATM   33  C   UNK N   1      26.321  21.155   7.137  0.00  0.00     0.005 C 
ENDBRANCH  31  32
ENDBRANCH  30  31
ENDBRANCH  29  30
ENDBRANCH  28  29
ENDBRANCH  27  28
ENDBRANCH  26  27
ENDBRANCH  25  26
ENDBRANCH  24  25
ENDBRANCH  23  24
ENDBRANCH  22  23
ENDBRANCH  20  22
ENDBRANCH  19  20
ENDBRANCH   1  19
TORSDOF 27
ENDMDL
MODEL 9
REMARK VINA RESULT:      -4.5      3.048      5.629
REMARK  27 active torsions:
REMARK  status: ('A' for Active; 'I' for Inactive)
REMARK    1  A    between atoms: C_5  and  C_3 
REMARK    2  A    between atoms: C_6  and  C_4 
REMARK    3  A    between atoms: C_7  and  C_5 
REMARK    4  A    between atoms: C_8  and  C_6 
REMARK    5  A    between atoms: C_9  and  C_7 
REMARK    6  A    between atoms: C_10  and  C_8 
REMARK    7  A    between atoms: C_11  and  C_9 
REMARK    8  A    between atoms: C_12  and  C_10 
REMARK    9  A    between atoms: C_13  and  C_11 
REMARK   10  A    between atoms: C_14  and  C_12 
REMARK   11  A    between atoms: C_15  and  C_13 
REMARK   12  A    between atoms: C_16  and  C_14 
REMARK   13  A    between atoms: C_17  and  C_15 
REMARK   14  A    between atoms: C_18  and  C_16 
REMARK   15  A    between atoms: C_19  and  C_17 
REMARK   16  A    between atoms: C_20  and  C_18 
REMARK   17  A    between atoms: C_21  and  C_19 
REMARK   18  A    between atoms: C_22  and  C_20 
REMARK   19  A    between atoms: C_23  and  C_21 
REMARK   20  A    between atoms: C_24  and  C_22 
REMARK   21  A    between atoms: C_26  and  C_23 
REMARK   22  A    between atoms: C_28  and  C_24 
REMARK   23  A    between atoms: C_26  and  C_25 
REMARK   24  A    between atoms: C_27  and  C_25 
REMARK   25  A    between atoms: C_26  and  O_32 
REMARK   26  A    between atoms: O_30  and  C_27 
REMARK   27  A    between atoms: O_32  and  C_28 
ROOT
HETATM    1  C   UNK N   1      26.364  23.583  -7.169  0.00  0.00     0.141 C 
ENDROOT
BRANCH   1   2
HETATM    2  C   UNK N   1      27.811  23.361  -6.707  0.00  0.00     0.033 C 
BRANCH   2   3
HETATM    3  C   UNK N   1      28.048  23.804  -5.265  0.00  0.00     0.002 C 
BRANCH   3   4
HETATM    4  C   UNK N   1      29.359  24.578  -5.153  0.00  0.00     0.000 C 
BRANCH   4   5
HETATM    5  C   UNK N   1      29.674  24.947  -3.708  0.00  0.00     0.000 C 
BRANCH   5   6
HETATM    6  C   UNK N   1      31.114  24.599  -3.357  0.00  0.00     0.000 C 
BRANCH   6   7
HETATM    7  C   UNK N   1      31.542  23.320  -4.064  0.00  0.00     0.000 C 
BRANCH   7   8
HETATM    8  C   UNK N   1      31.577  22.138  -3.116  0.00  0.00     0.000 C 
BRANCH   8   9
HETATM    9  C   UNK N   1      30.568  21.100  -3.559  0.00  0.00     0.000 C 
BRANCH   9  10
HETATM   10  C   UNK N   1      30.431  21.145  -5.064  0.00  0.00     0.000 C 
BRANCH  10  11
HETATM   11  C   UNK N   1      31.300  20.069  -5.675  0.00  0.00    -0.000 C 
BRANCH  11  12
HETATM   12  C   UNK N   1      32.221  20.694  -6.700  0.00  0.00    -0.005 C 
HETATM   13  C   UNK N   1      31.482  21.787  -7.440  0.00  0.00     0.005 C 
ENDBRANCH  11  12
ENDBRANCH  10  11
ENDBRANCH   9  10
ENDBRANCH   8   9
ENDBRANCH   7   8
ENDBRANCH   6   7
ENDBRANCH   5   6
ENDBRANCH   4   5
ENDBRANCH   3   4
ENDBRANCH   2   3
ENDBRANCH   1   2
BRANCH   1  14
HETATM   14  C   UNK N   1      25.468  22.471  -6.626  0.00  0.00     0.142 C 
BRANCH  14  15
HETATM   15  C   UNK N   1      24.801  21.624  -7.673  0.00  0.00     0.141 C 
HETATM   16  O   UNK N   1      25.315  20.570  -8.004  0.00  0.00    -0.650 OA
BRANCH  15  17
HETATM   17  O   UNK N   1      23.656  22.018  -8.263  0.00  0.00    -0.776 OA
HETATM   18  H   UNK N   1      23.578  22.023  -9.198  0.00  0.00     0.167 HD
ENDBRANCH  15  17
ENDBRANCH  14  15
ENDBRANCH   1  14
BRANCH   1  19
HETATM   19  O   UNK N   1      26.248  23.601  -8.546  0.00  0.00    -0.316 OA
BRANCH  19  20
HETATM   20  C   UNK N   1      25.623  24.556  -9.278  0.00  0.00     0.259 C 
HETATM   21  O   UNK N   1      24.886  24.207 -10.185  0.00  0.00    -0.265 OA
BRANCH  20  22
HETATM   22  C   UNK N   1      25.770  26.019  -8.974  0.00  0.00     0.111 C 
BRANCH  22  23
HETATM   23  C   UNK N   1      27.246  26.334  -8.769  0.00  0.00     0.010 C 
BRANCH  23  24
HETATM   24  C   UNK N   1      27.464  27.364  -7.661  0.00  0.00     0.000 C 
BRANCH  24  25
HETATM   25  C   UNK N   1      28.877  27.378  -7.074  0.00  0.00     0.000 C 
BRANCH  25  26
HETATM   26  C   UNK N   1      29.055  28.435  -5.993  0.00  0.00     0.000 C 
BRANCH  26  27
HETATM   27  C   UNK N   1      28.009  29.517  -6.166  0.00  0.00     0.000 C 
BRANCH  27  28
HETATM   28  C   UNK N   1      27.487  29.865  -4.793  0.00  0.00     0.000 C 
BRANCH  28  29
HETATM   29  C   UNK N   1      27.526  28.674  -3.867  0.00  0.00     0.000 C 
BRANCH  29  30
HETATM   30  C   UNK N   1      26.144  28.062  -3.890  0.00  0.00     0.000 C 
BRANCH  30  31
HETATM   31  C   UNK N   1      26.224  26.559  -4.015  0.00  0.00    -0.000 C 
BRANCH  31  32
HETATM   32  C   UNK N   1      25.216  26.119  -5.055  0.00  0.00    -0.005 C 
HETATM   33  C   UNK N   1      24.530  27.331  -5.645  0.00  0.00     0.005 C 
ENDBRANCH  31  32
ENDBRANCH  30  31
ENDBRANCH  29  30
ENDBRANCH  28  29
ENDBRANCH  27  28
ENDBRANCH  26  27
ENDBRANCH  25  26
ENDBRANCH  24  25
ENDBRANCH  23  24
ENDBRANCH  22  23
ENDBRANCH  20  22
ENDBRANCH  19  20
ENDBRANCH   1  19
TORSDOF 27
ENDMDL
