REMARK  22 active torsions:
REMARK  status: ('A' for Active; 'I' for Inactive)
REMARK    1  A    between atoms: C_1  and  C_2 
REMARK    2  A    between atoms: C_1  and  C_16 
REMARK    3  A    between atoms: C_2  and  C_3 
REMARK    4  A    between atoms: C_3  and  C_4 
REMARK    5  A    between atoms: C_4  and  C_5 
REMARK    6  A    between atoms: C_5  and  C_6 
REMARK    7  A    between atoms: C_6  and  C_7 
REMARK    8  A    between atoms: C_7  and  C_8 
REMARK    9  A    between atoms: C_8  and  C_9 
REMARK   10  A    between atoms: C_9  and  C_10 
REMARK   11  A    between atoms: C_10  and  C_11 
REMARK   12  A    between atoms: C_16  and  C_17 
REMARK   13  A    between atoms: C_18  and  C_19 
REMARK   14  A    between atoms: C_19  and  O_21 
REMARK   15  A    between atoms: O_21  and  C_22 
REMARK   16  A    between atoms: C_22  and  C_24 
REMARK   17  A    between atoms: C_64  and  C_24 
REMARK   18  A    between atoms: C_30  and  C_65 
REMARK   19  A    between atoms: C_35  and  C_64 
REMARK   20  A    between atoms: C_49  and  C_62 
REMARK   21  A    between atoms: C_52  and  C_57 
REMARK   22  A    between atoms: C_65  and  O_66 
ROOT
HETATM    1  C   UNK N   1      13.010 -10.009  -0.150  0.00  0.00     0.081 A 
HETATM    2  C   UNK N   1      11.979 -10.839  -0.304  0.00  0.00     0.016 A 
HETATM    3  N   UNK N   1      13.147  -8.666  -0.184  0.00  0.00    -0.247 N 
HETATM    4  C   UNK N   1      14.167 -10.613   0.058  0.00  0.00     0.049 A 
HETATM    5  C   UNK N   1      10.566 -10.372  -0.461  0.00  0.00     0.024 C 
HETATM    6  C   UNK N   1      12.478 -12.301  -0.190  0.00  0.00     0.197 A 
HETATM    7  C   UNK N   1      14.458  -8.444   0.121  0.00  0.00     0.066 A 
HETATM    8 Mg   UNK N   1      11.670  -7.407  -0.993  0.00  0.00     0.000 Mg
HETATM    9  C   UNK N   1      15.122  -9.660   0.270  0.00  0.00    -0.017 A 
HETATM   10  C   UNK N   1      13.969 -12.022  -0.047  0.00  0.00     0.180 A 
HETATM   11  C   UNK N   1       9.382 -11.112  -1.041  0.00  0.00     0.046 C 
HETATM   12  N   UNK N   1      10.244  -9.177  -0.145  0.00  0.00    -0.362 N 
ATOM     13  HN  UNK N   1      10.901  -8.463   0.170  1.00  0.00     0.165 HD
HETATM   14  C   UNK N   1      15.068  -7.254   0.209  0.00  0.00     0.057 C 
HETATM   15  N   UNK N   1      10.210  -6.144  -0.213  0.00  0.00    -0.248 N 
HETATM   16  C   UNK N   1      16.568  -9.892   0.542  0.00  0.00     0.052 C 
HETATM   17  O   UNK N   1      14.859 -12.853  -0.005  0.00  0.00    -0.291 OA
HETATM   18  C   UNK N   1       8.151 -10.280  -0.589  0.00  0.00     0.041 C 
HETATM   19  C   UNK N   1       8.866  -8.984  -0.289  0.00  0.00     0.016 C 
HETATM   20  C   UNK N   1      14.418  -5.943   0.063  0.00  0.00     0.016 C 
HETATM   21  C   UNK N   1      10.333  -4.800  -0.052  0.00  0.00     0.073 A 
HETATM   22  C   UNK N   1       8.903  -6.451  -0.007  0.00  0.00     0.066 A 
HETATM   23  C   UNK N   1       7.543 -10.805   0.704  0.00  0.00     0.017 C 
HETATM   24  C   UNK N   1       8.258  -7.788  -0.180  0.00  0.00     0.057 C 
HETATM   25  C   UNK N   1      15.172  -4.641   0.007  0.00  0.00     0.045 C 
HETATM   26  N   UNK N   1      13.159  -5.804   0.002  0.00  0.00    -0.362 N 
ATOM     27  HN  UNK N   1      12.483  -6.564   0.080  1.00  0.00     0.165 HD
HETATM   28  C   UNK N   1       9.091  -4.241   0.234  0.00  0.00     0.046 A 
HETATM   29  C   UNK N   1      11.578  -4.005  -0.216  0.00  0.00     0.058 C 
HETATM   30  C   UNK N   1       8.194  -5.297   0.276  0.00  0.00    -0.017 A 
HETATM   31  C   UNK N   1      14.058  -3.615  -0.322  0.00  0.00     0.041 C 
HETATM   32  C   UNK N   1      12.834  -4.469  -0.186  0.00  0.00     0.016 C 
HETATM   33  C   UNK N   1       6.721  -5.209   0.507  0.00  0.00     0.052 C 
HETATM   34  C   UNK N   1      14.089  -2.495   0.701  0.00  0.00     0.017 C 
ENDROOT
BRANCH  11  35
HETATM   35  C   UNK N   1       9.363 -12.612  -1.359  0.00  0.00     0.021 C 
BRANCH  35  36
HETATM   36  C   UNK N   1       8.710 -13.595  -0.394  0.00  0.00     0.112 C 
BRANCH  36  37
HETATM   37  C   UNK N   1       9.292 -14.974  -0.600  0.00  0.00     0.259 C 
HETATM   38  O   UNK N   1      10.194 -15.148  -1.413  0.00  0.00    -0.265 OA
BRANCH  37  39
HETATM   39  O   UNK N   1       8.859 -16.010   0.167  0.00  0.00    -0.318 OA
BRANCH  39  40
HETATM   40  C   UNK N   1       9.537 -17.213   0.243  0.00  0.00     0.206 C 
BRANCH  40  41
HETATM   41  C   UNK N   1      10.862 -16.958   0.892  0.00  0.00     0.002 C 
HETATM   42  C   UNK N   1      12.028 -17.246   0.313  0.00  0.00    -0.086 C 
HETATM   43  C   UNK N   1      12.110 -17.924  -1.022  0.00  0.00     0.043 C 
BRANCH  42  44
HETATM   44  C   UNK N   1      13.271 -16.798   0.984  0.00  0.00     0.033 C 
BRANCH  44  45
HETATM   45  C   UNK N   1      13.930 -15.743   0.116  0.00  0.00     0.005 C 
BRANCH  45  46
HETATM   46  C   UNK N   1      15.409 -15.671   0.417  0.00  0.00     0.004 C 
BRANCH  46  47
HETATM   47  C   UNK N   1      16.162 -16.788  -0.290  0.00  0.00    -0.019 C 
HETATM   48  C   UNK N   1      15.897 -18.119   0.389  0.00  0.00     0.010 C 
BRANCH  47  49
HETATM   49  C   UNK N   1      17.642 -16.522  -0.201  0.00  0.00     0.004 C 
BRANCH  49  50
HETATM   50  C   UNK N   1      18.041 -15.289  -1.000  0.00  0.00     0.001 C 
BRANCH  50  51
HETATM   51  C   UNK N   1      19.476 -14.812  -0.746  0.00  0.00     0.004 C 
BRANCH  51  52
HETATM   52  C   UNK N   1      20.202 -15.434   0.455  0.00  0.00    -0.019 C 
HETATM   53  C   UNK N   1      20.508 -16.908   0.214  0.00  0.00     0.010 C 
BRANCH  52  54
HETATM   54  C   UNK N   1      21.498 -14.690   0.748  0.00  0.00     0.004 C 
BRANCH  54  55
HETATM   55  C   UNK N   1      22.451 -14.727  -0.439  0.00  0.00     0.001 C 
BRANCH  55  56
HETATM   56  C   UNK N   1      23.877 -14.850   0.061  0.00  0.00     0.004 C 
BRANCH  56  57
HETATM   57  C   UNK N   1      24.499 -16.163  -0.389  0.00  0.00    -0.023 C 
HETATM   58  C   UNK N   1      23.831 -17.345   0.291  0.00  0.00     0.009 C 
HETATM   59  C   UNK N   1      25.968 -16.160  -0.028  0.00  0.00     0.009 C 
ENDBRANCH  56  57
ENDBRANCH  55  56
ENDBRANCH  54  55
ENDBRANCH  52  54
ENDBRANCH  51  52
ENDBRANCH  50  51
ENDBRANCH  49  50
ENDBRANCH  47  49
ENDBRANCH  46  47
ENDBRANCH  45  46
ENDBRANCH  44  45
ENDBRANCH  42  44
ENDBRANCH  40  41
ENDBRANCH  39  40
ENDBRANCH  37  39
ENDBRANCH  36  37
ENDBRANCH  35  36
ENDBRANCH  11  35
BRANCH   6  60
HETATM   60  C   UNK N   1      12.016 -12.955   1.105  0.00  0.00     0.274 C 
HETATM   61  O   UNK N   1      12.837 -13.416   1.890  0.00  0.00    -0.264 OA
BRANCH  60  62
HETATM   62  O   UNK N   1      10.703 -12.995   1.415  0.00  0.00    -0.326 OA
HETATM   63  C   UNK N   1      10.247 -13.545   2.591  0.00  0.00     0.213 C 
ENDBRANCH  60  62
ENDBRANCH   6  60
BRANCH  28  64
HETATM   64  C   UNK N   1       8.762  -2.796   0.400  0.00  0.00     0.158 C 
HETATM   65  C   UNK N   1       9.806  -1.735   0.277  0.00  0.00     0.097 C 
HETATM   66  O   UNK N   1       7.608  -2.453   0.602  0.00  0.00    -0.293 OA
ENDBRANCH  28  64
BRANCH  25  67
HETATM   67  C   UNK N   1      16.269  -4.629  -1.044  0.00  0.00     0.007 C 
HETATM   68  C   UNK N   1      17.491  -5.365  -0.518  0.00  0.00     0.006 C 
ENDBRANCH  25  67
TORSDOF 22
