MODEL 1
REMARK VINA RESULT:      -4.6      0.000      0.000
REMARK  0 active torsions:
REMARK  status: ('A' for Active; 'I' for Inactive)
REMARK       I    between atoms: N_6  and  C_8 
ROOT
HETATM    1  C   UNK N   1      23.148  11.771  12.813  0.00  0.00     0.011 C 
HETATM    2  C   UNK N   1      23.193  12.288  11.391  0.00  0.00    -0.001 A 
HETATM    3  C   UNK N   1      24.511  12.217  10.666  0.00  0.00     0.007 A 
HETATM    4  C   UNK N   1      24.510  12.745   9.247  0.00  0.00     0.020 A 
HETATM    5  C   UNK N   1      23.226  13.304   8.637  0.00  0.00     0.125 A 
HETATM    6  N   UNK N   1      22.001  13.326   9.429  0.00  0.00    -0.352 N 
HETATM    7  C   UNK N   1      21.915  12.840  10.797  0.00  0.00     0.130 A 
HETATM    8  C   UNK N   1      20.871  13.834   8.852  0.00  0.00     0.215 C 
HETATM    9  C   UNK N   1      20.884  14.354   7.445  0.00  0.00     0.117 C 
HETATM   10  O   UNK N   1      19.820  13.873   9.476  0.00  0.00    -0.274 OA
ENDROOT
TORSDOF 0
ENDMDL
MODEL 2
REMARK VINA RESULT:      -4.5     12.875     14.091
REMARK  0 active torsions:
REMARK  status: ('A' for Active; 'I' for Inactive)
REMARK       I    between atoms: N_6  and  C_8 
ROOT
HETATM    1  C   UNK N   1      35.320  14.088  18.284  0.00  0.00     0.011 C 
HETATM    2  C   UNK N   1      35.123  12.787  17.536  0.00  0.00    -0.001 A 
HETATM    3  C   UNK N   1      35.205  11.509  18.329  0.00  0.00     0.007 A 
HETATM    4  C   UNK N   1      35.003  10.232  17.540  0.00  0.00     0.020 A 
HETATM    5  C   UNK N   1      34.735  10.293  16.037  0.00  0.00     0.125 A 
HETATM    6  N   UNK N   1      34.676  11.586  15.366  0.00  0.00    -0.352 N 
HETATM    7  C   UNK N   1      34.859  12.858  16.047  0.00  0.00     0.130 A 
HETATM    8  C   UNK N   1      34.435  11.603  14.021  0.00  0.00     0.215 C 
HETATM    9  C   UNK N   1      34.236  10.330  13.253  0.00  0.00     0.117 C 
HETATM   10  O   UNK N   1      34.377  12.664  13.414  0.00  0.00    -0.274 OA
ENDROOT
TORSDOF 0
ENDMDL
MODEL 3
REMARK VINA RESULT:      -4.3      1.796      2.700
REMARK  0 active torsions:
REMARK  status: ('A' for Active; 'I' for Inactive)
REMARK       I    between atoms: N_6  and  C_8 
ROOT
HETATM    1  C   UNK N   1      20.488  12.235  11.380  0.00  0.00     0.011 C 
HETATM    2  C   UNK N   1      21.926  12.380  10.929  0.00  0.00    -0.001 A 
HETATM    3  C   UNK N   1      23.000  11.893  11.866  0.00  0.00     0.007 A 
HETATM    4  C   UNK N   1      24.424  12.058  11.376  0.00  0.00     0.020 A 
HETATM    5  C   UNK N   1      24.697  12.684  10.009  0.00  0.00     0.125 A 
HETATM    6  N   UNK N   1      23.580  13.123   9.181  0.00  0.00    -0.352 N 
HETATM    7  C   UNK N   1      22.186  13.002   9.574  0.00  0.00     0.130 A 
HETATM    8  C   UNK N   1      23.861  13.679   7.964  0.00  0.00     0.215 C 
HETATM    9  C   UNK N   1      25.276  13.835   7.491  0.00  0.00     0.117 C 
HETATM   10  O   UNK N   1      22.959  14.061   7.233  0.00  0.00    -0.274 OA
ENDROOT
TORSDOF 0
ENDMDL
MODEL 4
REMARK VINA RESULT:      -4.3     17.858     18.896
REMARK  0 active torsions:
REMARK  status: ('A' for Active; 'I' for Inactive)
REMARK       I    between atoms: N_6  and  C_8 
ROOT
HETATM    1  C   UNK N   1      26.573  25.206  -3.959  0.00  0.00     0.011 C 
HETATM    2  C   UNK N   1      27.754  24.326  -4.309  0.00  0.00    -0.001 A 
HETATM    3  C   UNK N   1      27.937  23.950  -5.756  0.00  0.00     0.007 A 
HETATM    4  C   UNK N   1      29.131  23.069  -6.061  0.00  0.00     0.020 A 
HETATM    5  C   UNK N   1      30.060  22.619  -4.934  0.00  0.00     0.125 A 
HETATM    6  N   UNK N   1      29.791  23.043  -3.564  0.00  0.00    -0.352 N 
HETATM    7  C   UNK N   1      28.669  23.886  -3.185  0.00  0.00     0.130 A 
HETATM    8  C   UNK N   1      30.642  22.622  -2.581  0.00  0.00     0.215 C 
HETATM    9  C   UNK N   1      31.821  21.750  -2.897  0.00  0.00     0.117 C 
HETATM   10  O   UNK N   1      30.458  22.951  -1.418  0.00  0.00    -0.274 OA
ENDROOT
TORSDOF 0
ENDMDL
MODEL 5
REMARK VINA RESULT:      -4.3      8.246      9.685
REMARK  0 active torsions:
REMARK  status: ('A' for Active; 'I' for Inactive)
REMARK       I    between atoms: N_6  and  C_8 
ROOT
HETATM    1  C   UNK N   1      26.318  20.599   3.229  0.00  0.00     0.011 C 
HETATM    2  C   UNK N   1      24.988  19.947   3.541  0.00  0.00    -0.001 A 
HETATM    3  C   UNK N   1      24.993  18.776   4.489  0.00  0.00     0.007 A 
HETATM    4  C   UNK N   1      23.641  18.154   4.772  0.00  0.00     0.020 A 
HETATM    5  C   UNK N   1      22.384  18.717   4.111  0.00  0.00     0.125 A 
HETATM    6  N   UNK N   1      22.492  19.856   3.207  0.00  0.00    -0.352 N 
HETATM    7  C   UNK N   1      23.748  20.512   2.881  0.00  0.00     0.130 A 
HETATM    8  C   UNK N   1      21.347  20.334   2.633  0.00  0.00     0.215 C 
HETATM    9  C   UNK N   1      20.015  19.708   2.923  0.00  0.00     0.117 C 
HETATM   10  O   UNK N   1      21.387  21.287   1.868  0.00  0.00    -0.274 OA
ENDROOT
TORSDOF 0
ENDMDL
MODEL 6
REMARK VINA RESULT:      -4.2     17.817     18.575
REMARK  0 active torsions:
REMARK  status: ('A' for Active; 'I' for Inactive)
REMARK       I    between atoms: N_6  and  C_8 
ROOT
HETATM    1  C   UNK N   1      33.600  19.546  -4.271  0.00  0.00     0.011 C 
HETATM    2  C   UNK N   1      32.322  20.325  -4.500  0.00  0.00    -0.001 A 
HETATM    3  C   UNK N   1      31.620  20.137  -5.820  0.00  0.00     0.007 A 
HETATM    4  C   UNK N   1      30.347  20.935  -6.007  0.00  0.00     0.020 A 
HETATM    5  C   UNK N   1      29.849  21.858  -4.895  0.00  0.00     0.125 A 
HETATM    6  N   UNK N   1      30.607  21.965  -3.654  0.00  0.00    -0.352 N 
HETATM    7  C   UNK N   1      31.838  21.236  -3.393  0.00  0.00     0.130 A 
HETATM    8  C   UNK N   1      30.133  22.800  -2.681  0.00  0.00     0.215 C 
HETATM    9  C   UNK N   1      28.870  23.584  -2.879  0.00  0.00     0.117 C 
HETATM   10  O   UNK N   1      30.734  22.923  -1.623  0.00  0.00    -0.274 OA
ENDROOT
TORSDOF 0
ENDMDL
MODEL 7
REMARK VINA RESULT:      -4.1      9.315     10.759
REMARK  0 active torsions:
REMARK  status: ('A' for Active; 'I' for Inactive)
REMARK       I    between atoms: N_6  and  C_8 
ROOT
HETATM    1  C   UNK N   1      32.525  16.833   4.171  0.00  0.00     0.011 C 
HETATM    2  C   UNK N   1      32.359  17.200   5.629  0.00  0.00    -0.001 A 
HETATM    3  C   UNK N   1      33.598  17.587   6.395  0.00  0.00     0.007 A 
HETATM    4  C   UNK N   1      33.385  17.947   7.851  0.00  0.00     0.020 A 
HETATM    5  C   UNK N   1      31.982  17.905   8.455  0.00  0.00     0.125 A 
HETATM    6  N   UNK N   1      30.850  17.516   7.622  0.00  0.00    -0.352 N 
HETATM    7  C   UNK N   1      30.965  17.155   6.218  0.00  0.00     0.130 A 
HETATM    8  C   UNK N   1      29.609  17.489   8.195  0.00  0.00     0.215 C 
HETATM    9  C   UNK N   1      29.414  17.848   9.638  0.00  0.00     0.117 C 
HETATM   10  O   UNK N   1      28.629  17.169   7.538  0.00  0.00    -0.274 OA
ENDROOT
TORSDOF 0
ENDMDL
MODEL 8
REMARK VINA RESULT:      -4.1      8.724      9.068
REMARK  0 active torsions:
REMARK  status: ('A' for Active; 'I' for Inactive)
REMARK       I    between atoms: N_6  and  C_8 
ROOT
HETATM    1  C   UNK N   1      28.983  18.382   9.456  0.00  0.00     0.011 C 
HETATM    2  C   UNK N   1      28.914  18.361   7.944  0.00  0.00    -0.001 A 
HETATM    3  C   UNK N   1      29.814  17.395   7.220  0.00  0.00     0.007 A 
HETATM    4  C   UNK N   1      29.712  17.407   5.708  0.00  0.00     0.020 A 
HETATM    5  C   UNK N   1      28.741  18.361   5.013  0.00  0.00     0.125 A 
HETATM    6  N   UNK N   1      27.914  19.257   5.812  0.00  0.00    -0.352 N 
HETATM    7  C   UNK N   1      27.949  19.309   7.265  0.00  0.00     0.130 A 
HETATM    8  C   UNK N   1      27.056  20.096   5.157  0.00  0.00     0.215 C 
HETATM    9  C   UNK N   1      26.966  20.098   3.660  0.00  0.00     0.117 C 
HETATM   10  O   UNK N   1      26.342  20.867   5.784  0.00  0.00    -0.274 OA
ENDROOT
TORSDOF 0
ENDMDL
MODEL 9
REMARK VINA RESULT:      -4.1      2.233      4.305
REMARK  0 active torsions:
REMARK  status: ('A' for Active; 'I' for Inactive)
REMARK       I    between atoms: N_6  and  C_8 
ROOT
HETATM    1  C   UNK N   1      24.961  13.342   7.079  0.00  0.00     0.011 C 
HETATM    2  C   UNK N   1      23.914  13.074   8.138  0.00  0.00    -0.001 A 
HETATM    3  C   UNK N   1      22.469  13.237   7.745  0.00  0.00     0.007 A 
HETATM    4  C   UNK N   1      21.455  12.959   8.836  0.00  0.00     0.020 A 
HETATM    5  C   UNK N   1      21.923  12.541  10.229  0.00  0.00     0.125 A 
HETATM    6  N   UNK N   1      23.349  12.413  10.503  0.00  0.00    -0.352 N 
HETATM    7  C   UNK N   1      24.387  12.661   9.515  0.00  0.00     0.130 A 
HETATM    8  C   UNK N   1      23.732  12.038  11.761  0.00  0.00     0.215 C 
HETATM    9  C   UNK N   1      22.717  11.765  12.831  0.00  0.00     0.117 C 
HETATM   10  O   UNK N   1      24.917  11.916  12.038  0.00  0.00    -0.274 OA
ENDROOT
TORSDOF 0
ENDMDL
