REMARK  9 active torsions:
REMARK  status: ('A' for Active; 'I' for Inactive)
REMARK    1  A    between atoms: C_5  and  C_3 
REMARK    2  A    between atoms: O_12  and  C_3 
REMARK    3  A    between atoms: O_13  and  C_4 
REMARK    4  A    between atoms: C_6  and  C_5 
REMARK    5  A    between atoms: C_5  and  N_7 
REMARK    6  A    between atoms: O_9  and  C_6 
REMARK    7  A    between atoms: P_14  and  O_10 
REMARK    8  A    between atoms: P_14  and  O_12 
REMARK    9  A    between atoms: P_14  and  O_13 
ROOT
HETATM    1  C   UNK N   1      -1.701   0.745   0.216  0.00  0.00     0.216 C 
ENDROOT
BRANCH   1   2
HETATM    2  C   UNK N   1      -3.029   0.822  -0.530  0.00  0.00     0.198 C 
BRANCH   2   3
HETATM    3  C   UNK N   1      -3.837   1.960   0.050  0.00  0.00     0.165 C 
HETATM    4  O   UNK N   1      -4.926   1.765   0.557  0.00  0.00    -0.648 OA
BRANCH   3   5
HETATM    5  O   UNK N   1      -3.341   3.217   0.007  0.00  0.00    -0.775 OA
HETATM    6  H   UNK N   1      -2.415   3.354  -0.023  0.00  0.00     0.167 HD
ENDBRANCH   3   5
ENDBRANCH   2   3
BRANCH   2   7
HETATM    7  N   UNK N   1      -3.749  -0.437  -0.389  0.00  0.00    -0.416 N 
HETATM    8  H   UNK N   1      -4.764  -0.441  -0.291  0.00  0.00     0.150 HD
HETATM    9  H   UNK N   1      -3.235  -1.318  -0.389  0.00  0.00     0.150 HD
ENDBRANCH   2   7
ENDBRANCH   1   2
BRANCH   1  10
HETATM   10  O   UNK N   1      -0.793  -0.212  -0.279  0.00  0.00    -0.294 OA
BRANCH  10  11
HETATM   11  P   UNK N   1       0.655   0.104   0.659  0.00  0.00     0.393 P 
HETATM   12  O   UNK N   1       0.149   0.070   2.126  0.00  0.00    -0.631 OA
BRANCH  11  13
HETATM   13  O   UNK N   1       1.225   1.735   0.475  0.00  0.00    -0.307 OA
HETATM   14  H   UNK N   1       2.173   1.915   0.372  0.00  0.00     0.222 HD
ENDBRANCH  11  13
BRANCH  11  15
HETATM   15  O   UNK N   1       1.943  -1.084   0.724  0.00  0.00    -0.292 OA
BRANCH  15  16
HETATM   16  C   UNK N   1       2.362  -1.407  -0.566  0.00  0.00     0.125 C 
HETATM   17  C   UNK N   1       3.830  -1.042  -0.716  0.00  0.00     0.040 C 
HETATM   18  C   UNK N   1       2.242  -2.909  -0.729  0.00  0.00     0.040 C 
ENDBRANCH  15  16
ENDBRANCH  11  15
ENDBRANCH  10  11
ENDBRANCH   1  10
TORSDOF 9
