MODEL 1
REMARK VINA RESULT:      -6.4      0.000      0.000
REMARK  2 active torsions:
REMARK  status: ('A' for Active; 'I' for Inactive)
REMARK    1  A    between atoms: N_1  and  C_2 
REMARK    2  A    between atoms: C_2  and  C_10 
ROOT
HETATM    1  C   UNK N   1      35.889  12.369  14.949  0.00  0.00     0.186 C 
HETATM    2  C   UNK N   1      34.397  11.954  15.052  0.00  0.00     0.047 C 
HETATM    3  C   UNK N   1      36.804  11.186  15.365  0.00  0.00     0.047 C 
HETATM    4  C   UNK N   1      34.190  10.474  14.758  0.00  0.00     0.003 C 
HETATM    5  C   UNK N   1      36.151  10.272  16.404  0.00  0.00     0.003 C 
HETATM    6  C   UNK N   1      34.878   9.625  15.837  0.00  0.00     0.000 C 
ENDROOT
BRANCH   1   7
HETATM    7  N   UNK N   1      36.202  12.691  13.530  0.00  0.00     0.102 N 
HETATM    8  C   UNK N   1      36.874  11.615  12.806  0.00  0.00     0.274 C 
HETATM    9  C   UNK N   1      36.574  11.841  11.346  0.00  0.00     0.032 C 
HETATM   10  C   UNK N   1      35.200  12.464  11.348  0.00  0.00     0.032 C 
HETATM   11  C   UNK N   1      35.031  13.067  12.732  0.00  0.00     0.274 C 
ENDBRANCH   1   7
BRANCH   1  12
HETATM   12  C   UNK N   1      36.103  13.527  15.932  0.00  0.00    -0.020 A 
HETATM   13  C   UNK N   1      37.056  14.519  15.630  0.00  0.00     0.010 A 
HETATM   14  C   UNK N   1      37.271  15.592  16.498  0.00  0.00     0.001 A 
HETATM   15  C   UNK N   1      36.542  15.689  17.683  0.00  0.00     0.000 A 
HETATM   16  C   UNK N   1      35.598  14.711  18.002  0.00  0.00     0.001 A 
HETATM   17  C   UNK N   1      35.380  13.639  17.133  0.00  0.00     0.010 A 
ENDBRANCH   1  12
TORSDOF 2
ENDMDL
MODEL 2
REMARK VINA RESULT:      -5.9      7.713     10.476
REMARK  2 active torsions:
REMARK  status: ('A' for Active; 'I' for Inactive)
REMARK    1  A    between atoms: N_1  and  C_2 
REMARK    2  A    between atoms: C_2  and  C_10 
ROOT
HETATM    1  C   UNK N   1      31.659  16.523   7.011  0.00  0.00     0.186 C 
HETATM    2  C   UNK N   1      32.877  17.484   7.012  0.00  0.00     0.047 C 
HETATM    3  C   UNK N   1      31.196  16.245   5.555  0.00  0.00     0.047 C 
HETATM    4  C   UNK N   1      33.754  17.303   5.779  0.00  0.00     0.003 C 
HETATM    5  C   UNK N   1      31.467  17.421   4.616  0.00  0.00     0.003 C 
HETATM    6  C   UNK N   1      32.974  17.706   4.518  0.00  0.00     0.000 C 
ENDROOT
BRANCH   1   7
HETATM    7  N   UNK N   1      32.074  15.220   7.599  0.00  0.00     0.102 N 
HETATM    8  C   UNK N   1      32.402  14.196   6.611  0.00  0.00     0.274 C 
HETATM    9  C   UNK N   1      33.330  13.229   7.302  0.00  0.00     0.032 C 
HETATM   10  C   UNK N   1      34.094  14.090   8.277  0.00  0.00     0.032 C 
HETATM   11  C   UNK N   1      33.222  15.314   8.504  0.00  0.00     0.274 C 
ENDBRANCH   1   7
BRANCH   1  12
HETATM   12  C   UNK N   1      30.525  17.233   7.761  0.00  0.00    -0.020 A 
HETATM   13  C   UNK N   1      29.192  17.016   7.361  0.00  0.00     0.010 A 
HETATM   14  C   UNK N   1      28.134  17.638   8.027  0.00  0.00     0.001 A 
HETATM   15  C   UNK N   1      28.391  18.492   9.100  0.00  0.00     0.000 A 
HETATM   16  C   UNK N   1      29.706  18.725   9.506  0.00  0.00     0.001 A 
HETATM   17  C   UNK N   1      30.765  18.099   8.843  0.00  0.00     0.010 A 
ENDBRANCH   1  12
TORSDOF 2
ENDMDL
MODEL 3
REMARK VINA RESULT:      -5.9     21.732     24.668
REMARK  2 active torsions:
REMARK  status: ('A' for Active; 'I' for Inactive)
REMARK    1  A    between atoms: N_1  and  C_2 
REMARK    2  A    between atoms: C_2  and  C_10 
ROOT
HETATM    1  C   UNK N   1      27.646  25.071  -4.613  0.00  0.00     0.186 C 
HETATM    2  C   UNK N   1      26.317  24.333  -4.305  0.00  0.00     0.047 C 
HETATM    3  C   UNK N   1      27.963  24.992  -6.131  0.00  0.00     0.047 C 
HETATM    4  C   UNK N   1      25.331  24.415  -5.464  0.00  0.00     0.003 C 
HETATM    5  C   UNK N   1      27.423  23.718  -6.781  0.00  0.00     0.003 C 
HETATM    6  C   UNK N   1      25.890  23.663  -6.680  0.00  0.00     0.000 C 
ENDROOT
BRANCH   1   7
HETATM    7  N   UNK N   1      27.488  26.511  -4.269  0.00  0.00     0.102 N 
HETATM    8  C   UNK N   1      27.258  27.379  -5.420  0.00  0.00     0.274 C 
HETATM    9  C   UNK N   1      26.549  28.599  -4.890  0.00  0.00     0.032 C 
HETATM   10  C   UNK N   1      25.729  28.073  -3.738  0.00  0.00     0.032 C 
HETATM   11  C   UNK N   1      26.408  26.781  -3.316  0.00  0.00     0.274 C 
ENDBRANCH   1   7
BRANCH   1  12
HETATM   12  C   UNK N   1      28.754  24.345  -3.839  0.00  0.00    -0.020 A 
HETATM   13  C   UNK N   1      28.414  23.569  -2.715  0.00  0.00     0.010 A 
HETATM   14  C   UNK N   1      29.395  22.888  -1.992  0.00  0.00     0.001 A 
HETATM   15  C   UNK N   1      30.733  22.974  -2.378  0.00  0.00     0.000 A 
HETATM   16  C   UNK N   1      31.090  23.744  -3.486  0.00  0.00     0.001 A 
HETATM   17  C   UNK N   1      30.108  24.424  -4.212  0.00  0.00     0.010 A 
ENDBRANCH   1  12
TORSDOF 2
ENDMDL
MODEL 4
REMARK VINA RESULT:      -5.8      1.956      3.497
REMARK  2 active torsions:
REMARK  status: ('A' for Active; 'I' for Inactive)
REMARK    1  A    between atoms: N_1  and  C_2 
REMARK    2  A    between atoms: C_2  and  C_10 
ROOT
HETATM    1  C   UNK N   1      35.954  10.974  15.636  0.00  0.00     0.186 C 
HETATM    2  C   UNK N   1      36.082  11.965  14.449  0.00  0.00     0.047 C 
HETATM    3  C   UNK N   1      34.769  10.000  15.394  0.00  0.00     0.047 C 
HETATM    4  C   UNK N   1      35.648  11.342  13.128  0.00  0.00     0.003 C 
HETATM    5  C   UNK N   1      33.646  10.631  14.570  0.00  0.00     0.003 C 
HETATM    6  C   UNK N   1      34.148  11.018  13.170  0.00  0.00     0.000 C 
ENDROOT
BRANCH   1   7
HETATM    7  N   UNK N   1      37.193  10.152  15.712  0.00  0.00     0.102 N 
HETATM    8  C   UNK N   1      36.967   8.715  15.577  0.00  0.00     0.274 C 
HETATM    9  C   UNK N   1      38.265   8.131  15.082  0.00  0.00     0.032 C 
HETATM   10  C   UNK N   1      38.858   9.228  14.231  0.00  0.00     0.032 C 
HETATM   11  C   UNK N   1      38.209  10.512  14.718  0.00  0.00     0.274 C 
ENDBRANCH   1   7
BRANCH   1  12
HETATM   12  C   UNK N   1      35.660  11.807  16.889  0.00  0.00    -0.020 A 
HETATM   13  C   UNK N   1      35.604  11.169  18.143  0.00  0.00     0.010 A 
HETATM   14  C   UNK N   1      35.347  11.898  19.307  0.00  0.00     0.001 A 
HETATM   15  C   UNK N   1      35.137  13.275  19.235  0.00  0.00     0.000 A 
HETATM   16  C   UNK N   1      35.182  13.924  18.000  0.00  0.00     0.001 A 
HETATM   17  C   UNK N   1      35.442  13.196  16.836  0.00  0.00     0.010 A 
ENDBRANCH   1  12
TORSDOF 2
ENDMDL
MODEL 5
REMARK VINA RESULT:      -5.8     22.017     24.897
REMARK  2 active torsions:
REMARK  status: ('A' for Active; 'I' for Inactive)
REMARK    1  A    between atoms: N_1  and  C_2 
REMARK    2  A    between atoms: C_2  and  C_10 
ROOT
HETATM    1  C   UNK N   1      27.725  25.112  -4.506  0.00  0.00     0.186 C 
HETATM    2  C   UNK N   1      28.349  24.778  -5.886  0.00  0.00     0.047 C 
HETATM    3  C   UNK N   1      26.468  24.234  -4.259  0.00  0.00     0.047 C 
HETATM    4  C   UNK N   1      28.148  23.318  -6.272  0.00  0.00     0.003 C 
HETATM    5  C   UNK N   1      25.743  23.866  -5.555  0.00  0.00     0.003 C 
HETATM    6  C   UNK N   1      26.652  23.031  -6.470  0.00  0.00     0.000 C 
ENDROOT
BRANCH   1   7
HETATM    7  N   UNK N   1      28.710  24.781  -3.440  0.00  0.00     0.102 N 
HETATM    8  C   UNK N   1      28.539  23.452  -2.859  0.00  0.00     0.274 C 
HETATM    9  C   UNK N   1      29.883  23.063  -2.298  0.00  0.00     0.032 C 
HETATM   10  C   UNK N   1      30.871  23.732  -3.222  0.00  0.00     0.032 C 
HETATM   11  C   UNK N   1      30.108  24.874  -3.871  0.00  0.00     0.274 C 
ENDBRANCH   1   7
BRANCH   1  12
HETATM   12  C   UNK N   1      27.298  26.585  -4.548  0.00  0.00    -0.020 A 
HETATM   13  C   UNK N   1      26.448  27.085  -3.543  0.00  0.00     0.010 A 
HETATM   14  C   UNK N   1      26.046  28.422  -3.545  0.00  0.00     0.001 A 
HETATM   15  C   UNK N   1      26.482  29.280  -4.555  0.00  0.00     0.000 A 
HETATM   16  C   UNK N   1      27.319  28.800  -5.564  0.00  0.00     0.001 A 
HETATM   17  C   UNK N   1      27.725  27.463  -5.560  0.00  0.00     0.010 A 
ENDBRANCH   1  12
TORSDOF 2
ENDMDL
MODEL 6
REMARK VINA RESULT:      -5.5     10.599     13.282
REMARK  2 active torsions:
REMARK  status: ('A' for Active; 'I' for Inactive)
REMARK    1  A    between atoms: N_1  and  C_2 
REMARK    2  A    between atoms: C_2  and  C_10 
ROOT
HETATM    1  C   UNK N   1      28.900  17.598   5.230  0.00  0.00     0.186 C 
HETATM    2  C   UNK N   1      28.226  16.988   6.487  0.00  0.00     0.047 C 
HETATM    3  C   UNK N   1      28.499  16.794   3.964  0.00  0.00     0.047 C 
HETATM    4  C   UNK N   1      26.869  16.372   6.171  0.00  0.00     0.003 C 
HETATM    5  C   UNK N   1      28.228  15.320   4.263  0.00  0.00     0.003 C 
HETATM    6  C   UNK N   1      27.046  15.169   5.234  0.00  0.00     0.000 C 
ENDROOT
BRANCH   1   7
HETATM    7  N   UNK N   1      28.404  18.989   5.045  0.00  0.00     0.102 N 
HETATM    8  C   UNK N   1      27.404  19.133   3.991  0.00  0.00     0.274 C 
HETATM    9  C   UNK N   1      26.611  20.370   4.330  0.00  0.00     0.032 C 
HETATM   10  C   UNK N   1      26.621  20.406   5.838  0.00  0.00     0.032 C 
HETATM   11  C   UNK N   1      27.826  19.582   6.255  0.00  0.00     0.274 C 
ENDBRANCH   1   7
BRANCH   1  12
HETATM   12  C   UNK N   1      30.416  17.479   5.430  0.00  0.00    -0.020 A 
HETATM   13  C   UNK N   1      31.270  17.603   4.317  0.00  0.00     0.010 A 
HETATM   14  C   UNK N   1      32.655  17.509   4.463  0.00  0.00     0.001 A 
HETATM   15  C   UNK N   1      33.211  17.285   5.723  0.00  0.00     0.000 A 
HETATM   16  C   UNK N   1      32.380  17.153   6.837  0.00  0.00     0.001 A 
HETATM   17  C   UNK N   1      30.993  17.251   6.692  0.00  0.00     0.010 A 
ENDBRANCH   1  12
TORSDOF 2
ENDMDL
MODEL 7
REMARK VINA RESULT:      -5.5     22.052     24.965
REMARK  2 active torsions:
REMARK  status: ('A' for Active; 'I' for Inactive)
REMARK    1  A    between atoms: N_1  and  C_2 
REMARK    2  A    between atoms: C_2  and  C_10 
ROOT
HETATM    1  C   UNK N   1      27.358  25.640  -4.912  0.00  0.00     0.186 C 
HETATM    2  C   UNK N   1      27.896  27.022  -5.367  0.00  0.00     0.047 C 
HETATM    3  C   UNK N   1      26.149  25.824  -3.956  0.00  0.00     0.047 C 
HETATM    4  C   UNK N   1      26.792  28.068  -5.460  0.00  0.00     0.003 C 
HETATM    5  C   UNK N   1      26.232  27.115  -3.141  0.00  0.00     0.003 C 
HETATM    6  C   UNK N   1      26.215  28.344  -4.064  0.00  0.00     0.000 C 
ENDROOT
BRANCH   1   7
HETATM    7  N   UNK N   1      26.869  24.897  -6.105  0.00  0.00     0.102 N 
HETATM    8  C   UNK N   1      27.882  24.064  -6.747  0.00  0.00     0.274 C 
HETATM    9  C   UNK N   1      27.130  22.986  -7.488  0.00  0.00     0.032 C 
HETATM   10  C   UNK N   1      25.899  22.756  -6.646  0.00  0.00     0.032 C 
HETATM   11  C   UNK N   1      25.719  24.030  -5.838  0.00  0.00     0.274 C 
ENDBRANCH   1   7
BRANCH   1  12
HETATM   12  C   UNK N   1      28.491  24.946  -4.145  0.00  0.00    -0.020 A 
HETATM   13  C   UNK N   1      28.187  23.866  -3.295  0.00  0.00     0.010 A 
HETATM   14  C   UNK N   1      29.194  23.205  -2.588  0.00  0.00     0.001 A 
HETATM   15  C   UNK N   1      30.521  23.616  -2.716  0.00  0.00     0.000 A 
HETATM   16  C   UNK N   1      30.841  24.689  -3.549  0.00  0.00     0.001 A 
HETATM   17  C   UNK N   1      29.834  25.349  -4.259  0.00  0.00     0.010 A 
ENDBRANCH   1  12
TORSDOF 2
ENDMDL
MODEL 8
REMARK VINA RESULT:      -5.5     22.199     25.028
REMARK  2 active torsions:
REMARK  status: ('A' for Active; 'I' for Inactive)
REMARK    1  A    between atoms: N_1  and  C_2 
REMARK    2  A    between atoms: C_2  and  C_10 
ROOT
HETATM    1  C   UNK N   1      28.042  24.582  -4.659  0.00  0.00     0.186 C 
HETATM    2  C   UNK N   1      27.994  23.983  -3.228  0.00  0.00     0.047 C 
HETATM    3  C   UNK N   1      29.512  24.852  -5.078  0.00  0.00     0.047 C 
HETATM    4  C   UNK N   1      29.218  23.130  -2.920  0.00  0.00     0.003 C 
HETATM    5  C   UNK N   1      30.412  25.187  -3.888  0.00  0.00     0.003 C 
HETATM    6  C   UNK N   1      30.478  24.007  -2.905  0.00  0.00     0.000 C 
ENDROOT
BRANCH   1   7
HETATM    7  N   UNK N   1      27.486  23.586  -5.616  0.00  0.00     0.102 N 
HETATM    8  C   UNK N   1      26.028  23.598  -5.711  0.00  0.00     0.274 C 
HETATM    9  C   UNK N   1      25.692  23.027  -7.066  0.00  0.00     0.032 C 
HETATM   10  C   UNK N   1      26.848  23.453  -7.938  0.00  0.00     0.032 C 
HETATM   11  C   UNK N   1      27.997  23.723  -6.982  0.00  0.00     0.274 C 
ENDBRANCH   1   7
BRANCH   1  12
HETATM   12  C   UNK N   1      27.288  25.917  -4.613  0.00  0.00    -0.020 A 
HETATM   13  C   UNK N   1      26.523  26.238  -3.476  0.00  0.00     0.010 A 
HETATM   14  C   UNK N   1      25.831  27.449  -3.397  0.00  0.00     0.001 A 
HETATM   15  C   UNK N   1      25.888  28.356  -4.455  0.00  0.00     0.000 A 
HETATM   16  C   UNK N   1      26.637  28.052  -5.593  0.00  0.00     0.001 A 
HETATM   17  C   UNK N   1      27.332  26.843  -5.672  0.00  0.00     0.010 A 
ENDBRANCH   1  12
TORSDOF 2
ENDMDL
MODEL 9
REMARK VINA RESULT:      -5.4     13.378     15.278
REMARK  2 active torsions:
REMARK  status: ('A' for Active; 'I' for Inactive)
REMARK    1  A    between atoms: N_1  and  C_2 
REMARK    2  A    between atoms: C_2  and  C_10 
ROOT
HETATM    1  C   UNK N   1      22.562  13.181   7.792  0.00  0.00     0.186 C 
HETATM    2  C   UNK N   1      21.052  12.904   7.562  0.00  0.00     0.047 C 
HETATM    3  C   UNK N   1      23.417  12.346   6.801  0.00  0.00     0.047 C 
HETATM    4  C   UNK N   1      20.741  12.589   6.104  0.00  0.00     0.003 C 
HETATM    5  C   UNK N   1      22.752  11.023   6.418  0.00  0.00     0.003 C 
HETATM    6  C   UNK N   1      21.419  11.273   5.696  0.00  0.00     0.000 C 
ENDROOT
BRANCH   1   7
HETATM    7  N   UNK N   1      22.835  14.617   7.509  0.00  0.00     0.102 N 
HETATM    8  C   UNK N   1      23.443  14.865   6.205  0.00  0.00     0.274 C 
HETATM    9  C   UNK N   1      23.100  16.288   5.845  0.00  0.00     0.032 C 
HETATM   10  C   UNK N   1      21.748  16.508   6.480  0.00  0.00     0.032 C 
HETATM   11  C   UNK N   1      21.650  15.477   7.590  0.00  0.00     0.274 C 
ENDBRANCH   1   7
BRANCH   1  12
HETATM   12  C   UNK N   1      22.888  12.736   9.223  0.00  0.00    -0.020 A 
HETATM   13  C   UNK N   1      24.234  12.564   9.601  0.00  0.00     0.010 A 
HETATM   14  C   UNK N   1      24.568  12.168  10.897  0.00  0.00     0.001 A 
HETATM   15  C   UNK N   1      23.564  11.933  11.837  0.00  0.00     0.000 A 
HETATM   16  C   UNK N   1      22.224  12.092  11.478  0.00  0.00     0.001 A 
HETATM   17  C   UNK N   1      21.889  12.492  10.182  0.00  0.00     0.010 A 
ENDBRANCH   1  12
TORSDOF 2
ENDMDL
