REMARK  21 active torsions:
REMARK  status: ('A' for Active; 'I' for Inactive)
REMARK    1  A    between atoms: C_7  and  C_1 
REMARK    2  A    between atoms: O_47  and  C_1 
REMARK    3  A    between atoms: C_8  and  C_2 
REMARK    4  A    between atoms: O_48  and  C_2 
REMARK    5  A    between atoms: C_11  and  O_37 
REMARK    6  A    between atoms: C_12  and  O_38 
REMARK    7  A    between atoms: C_13  and  O_39 
REMARK    8  A    between atoms: C_14  and  O_40 
REMARK    9  A    between atoms: N_21  and  C_15 
REMARK   10  A    between atoms: N_22  and  C_16 
REMARK   11  A    between atoms: C_19  and  N_35 
REMARK   12  A    between atoms: C_20  and  N_36 
REMARK   13  A    between atoms: P_53  and  O_41 
REMARK   14  A    between atoms: P_54  and  O_43 
REMARK   15  A    between atoms: P_55  and  O_45 
REMARK   16  A    between atoms: P_53  and  O_47 
REMARK   17  A    between atoms: P_54  and  O_48 
REMARK   18  A    between atoms: P_53  and  O_51 
REMARK   19  A    between atoms: P_55  and  O_51 
REMARK   20  A    between atoms: P_54  and  O_52 
REMARK   21  A    between atoms: P_55  and  O_52 
ROOT
HETATM    1  O   UNK N   1      -2.994  -4.776  -0.090  0.00  0.00    -0.631 OA
HETATM    2  P   UNK N   1      -2.114  -4.196  -1.217  0.00  0.00     0.410 P 
ENDROOT
BRANCH   2   3
HETATM    3  O   UNK N   1      -0.520  -3.687  -0.770  0.00  0.00    -0.307 OA
HETATM    4  H   UNK N   1       0.174  -4.317  -0.520  0.00  0.00     0.222 HD
ENDBRANCH   2   3
BRANCH   2   5
HETATM    5  O   UNK N   1      -1.151  -5.696  -1.060  0.00  0.00    -0.195 OA
BRANCH   5   6
HETATM    6  P   UNK N   1      -0.845  -6.300   0.584  0.00  0.00     0.401 P 
HETATM    7  O   UNK N   1      -0.238  -5.153   1.436  0.00  0.00    -0.631 OA
BRANCH   6   8
HETATM    8  O   UNK N   1       0.368  -7.543   0.552  0.00  0.00    -0.307 OA
HETATM    9  H   UNK N   1       0.106  -8.477   0.534  0.00  0.00     0.222 HD
ENDBRANCH   6   8
BRANCH   6  10
HETATM   10  O   UNK N   1      -2.291  -6.851   1.406  0.00  0.00    -0.294 OA
BRANCH  10  11
HETATM   11  C   UNK N   1      -2.791  -7.944   0.681  0.00  0.00     0.215 C 
BRANCH  11  12
HETATM   12  C   UNK N   1      -3.728  -7.498  -0.456  0.00  0.00     0.180 C 
HETATM   13  C   UNK N   1      -4.999  -6.767  -0.005  0.00  0.00     0.182 C 
HETATM   14  C   UNK N   1      -5.923  -7.915   0.227  0.00  0.00     0.198 C 
HETATM   15  C   UNK N   1      -5.482  -8.862  -0.900  0.00  0.00     0.262 C 
HETATM   16  O   UNK N   1      -4.120  -8.626  -1.185  0.00  0.00    -0.353 OA
BRANCH  13  17
HETATM   17  O   UNK N   1      -5.481  -5.999  -1.071  0.00  0.00    -0.390 OA
HETATM   18  H   UNK N   1      -5.187  -5.443  -1.809  0.00  0.00     0.210 HD
ENDBRANCH  13  17
BRANCH  14  19
HETATM   19  O   UNK N   1      -5.643  -8.471   1.480  0.00  0.00    -0.388 OA
HETATM   20  H   UNK N   1      -5.880  -8.832   2.348  0.00  0.00     0.210 HD
ENDBRANCH  14  19
BRANCH  15  21
HETATM   21  N   UNK N   1      -5.644 -10.255  -0.501  0.00  0.00    -0.297 N 
HETATM   22  C   UNK N   1      -4.639 -11.147  -0.290  0.00  0.00     0.188 A 
HETATM   23  N   UNK N   1      -5.121 -12.352   0.111  0.00  0.00    -0.346 N 
HETATM   24  C   UNK N   1      -6.455 -12.180   0.137  0.00  0.00     0.122 A 
ATOM     25  HN  UNK N   1      -4.593 -13.194   0.340  1.00  0.00     0.167 HD
HETATM   26  C   UNK N   1      -7.453 -13.073   0.469  0.00  0.00     0.131 A 
HETATM   27  C   UNK N   1      -6.765 -10.923  -0.230  0.00  0.00     0.142 A 
HETATM   28  N   UNK N   1      -8.747 -12.637   0.405  0.00  0.00    -0.337 N 
HETATM   29  C   UNK N   1      -9.042 -11.348   0.026  0.00  0.00     0.183 A 
ATOM     30  HN  UNK N   1      -9.505 -13.277   0.643  1.00  0.00     0.168 HD
HETATM   31  N   UNK N   1      -8.041 -10.472  -0.295  0.00  0.00    -0.336 N 
ATOM     32  HN  UNK N   1      -8.248  -9.513  -0.574  1.00  0.00     0.168 HD
BRANCH  26  33
HETATM   33  N   UNK N   1      -7.152 -14.392   0.861  0.00  0.00    -0.383 N 
HETATM   34  H   UNK N   1      -7.846 -15.035   1.135  0.00  0.00     0.157 HD
HETATM   35  H   UNK N   1      -6.211 -14.683   0.861  0.00  0.00     0.157 HD
ENDBRANCH  26  33
ENDBRANCH  15  21
ENDBRANCH  11  12
ENDBRANCH  10  11
ENDBRANCH   6  10
ENDBRANCH   5   6
ENDBRANCH   2   5
BRANCH   2  36
HETATM   36  O   UNK N   1      -2.127  -3.134   0.138  0.00  0.00    -0.195 OA
BRANCH  36  37
HETATM   37  P   UNK N   1      -2.765  -1.607  -0.412  0.00  0.00     0.401 P 
HETATM   38  O   UNK N   1      -4.304  -1.602  -0.213  0.00  0.00    -0.631 OA
BRANCH  37  39
HETATM   39  O   UNK N   1      -2.395  -1.266  -2.076  0.00  0.00    -0.307 OA
HETATM   40  H   UNK N   1      -2.128  -1.350  -3.005  0.00  0.00     0.222 HD
ENDBRANCH  37  39
BRANCH  37  41
HETATM   41  O   UNK N   1      -2.090  -0.385   0.614  0.00  0.00    -0.294 OA
BRANCH  41  42
HETATM   42  C   UNK N   1      -0.939  -0.983   1.146  0.00  0.00     0.215 C 
BRANCH  42  43
HETATM   43  C   UNK N   1       0.245  -0.789   0.205  0.00  0.00     0.180 C 
HETATM   44  C   UNK N   1       1.533  -1.316   0.818  0.00  0.00     0.182 C 
HETATM   45  C   UNK N   1       2.578  -0.333   0.330  0.00  0.00     0.198 C 
HETATM   46  C   UNK N   1       1.738   0.742  -0.384  0.00  0.00     0.262 C 
HETATM   47  O   UNK N   1       0.404   0.579   0.014  0.00  0.00    -0.353 OA
BRANCH  44  48
HETATM   48  O   UNK N   1       1.806  -2.631   0.430  0.00  0.00    -0.390 OA
HETATM   49  H   UNK N   1       1.111  -3.251   0.160  0.00  0.00     0.210 HD
ENDBRANCH  44  48
BRANCH  45  50
HETATM   50  O   UNK N   1       3.264   0.183   1.435  0.00  0.00    -0.388 OA
HETATM   51  H   UNK N   1       3.812  -0.050   2.201  0.00  0.00     0.210 HD
ENDBRANCH  45  50
BRANCH  46  52
HETATM   52  N   UNK N   1       2.133   2.120  -0.098  0.00  0.00    -0.297 N 
HETATM   53  C   UNK N   1       1.286   3.110   0.295  0.00  0.00     0.188 A 
HETATM   54  N   UNK N   1       1.938   4.289   0.462  0.00  0.00    -0.346 N 
HETATM   55  C   UNK N   1       3.217   4.000   0.170  0.00  0.00     0.122 A 
ATOM     56  HN  UNK N   1       1.547   5.188   0.744  1.00  0.00     0.167 HD
HETATM   57  C   UNK N   1       4.329   4.816   0.190  0.00  0.00     0.131 A 
HETATM   58  C   UNK N   1       3.334   2.701  -0.170  0.00  0.00     0.142 A 
HETATM   59  N   UNK N   1       5.536   4.260  -0.128  0.00  0.00    -0.337 N 
HETATM   60  C   UNK N   1       5.635   2.929  -0.465  0.00  0.00     0.183 A 
ATOM     61  HN  UNK N   1       6.375   4.839  -0.116  1.00  0.00     0.168 HD
HETATM   62  N   UNK N   1       4.520   2.134  -0.493  0.00  0.00    -0.336 N 
ATOM     63  HN  UNK N   1       4.581   1.149  -0.749  1.00  0.00     0.168 HD
BRANCH  57  64
HETATM   64  N   UNK N   1       4.229   6.179   0.533  0.00  0.00    -0.383 N 
HETATM   65  H   UNK N   1       5.018   6.717   0.773  0.00  0.00     0.157 HD
HETATM   66  H   UNK N   1       3.342   6.608   0.533  0.00  0.00     0.157 HD
ENDBRANCH  57  64
ENDBRANCH  46  52
ENDBRANCH  42  43
ENDBRANCH  41  42
ENDBRANCH  37  41
ENDBRANCH  36  37
ENDBRANCH   2  36
TORSDOF 21
