MODEL 1
REMARK VINA RESULT:      -5.0      0.000      0.000
REMARK  2 active torsions:
REMARK  status: ('A' for Active; 'I' for Inactive)
REMARK    1  A    between atoms: N_1  and  S_2 
REMARK    2  A    between atoms: S_2  and  C_5 
ROOT
HETATM    1  C   UNK N   1      21.884  13.509   9.682  0.00  0.00     0.079 A 
HETATM    2  C   UNK N   1      21.655  12.694  10.796  0.00  0.00     0.028 A 
HETATM    3  C   UNK N   1      22.721  12.022  11.402  0.00  0.00     0.044 A 
HETATM    4  C   UNK N   1      24.017  12.168  10.897  0.00  0.00     0.116 A 
HETATM    5  F   UNK N   1      25.054  11.536  11.498  0.00  0.00    -0.206 F 
HETATM    6  C   UNK N   1      24.245  12.977   9.778  0.00  0.00     0.044 A 
HETATM    7  C   UNK N   1      23.178  13.649   9.172  0.00  0.00     0.028 A 
ENDROOT
BRANCH   1   8
HETATM    8  S   UNK N   1      20.535  14.436   8.965  0.00  0.00     0.256 S 
HETATM    9  O   UNK N   1      19.240  14.279   9.777  0.00  0.00    -0.201 OA
HETATM   10  O   UNK N   1      20.112  13.935   7.575  0.00  0.00    -0.201 OA
BRANCH   8  11
HETATM   11  N   UNK N   1      20.740  16.179   8.783  0.00  0.00    -0.324 N 
HETATM   12  H   UNK N   1      20.264  16.930   9.284  0.00  0.00     0.169 HD
HETATM   13  H   UNK N   1      21.423  16.474   8.087  0.00  0.00     0.169 HD
ENDBRANCH   8  11
ENDBRANCH   1   8
TORSDOF 2
ENDMDL
MODEL 2
REMARK VINA RESULT:      -4.9     22.565     23.287
REMARK  2 active torsions:
REMARK  status: ('A' for Active; 'I' for Inactive)
REMARK    1  A    between atoms: N_1  and  S_2 
REMARK    2  A    between atoms: S_2  and  C_5 
ROOT
HETATM    1  C   UNK N   1      42.647  21.707   3.153  0.00  0.00     0.079 A 
HETATM    2  C   UNK N   1      41.936  22.540   2.281  0.00  0.00     0.028 A 
HETATM    3  C   UNK N   1      40.680  22.150   1.809  0.00  0.00     0.044 A 
HETATM    4  C   UNK N   1      40.129  20.929   2.213  0.00  0.00     0.116 A 
HETATM    5  F   UNK N   1      38.901  20.562   1.774  0.00  0.00    -0.206 F 
HETATM    6  C   UNK N   1      40.842  20.092   3.078  0.00  0.00     0.044 A 
HETATM    7  C   UNK N   1      42.100  20.483   3.550  0.00  0.00     0.028 A 
ENDROOT
BRANCH   1   8
HETATM    8  S   UNK N   1      44.212  22.247   3.824  0.00  0.00     0.256 S 
HETATM    9  O   UNK N   1      44.093  22.638   5.304  0.00  0.00    -0.201 OA
HETATM   10  O   UNK N   1      44.743  23.541   3.186  0.00  0.00    -0.201 OA
BRANCH   8  11
HETATM   11  N   UNK N   1      45.565  21.117   3.767  0.00  0.00    -0.324 N 
HETATM   12  H   UNK N   1      46.474  21.236   3.320  0.00  0.00     0.169 HD
HETATM   13  H   UNK N   1      45.419  20.227   4.243  0.00  0.00     0.169 HD
ENDBRANCH   8  11
ENDBRANCH   1   8
TORSDOF 2
ENDMDL
MODEL 3
REMARK VINA RESULT:      -4.8     14.899     15.362
REMARK  2 active torsions:
REMARK  status: ('A' for Active; 'I' for Inactive)
REMARK    1  A    between atoms: N_1  and  S_2 
REMARK    2  A    between atoms: S_2  and  C_5 
ROOT
HETATM    1  C   UNK N   1      35.670  12.826  16.229  0.00  0.00     0.079 A 
HETATM    2  C   UNK N   1      35.390  13.813  17.181  0.00  0.00     0.028 A 
HETATM    3  C   UNK N   1      35.182  13.457  18.517  0.00  0.00     0.044 A 
HETATM    4  C   UNK N   1      35.260  12.115  18.903  0.00  0.00     0.116 A 
HETATM    5  F   UNK N   1      35.082  11.772  20.202  0.00  0.00    -0.206 F 
HETATM    6  C   UNK N   1      35.532  11.127  17.950  0.00  0.00     0.044 A 
HETATM    7  C   UNK N   1      35.739  11.484  16.614  0.00  0.00     0.028 A 
ENDROOT
BRANCH   1   8
HETATM    8  S   UNK N   1      36.022  13.293  14.540  0.00  0.00     0.256 S 
HETATM    9  O   UNK N   1      34.745  13.362  13.690  0.00  0.00    -0.201 OA
HETATM   10  O   UNK N   1      36.867  12.260  13.779  0.00  0.00    -0.201 OA
BRANCH   8  11
HETATM   11  N   UNK N   1      36.826  14.839  14.265  0.00  0.00    -0.324 N 
HETATM   12  H   UNK N   1      37.789  15.012  13.978  0.00  0.00     0.169 HD
HETATM   13  H   UNK N   1      36.252  15.669  14.413  0.00  0.00     0.169 HD
ENDBRANCH   8  11
ENDBRANCH   1   8
TORSDOF 2
ENDMDL
MODEL 4
REMARK VINA RESULT:      -4.8     14.927     15.352
REMARK  2 active torsions:
REMARK  status: ('A' for Active; 'I' for Inactive)
REMARK    1  A    between atoms: N_1  and  S_2 
REMARK    2  A    between atoms: S_2  and  C_5 
ROOT
HETATM    1  C   UNK N   1      35.784  12.725  16.204  0.00  0.00     0.079 A 
HETATM    2  C   UNK N   1      35.913  11.382  16.576  0.00  0.00     0.028 A 
HETATM    3  C   UNK N   1      35.660  10.994  17.895  0.00  0.00     0.044 A 
HETATM    4  C   UNK N   1      35.273  11.947  18.842  0.00  0.00     0.116 A 
HETATM    5  F   UNK N   1      35.004  11.567  20.114  0.00  0.00    -0.206 F 
HETATM    6  C   UNK N   1      35.152  13.291  18.473  0.00  0.00     0.044 A 
HETATM    7  C   UNK N   1      35.405  13.679  17.153  0.00  0.00     0.028 A 
ENDROOT
BRANCH   1   8
HETATM    8  S   UNK N   1      36.022  13.204  14.499  0.00  0.00     0.256 S 
HETATM    9  O   UNK N   1      34.691  13.281  13.737  0.00  0.00    -0.201 OA
HETATM   10  O   UNK N   1      36.812  12.176  13.675  0.00  0.00    -0.201 OA
BRANCH   8  11
HETATM   11  N   UNK N   1      36.808  14.751  14.182  0.00  0.00    -0.324 N 
HETATM   12  H   UNK N   1      37.378  15.315  14.813  0.00  0.00     0.169 HD
HETATM   13  H   UNK N   1      36.675  15.132  13.245  0.00  0.00     0.169 HD
ENDBRANCH   8  11
ENDBRANCH   1   8
TORSDOF 2
ENDMDL
MODEL 5
REMARK VINA RESULT:      -4.7     11.370     11.890
REMARK  2 active torsions:
REMARK  status: ('A' for Active; 'I' for Inactive)
REMARK    1  A    between atoms: N_1  and  S_2 
REMARK    2  A    between atoms: S_2  and  C_5 
ROOT
HETATM    1  C   UNK N   1      32.417  17.596   7.772  0.00  0.00     0.079 A 
HETATM    2  C   UNK N   1      31.449  18.012   8.693  0.00  0.00     0.028 A 
HETATM    3  C   UNK N   1      30.094  17.960   8.354  0.00  0.00     0.044 A 
HETATM    4  C   UNK N   1      29.705  17.489   7.095  0.00  0.00     0.116 A 
HETATM    5  F   UNK N   1      28.390  17.417   6.776  0.00  0.00    -0.206 F 
HETATM    6  C   UNK N   1      30.673  17.081   6.171  0.00  0.00     0.044 A 
HETATM    7  C   UNK N   1      32.029  17.133   6.511  0.00  0.00     0.028 A 
ENDROOT
BRANCH   1   8
HETATM    8  S   UNK N   1      34.142  17.580   8.240  0.00  0.00     0.256 S 
HETATM    9  O   UNK N   1      34.803  18.950   8.029  0.00  0.00    -0.201 OA
HETATM   10  O   UNK N   1      35.008  16.660   7.365  0.00  0.00    -0.201 OA
BRANCH   8  11
HETATM   11  N   UNK N   1      34.538  17.143   9.902  0.00  0.00    -0.324 N 
HETATM   12  H   UNK N   1      34.621  16.212  10.312  0.00  0.00     0.169 HD
HETATM   13  H   UNK N   1      34.706  17.923  10.537  0.00  0.00     0.169 HD
ENDBRANCH   8  11
ENDBRANCH   1   8
TORSDOF 2
ENDMDL
MODEL 6
REMARK VINA RESULT:      -4.6      8.528      9.464
REMARK  2 active torsions:
REMARK  status: ('A' for Active; 'I' for Inactive)
REMARK    1  A    between atoms: N_1  and  S_2 
REMARK    2  A    between atoms: S_2  and  C_5 
ROOT
HETATM    1  C   UNK N   1      22.775  19.823   3.190  0.00  0.00     0.079 A 
HETATM    2  C   UNK N   1      23.847  20.649   2.833  0.00  0.00     0.028 A 
HETATM    3  C   UNK N   1      25.153  20.287   3.175  0.00  0.00     0.044 A 
HETATM    4  C   UNK N   1      25.390  19.095   3.869  0.00  0.00     0.116 A 
HETATM    5  F   UNK N   1      26.657  18.733   4.180  0.00  0.00    -0.206 F 
HETATM    6  C   UNK N   1      24.318  18.273   4.233  0.00  0.00     0.044 A 
HETATM    7  C   UNK N   1      23.011  18.636   3.891  0.00  0.00     0.028 A 
ENDROOT
BRANCH   1   8
HETATM    8  S   UNK N   1      21.117  20.244   2.674  0.00  0.00     0.256 S 
HETATM    9  O   UNK N   1      21.109  21.412   1.677  0.00  0.00    -0.201 OA
HETATM   10  O   UNK N   1      20.235  20.779   3.813  0.00  0.00    -0.201 OA
BRANCH   8  11
HETATM   11  N   UNK N   1      20.154  18.986   1.898  0.00  0.00    -0.324 N 
HETATM   12  H   UNK N   1      20.389  18.417   1.084  0.00  0.00     0.169 HD
HETATM   13  H   UNK N   1      19.242  18.805   2.316  0.00  0.00     0.169 HD
ENDBRANCH   8  11
ENDBRANCH   1   8
TORSDOF 2
ENDMDL
MODEL 7
REMARK VINA RESULT:      -4.5      8.474      9.318
REMARK  2 active torsions:
REMARK  status: ('A' for Active; 'I' for Inactive)
REMARK    1  A    between atoms: N_1  and  S_2 
REMARK    2  A    between atoms: S_2  and  C_5 
ROOT
HETATM    1  C   UNK N   1      22.753  19.643   3.316  0.00  0.00     0.079 A 
HETATM    2  C   UNK N   1      23.567  20.597   2.694  0.00  0.00     0.028 A 
HETATM    3  C   UNK N   1      24.955  20.535   2.843  0.00  0.00     0.044 A 
HETATM    4  C   UNK N   1      25.532  19.517   3.610  0.00  0.00     0.116 A 
HETATM    5  F   UNK N   1      26.879  19.444   3.735  0.00  0.00    -0.206 F 
HETATM    6  C   UNK N   1      24.718  18.569   4.238  0.00  0.00     0.044 A 
HETATM    7  C   UNK N   1      23.329  18.630   4.089  0.00  0.00     0.028 A 
ENDROOT
BRANCH   1   8
HETATM    8  S   UNK N   1      20.986  19.672   3.051  0.00  0.00     0.256 S 
HETATM    9  O   UNK N   1      20.299  20.751   3.902  0.00  0.00    -0.201 OA
HETATM   10  O   UNK N   1      20.273  18.391   3.510  0.00  0.00    -0.201 OA
BRANCH   8  11
HETATM   11  N   UNK N   1      20.405  19.961   1.410  0.00  0.00    -0.324 N 
HETATM   12  H   UNK N   1      19.452  19.890   1.052  0.00  0.00     0.169 HD
HETATM   13  H   UNK N   1      21.115  20.233   0.731  0.00  0.00     0.169 HD
ENDBRANCH   8  11
ENDBRANCH   1   8
TORSDOF 2
ENDMDL
MODEL 8
REMARK VINA RESULT:      -4.5      1.956      2.619
REMARK  2 active torsions:
REMARK  status: ('A' for Active; 'I' for Inactive)
REMARK    1  A    between atoms: N_1  and  S_2 
REMARK    2  A    between atoms: S_2  and  C_5 
ROOT
HETATM    1  C   UNK N   1      22.511  12.572   9.543  0.00  0.00     0.079 A 
HETATM    2  C   UNK N   1      23.813  12.334   9.999  0.00  0.00     0.028 A 
HETATM    3  C   UNK N   1      24.037  12.020  11.343  0.00  0.00     0.044 A 
HETATM    4  C   UNK N   1      22.959  11.939  12.231  0.00  0.00     0.116 A 
HETATM    5  F   UNK N   1      23.174  11.612  13.528  0.00  0.00    -0.206 F 
HETATM    6  C   UNK N   1      21.659  12.186  11.778  0.00  0.00     0.044 A 
HETATM    7  C   UNK N   1      21.435  12.500  10.433  0.00  0.00     0.028 A 
ENDROOT
BRANCH   1   8
HETATM    8  S   UNK N   1      22.219  12.886   7.809  0.00  0.00     0.256 S 
HETATM    9  O   UNK N   1      20.855  12.345   7.354  0.00  0.00    -0.201 OA
HETATM   10  O   UNK N   1      23.191  12.147   6.876  0.00  0.00    -0.201 OA
BRANCH   8  11
HETATM   11  N   UNK N   1      22.240  14.563   7.261  0.00  0.00    -0.324 N 
HETATM   12  H   UNK N   1      22.380  15.409   7.813  0.00  0.00     0.169 HD
HETATM   13  H   UNK N   1      22.092  14.705   6.262  0.00  0.00     0.169 HD
ENDBRANCH   8  11
ENDBRANCH   1   8
TORSDOF 2
ENDMDL
MODEL 9
REMARK VINA RESULT:      -4.5     19.785     20.679
REMARK  2 active torsions:
REMARK  status: ('A' for Active; 'I' for Inactive)
REMARK    1  A    between atoms: N_1  and  S_2 
REMARK    2  A    between atoms: S_2  and  C_5 
ROOT
HETATM    1  C   UNK N   1      26.451  26.562  -4.620  0.00  0.00     0.079 A 
HETATM    2  C   UNK N   1      27.038  27.196  -5.721  0.00  0.00     0.028 A 
HETATM    3  C   UNK N   1      27.169  28.588  -5.739  0.00  0.00     0.044 A 
HETATM    4  C   UNK N   1      26.718  29.347  -4.655  0.00  0.00     0.116 A 
HETATM    5  F   UNK N   1      26.866  30.693  -4.662  0.00  0.00    -0.206 F 
HETATM    6  C   UNK N   1      26.124  28.714  -3.557  0.00  0.00     0.044 A 
HETATM    7  C   UNK N   1      25.993  27.322  -3.539  0.00  0.00     0.028 A 
ENDROOT
BRANCH   1   8
HETATM    8  S   UNK N   1      26.366  24.778  -4.561  0.00  0.00     0.256 S 
HETATM    9  O   UNK N   1      25.105  24.245  -5.256  0.00  0.00    -0.201 OA
HETATM   10  O   UNK N   1      26.218  24.216  -3.139  0.00  0.00    -0.201 OA
BRANCH   8  11
HETATM   11  N   UNK N   1      27.694  23.867  -5.282  0.00  0.00    -0.324 N 
HETATM   12  H   UNK N   1      27.899  23.718  -6.270  0.00  0.00     0.169 HD
HETATM   13  H   UNK N   1      28.340  23.432  -4.624  0.00  0.00     0.169 HD
ENDBRANCH   8  11
ENDBRANCH   1   8
TORSDOF 2
ENDMDL
