MODEL 1
REMARK VINA RESULT:      -7.3      0.000      0.000
REMARK  10 active torsions:
REMARK  status: ('A' for Active; 'I' for Inactive)
REMARK    1  A    between atoms: C_2  and  O_3 
REMARK    2  A    between atoms: C_2  and  C_4 
REMARK    3  A    between atoms: C_4  and  N_5 
REMARK    4  A    between atoms: C_4  and  C_6 
REMARK    5  A    between atoms: C_9  and  C_10 
REMARK    6  A    between atoms: C_10  and  C_11 
REMARK    7  A    between atoms: C_18  and  N_19 
REMARK    8  A    between atoms: N_23  and  C_24 
REMARK    9  A    between atoms: C_24  and  C_25 
REMARK   10  A    between atoms: C_25  and  O_26 
ROOT
HETATM    1  C   UNK N   1      32.442  15.570   7.645  0.00  0.00     0.112 A 
HETATM    2  N   UNK N   1      31.253  15.368   7.180  0.00  0.00    -0.339 N 
ATOM      3  HN  UNK N   1      30.948  14.557   6.642  1.00  0.00     0.167 HD
HETATM    4  C   UNK N   1      30.452  16.472   7.549  0.00  0.00     0.103 A 
HETATM    5  C   UNK N   1      31.303  17.367   8.303  0.00  0.00     0.276 A 
HETATM    6  O   UNK N   1      30.991  18.455   8.761  0.00  0.00    -0.265 OA
HETATM    7  N   UNK N   1      32.533  16.809   8.354  0.00  0.00    -0.290 N 
ENDROOT
BRANCH   4   8
HETATM    8  C   UNK N   1      29.193  16.698   7.148  0.00  0.00     0.049 C 
BRANCH   8   9
HETATM    9  C   UNK N   1      28.846  17.575   6.013  0.00  0.00    -0.004 A 
HETATM   10  C   UNK N   1      29.143  17.375   4.667  0.00  0.00     0.101 A 
HETATM   11  N   UNK N   1      28.680  18.420   3.936  0.00  0.00    -0.364 N 
HETATM   12  C   UNK N   1      28.110  19.265   4.813  0.00  0.00     0.045 A 
HETATM   13  H   UNK N   1      28.748  18.536   2.961  0.00  0.00     0.165 HD
HETATM   14  C   UNK N   1      27.516  20.491   4.521  0.00  0.00     0.030 A 
HETATM   15  C   UNK N   1      28.189  18.782   6.090  0.00  0.00     0.028 A 
HETATM   16  C   UNK N   1      26.990  21.238   5.592  0.00  0.00     0.005 A 
HETATM   17  C   UNK N   1      27.069  20.746   6.914  0.00  0.00     0.030 A 
HETATM   18  C   UNK N   1      27.674  19.503   7.173  0.00  0.00     0.039 A 
BRANCH  18  19
HETATM   19  N   UNK N   1      27.762  19.014   8.492  0.00  0.00    -0.398 N 
HETATM   20  H   UNK N   1      27.808  18.045   8.656  0.00  0.00     0.156 HD
HETATM   21  H   UNK N   1      27.778  19.643   9.250  0.00  0.00     0.156 HD
ENDBRANCH  18  19
ENDBRANCH   8   9
ENDBRANCH   4   8
BRANCH   1  22
HETATM   22  C   UNK N   1      33.586  14.606   7.374  0.00  0.00     0.171 C 
BRANCH  22  23
HETATM   23  C   UNK N   1      33.628  13.416   8.346  0.00  0.00     0.143 C 
HETATM   24  C   UNK N   1      34.733  13.577   9.378  0.00  0.00     0.042 C 
BRANCH  23  25
HETATM   25  O   UNK N   1      32.423  13.303   9.036  0.00  0.00    -0.393 OA
HETATM   26  H   UNK N   1      31.698  13.921   8.850  0.00  0.00     0.210 HD
ENDBRANCH  23  25
ENDBRANCH  22  23
BRANCH  22  27
HETATM   27  N   UNK N   1      33.478  14.114   6.005  0.00  0.00    -0.418 N 
HETATM   28  H   UNK N   1      34.304  13.775   5.511  0.00  0.00     0.150 HD
HETATM   29  H   UNK N   1      32.572  14.109   5.537  0.00  0.00     0.150 HD
ENDBRANCH  22  27
ENDBRANCH   1  22
BRANCH   7  30
HETATM   30  C   UNK N   1      33.753  17.360   8.928  0.00  0.00     0.243 C 
BRANCH  30  31
HETATM   31  C   UNK N   1      34.537  18.263   8.024  0.00  0.00     0.158 C 
HETATM   32  O   UNK N   1      35.212  19.161   8.500  0.00  0.00    -0.649 OA
BRANCH  31  33
HETATM   33  O   UNK N   1      34.464  18.114   6.687  0.00  0.00    -0.775 OA
HETATM   34  H   UNK N   1      34.195  18.250   5.800  0.00  0.00     0.167 HD
ENDBRANCH  31  33
ENDBRANCH  30  31
ENDBRANCH   7  30
TORSDOF 10
ENDMDL
MODEL 2
REMARK VINA RESULT:      -7.3      4.719      8.530
REMARK  10 active torsions:
REMARK  status: ('A' for Active; 'I' for Inactive)
REMARK    1  A    between atoms: C_2  and  O_3 
REMARK    2  A    between atoms: C_2  and  C_4 
REMARK    3  A    between atoms: C_4  and  N_5 
REMARK    4  A    between atoms: C_4  and  C_6 
REMARK    5  A    between atoms: C_9  and  C_10 
REMARK    6  A    between atoms: C_10  and  C_11 
REMARK    7  A    between atoms: C_18  and  N_19 
REMARK    8  A    between atoms: N_23  and  C_24 
REMARK    9  A    between atoms: C_24  and  C_25 
REMARK   10  A    between atoms: C_25  and  O_26 
ROOT
HETATM    1  C   UNK N   1      34.299  14.908   8.271  0.00  0.00     0.112 A 
HETATM    2  N   UNK N   1      34.909  13.873   8.750  0.00  0.00    -0.339 N 
ATOM      3  HN  UNK N   1      34.958  12.951   8.316  1.00  0.00     0.167 HD
HETATM    4  C   UNK N   1      35.494  14.248   9.980  0.00  0.00     0.103 A 
HETATM    5  C   UNK N   1      35.169  15.642  10.186  0.00  0.00     0.276 A 
HETATM    6  O   UNK N   1      35.459  16.322  11.157  0.00  0.00    -0.265 OA
HETATM    7  N   UNK N   1      34.425  16.045   9.131  0.00  0.00    -0.290 N 
ENDROOT
BRANCH   4   8
HETATM    8  C   UNK N   1      36.104  13.423  10.842  0.00  0.00     0.049 C 
BRANCH   8   9
HETATM    9  C   UNK N   1      35.378  12.525  11.762  0.00  0.00    -0.004 A 
HETATM   10  C   UNK N   1      34.616  11.407  11.428  0.00  0.00     0.101 A 
HETATM   11  N   UNK N   1      34.084  10.864  12.551  0.00  0.00    -0.364 N 
HETATM   12  C   UNK N   1      34.499  11.636  13.571  0.00  0.00     0.045 A 
HETATM   13  H   UNK N   1      33.510  10.066  12.608  0.00  0.00     0.165 HD
HETATM   14  C   UNK N   1      34.182  11.474  14.918  0.00  0.00     0.030 A 
HETATM   15  C   UNK N   1      35.292  12.658  13.129  0.00  0.00     0.028 A 
HETATM   16  C   UNK N   1      34.706  12.408  15.832  0.00  0.00     0.005 A 
HETATM   17  C   UNK N   1      35.525  13.467  15.383  0.00  0.00     0.030 A 
HETATM   18  C   UNK N   1      35.827  13.599  14.016  0.00  0.00     0.039 A 
BRANCH  18  19
HETATM   19  N   UNK N   1      36.637  14.661  13.564  0.00  0.00    -0.398 N 
HETATM   20  H   UNK N   1      37.567  14.739  13.877  0.00  0.00     0.156 HD
HETATM   21  H   UNK N   1      36.272  15.324  12.935  0.00  0.00     0.156 HD
ENDBRANCH  18  19
ENDBRANCH   8   9
ENDBRANCH   4   8
BRANCH   1  22
HETATM   22  C   UNK N   1      33.497  14.844   6.981  0.00  0.00     0.171 C 
BRANCH  22  23
HETATM   23  C   UNK N   1      34.369  14.852   5.716  0.00  0.00     0.143 C 
HETATM   24  C   UNK N   1      33.677  15.566   4.566  0.00  0.00     0.042 C 
BRANCH  23  25
HETATM   25  O   UNK N   1      35.574  15.509   5.955  0.00  0.00    -0.393 OA
HETATM   26  H   UNK N   1      36.031  15.391   6.803  0.00  0.00     0.210 HD
ENDBRANCH  23  25
ENDBRANCH  22  23
BRANCH  22  27
HETATM   27  N   UNK N   1      32.669  13.642   6.996  0.00  0.00    -0.418 N 
HETATM   28  H   UNK N   1      32.807  12.929   7.713  0.00  0.00     0.150 HD
HETATM   29  H   UNK N   1      31.948  13.513   6.286  0.00  0.00     0.150 HD
ENDBRANCH  22  27
ENDBRANCH   1  22
BRANCH   7  30
HETATM   30  C   UNK N   1      33.788  17.336   8.914  0.00  0.00     0.243 C 
BRANCH  30  31
HETATM   31  C   UNK N   1      34.551  18.290   8.045  0.00  0.00     0.158 C 
HETATM   32  O   UNK N   1      34.500  18.178   6.832  0.00  0.00    -0.649 OA
BRANCH  31  33
HETATM   33  O   UNK N   1      35.325  19.242   8.600  0.00  0.00    -0.775 OA
HETATM   34  H   UNK N   1      35.759  19.751   9.256  0.00  0.00     0.167 HD
ENDBRANCH  31  33
ENDBRANCH  30  31
ENDBRANCH   7  30
TORSDOF 10
ENDMDL
MODEL 3
REMARK VINA RESULT:      -6.9      6.231     10.077
REMARK  10 active torsions:
REMARK  status: ('A' for Active; 'I' for Inactive)
REMARK    1  A    between atoms: C_2  and  O_3 
REMARK    2  A    between atoms: C_2  and  C_4 
REMARK    3  A    between atoms: C_4  and  N_5 
REMARK    4  A    between atoms: C_4  and  C_6 
REMARK    5  A    between atoms: C_9  and  C_10 
REMARK    6  A    between atoms: C_10  and  C_11 
REMARK    7  A    between atoms: C_18  and  N_19 
REMARK    8  A    between atoms: N_23  and  C_24 
REMARK    9  A    between atoms: C_24  and  C_25 
REMARK   10  A    between atoms: C_25  and  O_26 
ROOT
HETATM    1  C   UNK N   1      22.591  19.008   4.062  0.00  0.00     0.112 A 
HETATM    2  N   UNK N   1      23.770  18.648   4.454  0.00  0.00    -0.339 N 
ATOM      3  HN  UNK N   1      23.982  17.892   5.105  1.00  0.00     0.167 HD
HETATM    4  C   UNK N   1      24.711  19.490   3.819  0.00  0.00     0.103 A 
HETATM    5  C   UNK N   1      23.956  20.402   2.988  0.00  0.00     0.276 A 
HETATM    6  O   UNK N   1      24.406  21.312   2.310  0.00  0.00    -0.265 OA
HETATM    7  N   UNK N   1      22.646  20.105   3.146  0.00  0.00    -0.290 N 
ENDROOT
BRANCH   4   8
HETATM    8  C   UNK N   1      26.028  19.518   4.062  0.00  0.00     0.049 C 
BRANCH   8   9
HETATM    9  C   UNK N   1      26.604  19.619   5.418  0.00  0.00    -0.004 A 
HETATM   10  C   UNK N   1      26.312  20.572   6.392  0.00  0.00     0.101 A 
HETATM   11  N   UNK N   1      27.070  20.345   7.495  0.00  0.00    -0.364 N 
HETATM   12  C   UNK N   1      27.830  19.273   7.211  0.00  0.00     0.045 A 
HETATM   13  H   UNK N   1      27.064  20.862   8.332  0.00  0.00     0.165 HD
HETATM   14  C   UNK N   1      28.782  18.686   8.041  0.00  0.00     0.030 A 
HETATM   15  C   UNK N   1      27.572  18.801   5.953  0.00  0.00     0.028 A 
HETATM   16  C   UNK N   1      29.489  17.575   7.545  0.00  0.00     0.005 A 
HETATM   17  C   UNK N   1      29.229  17.081   6.248  0.00  0.00     0.030 A 
HETATM   18  C   UNK N   1      28.259  17.697   5.437  0.00  0.00     0.039 A 
BRANCH  18  19
HETATM   19  N   UNK N   1      28.004  17.212   4.138  0.00  0.00    -0.398 N 
HETATM   20  H   UNK N   1      27.089  17.232   3.776  0.00  0.00     0.156 HD
HETATM   21  H   UNK N   1      28.741  16.854   3.593  0.00  0.00     0.156 HD
ENDBRANCH  18  19
ENDBRANCH   8   9
ENDBRANCH   4   8
BRANCH   1  22
HETATM   22  C   UNK N   1      21.330  18.355   4.605  0.00  0.00     0.171 C 
BRANCH  22  23
HETATM   23  C   UNK N   1      21.052  16.967   4.005  0.00  0.00     0.143 C 
HETATM   24  C   UNK N   1      19.562  16.731   3.812  0.00  0.00     0.042 C 
BRANCH  23  25
HETATM   25  O   UNK N   1      21.662  16.840   2.759  0.00  0.00    -0.393 OA
HETATM   26  H   UNK N   1      21.459  16.077   2.195  0.00  0.00     0.210 HD
ENDBRANCH  23  25
ENDBRANCH  22  23
BRANCH  22  27
HETATM   27  N   UNK N   1      21.437  18.247   6.056  0.00  0.00    -0.418 N 
HETATM   28  H   UNK N   1      20.607  18.071   6.623  0.00  0.00     0.150 HD
HETATM   29  H   UNK N   1      22.346  18.348   6.507  0.00  0.00     0.150 HD
ENDBRANCH  22  27
ENDBRANCH   1  22
BRANCH   7  30
HETATM   30  C   UNK N   1      21.490  20.790   2.586  0.00  0.00     0.243 C 
BRANCH  30  31
HETATM   31  C   UNK N   1      21.000  20.255   1.274  0.00  0.00     0.158 C 
HETATM   32  O   UNK N   1      21.191  20.892   0.251  0.00  0.00    -0.649 OA
BRANCH  31  33
HETATM   33  O   UNK N   1      20.313  19.099   1.227  0.00  0.00    -0.775 OA
HETATM   34  H   UNK N   1      20.036  18.250   0.941  0.00  0.00     0.167 HD
ENDBRANCH  31  33
ENDBRANCH  30  31
ENDBRANCH   7  30
TORSDOF 10
ENDMDL
MODEL 4
REMARK VINA RESULT:      -6.6      6.387      9.965
REMARK  10 active torsions:
REMARK  status: ('A' for Active; 'I' for Inactive)
REMARK    1  A    between atoms: C_2  and  O_3 
REMARK    2  A    between atoms: C_2  and  C_4 
REMARK    3  A    between atoms: C_4  and  N_5 
REMARK    4  A    between atoms: C_4  and  C_6 
REMARK    5  A    between atoms: C_9  and  C_10 
REMARK    6  A    between atoms: C_10  and  C_11 
REMARK    7  A    between atoms: C_18  and  N_19 
REMARK    8  A    between atoms: N_23  and  C_24 
REMARK    9  A    between atoms: C_24  and  C_25 
REMARK   10  A    between atoms: C_25  and  O_26 
ROOT
HETATM    1  C   UNK N   1      22.505  18.842   4.220  0.00  0.00     0.112 A 
HETATM    2  N   UNK N   1      23.712  18.590   4.610  0.00  0.00    -0.339 N 
ATOM      3  HN  UNK N   1      23.988  17.884   5.293  1.00  0.00     0.167 HD
HETATM    4  C   UNK N   1      24.579  19.468   3.921  0.00  0.00     0.103 A 
HETATM    5  C   UNK N   1      23.748  20.279   3.059  0.00  0.00     0.276 A 
HETATM    6  O   UNK N   1      24.120  21.187   2.333  0.00  0.00    -0.265 OA
HETATM    7  N   UNK N   1      22.466  19.894   3.252  0.00  0.00    -0.290 N 
ENDROOT
BRANCH   4   8
HETATM    8  C   UNK N   1      25.893  19.605   4.142  0.00  0.00     0.049 C 
BRANCH   8   9
HETATM    9  C   UNK N   1      26.774  18.486   4.533  0.00  0.00    -0.004 A 
HETATM   10  C   UNK N   1      27.047  17.330   3.806  0.00  0.00     0.101 A 
HETATM   11  N   UNK N   1      27.880  16.529   4.516  0.00  0.00    -0.364 N 
HETATM   12  C   UNK N   1      28.118  17.170   5.674  0.00  0.00     0.045 A 
HETATM   13  H   UNK N   1      28.238  15.654   4.240  0.00  0.00     0.165 HD
HETATM   14  C   UNK N   1      28.906  16.717   6.729  0.00  0.00     0.030 A 
HETATM   15  C   UNK N   1      27.462  18.370   5.720  0.00  0.00     0.028 A 
HETATM   16  C   UNK N   1      29.011  17.537   7.869  0.00  0.00     0.005 A 
HETATM   17  C   UNK N   1      28.337  18.777   7.924  0.00  0.00     0.030 A 
HETATM   18  C   UNK N   1      27.551  19.205   6.839  0.00  0.00     0.039 A 
BRANCH  18  19
HETATM   19  N   UNK N   1      26.869  20.437   6.895  0.00  0.00    -0.398 N 
HETATM   20  H   UNK N   1      26.538  20.855   6.067  0.00  0.00     0.156 HD
HETATM   21  H   UNK N   1      26.724  20.880   7.762  0.00  0.00     0.156 HD
ENDBRANCH  18  19
ENDBRANCH   8   9
ENDBRANCH   4   8
BRANCH   1  22
HETATM   22  C   UNK N   1      21.303  18.123   4.813  0.00  0.00     0.171 C 
BRANCH  22  23
HETATM   23  C   UNK N   1      20.730  17.029   3.898  0.00  0.00     0.143 C 
HETATM   24  C   UNK N   1      20.629  15.694   4.620  0.00  0.00     0.042 C 
BRANCH  23  25
HETATM   25  O   UNK N   1      19.451  17.371   3.465  0.00  0.00    -0.393 OA
HETATM   26  H   UNK N   1      19.170  17.155   2.562  0.00  0.00     0.210 HD
ENDBRANCH  23  25
ENDBRANCH  22  23
BRANCH  22  27
HETATM   27  N   UNK N   1      21.683  17.538   6.094  0.00  0.00    -0.418 N 
HETATM   28  H   UNK N   1      20.973  17.322   6.794  0.00  0.00     0.150 HD
HETATM   29  H   UNK N   1      22.665  17.344   6.293  0.00  0.00     0.150 HD
ENDBRANCH  22  27
ENDBRANCH   1  22
BRANCH   7  30
HETATM   30  C   UNK N   1      21.255  20.462   2.679  0.00  0.00     0.243 C 
BRANCH  30  31
HETATM   31  C   UNK N   1      20.954  20.045   1.271  0.00  0.00     0.158 C 
HETATM   32  O   UNK N   1      21.322  20.742   0.340  0.00  0.00    -0.649 OA
BRANCH  31  33
HETATM   33  O   UNK N   1      20.241  18.928   1.032  0.00  0.00    -0.775 OA
HETATM   34  H   UNK N   1      19.815  18.107   1.183  0.00  0.00     0.167 HD
ENDBRANCH  31  33
ENDBRANCH  30  31
ENDBRANCH   7  30
TORSDOF 10
ENDMDL
MODEL 5
REMARK VINA RESULT:      -6.5      9.594     11.820
REMARK  10 active torsions:
REMARK  status: ('A' for Active; 'I' for Inactive)
REMARK    1  A    between atoms: C_2  and  O_3 
REMARK    2  A    between atoms: C_2  and  C_4 
REMARK    3  A    between atoms: C_4  and  N_5 
REMARK    4  A    between atoms: C_4  and  C_6 
REMARK    5  A    between atoms: C_9  and  C_10 
REMARK    6  A    between atoms: C_10  and  C_11 
REMARK    7  A    between atoms: C_18  and  N_19 
REMARK    8  A    between atoms: N_23  and  C_24 
REMARK    9  A    between atoms: C_24  and  C_25 
REMARK   10  A    between atoms: C_25  and  O_26 
ROOT
HETATM    1  C   UNK N   1      21.091  16.942   2.882  0.00  0.00     0.112 A 
HETATM    2  N   UNK N   1      21.667  16.326   3.862  0.00  0.00    -0.339 N 
ATOM      3  HN  UNK N   1      21.987  15.357   3.858  1.00  0.00     0.167 HD
HETATM    4  C   UNK N   1      21.773  17.234   4.939  0.00  0.00     0.103 A 
HETATM    5  C   UNK N   1      21.196  18.481   4.488  0.00  0.00     0.276 A 
HETATM    6  O   UNK N   1      21.061  19.501   5.144  0.00  0.00    -0.265 OA
HETATM    7  N   UNK N   1      20.769  18.294   3.218  0.00  0.00    -0.290 N 
ENDROOT
BRANCH   4   8
HETATM    8  C   UNK N   1      22.198  16.939   6.175  0.00  0.00     0.049 C 
BRANCH   8   9
HETATM    9  C   UNK N   1      21.306  16.450   7.246  0.00  0.00    -0.004 A 
HETATM   10  C   UNK N   1      20.203  17.103   7.793  0.00  0.00     0.101 A 
HETATM   11  N   UNK N   1      19.662  16.340   8.776  0.00  0.00    -0.364 N 
HETATM   12  C   UNK N   1      20.420  15.232   8.850  0.00  0.00     0.045 A 
HETATM   13  H   UNK N   1      18.874  16.556   9.325  0.00  0.00     0.165 HD
HETATM   14  C   UNK N   1      20.256  14.169   9.735  0.00  0.00     0.030 A 
HETATM   15  C   UNK N   1      21.433  15.262   7.930  0.00  0.00     0.028 A 
HETATM   16  C   UNK N   1      21.175  13.106   9.661  0.00  0.00     0.005 A 
HETATM   17  C   UNK N   1      22.223  13.129   8.714  0.00  0.00     0.030 A 
HETATM   18  C   UNK N   1      22.359  14.218   7.834  0.00  0.00     0.039 A 
BRANCH  18  19
HETATM   19  N   UNK N   1      23.409  14.249   6.895  0.00  0.00    -0.398 N 
HETATM   20  H   UNK N   1      23.553  15.051   6.343  0.00  0.00     0.156 HD
HETATM   21  H   UNK N   1      23.999  13.468   6.790  0.00  0.00     0.156 HD
ENDBRANCH  18  19
ENDBRANCH   8   9
ENDBRANCH   4   8
BRANCH   1  22
HETATM   22  C   UNK N   1      20.754  16.238   1.577  0.00  0.00     0.171 C 
BRANCH  22  23
HETATM   23  C   UNK N   1      21.297  14.802   1.497  0.00  0.00     0.143 C 
HETATM   24  C   UNK N   1      20.269  13.848   0.909  0.00  0.00     0.042 C 
BRANCH  23  25
HETATM   25  O   UNK N   1      22.429  14.750   0.687  0.00  0.00    -0.393 OA
HETATM   26  H   UNK N   1      22.349  14.895  -0.269  0.00  0.00     0.210 HD
ENDBRANCH  23  25
ENDBRANCH  22  23
BRANCH  22  27
HETATM   27  N   UNK N   1      19.305  16.221   1.407  0.00  0.00    -0.418 N 
HETATM   28  H   UNK N   1      18.889  16.438   0.500  0.00  0.00     0.150 HD
HETATM   29  H   UNK N   1      18.703  15.992   2.198  0.00  0.00     0.150 HD
ENDBRANCH  22  27
ENDBRANCH   1  22
BRANCH   7  30
HETATM   30  C   UNK N   1      20.048  19.224   2.360  0.00  0.00     0.243 C 
BRANCH  30  31
HETATM   31  C   UNK N   1      20.902  20.042   1.439  0.00  0.00     0.158 C 
HETATM   32  O   UNK N   1      21.773  20.761   1.898  0.00  0.00    -0.649 OA
BRANCH  31  33
HETATM   33  O   UNK N   1      20.681  20.018   0.111  0.00  0.00    -0.775 OA
HETATM   34  H   UNK N   1      20.745  20.245  -0.796  0.00  0.00     0.167 HD
ENDBRANCH  31  33
ENDBRANCH  30  31
ENDBRANCH   7  30
TORSDOF 10
ENDMDL
MODEL 6
REMARK VINA RESULT:      -6.4      2.666      4.298
REMARK  10 active torsions:
REMARK  status: ('A' for Active; 'I' for Inactive)
REMARK    1  A    between atoms: C_2  and  O_3 
REMARK    2  A    between atoms: C_2  and  C_4 
REMARK    3  A    between atoms: C_4  and  N_5 
REMARK    4  A    between atoms: C_4  and  C_6 
REMARK    5  A    between atoms: C_9  and  C_10 
REMARK    6  A    between atoms: C_10  and  C_11 
REMARK    7  A    between atoms: C_18  and  N_19 
REMARK    8  A    between atoms: N_23  and  C_24 
REMARK    9  A    between atoms: C_24  and  C_25 
REMARK   10  A    between atoms: C_25  and  O_26 
ROOT
HETATM    1  C   UNK N   1      34.675  14.334   9.323  0.00  0.00     0.112 A 
HETATM    2  N   UNK N   1      33.947  15.070   8.548  0.00  0.00    -0.339 N 
ATOM      3  HN  UNK N   1      33.305  14.734   7.829  1.00  0.00     0.167 HD
HETATM    4  C   UNK N   1      34.200  16.421   8.874  0.00  0.00     0.103 A 
HETATM    5  C   UNK N   1      35.167  16.413   9.949  0.00  0.00     0.276 A 
HETATM    6  O   UNK N   1      35.673  17.389  10.481  0.00  0.00    -0.265 OA
HETATM    7  N   UNK N   1      35.463  15.122  10.219  0.00  0.00    -0.290 N 
ENDROOT
BRANCH   4   8
HETATM    8  C   UNK N   1      33.734  17.488   8.212  0.00  0.00     0.049 C 
BRANCH   8   9
HETATM    9  C   UNK N   1      32.977  17.394   6.947  0.00  0.00    -0.004 A 
HETATM   10  C   UNK N   1      33.488  17.412   5.651  0.00  0.00     0.101 A 
HETATM   11  N   UNK N   1      32.470  17.333   4.758  0.00  0.00    -0.364 N 
HETATM   12  C   UNK N   1      31.339  17.277   5.483  0.00  0.00     0.045 A 
HETATM   13  H   UNK N   1      32.545  17.321   3.776  0.00  0.00     0.165 HD
HETATM   14  C   UNK N   1      30.038  17.210   4.992  0.00  0.00     0.030 A 
HETATM   15  C   UNK N   1      31.608  17.310   6.824  0.00  0.00     0.028 A 
HETATM   16  C   UNK N   1      28.984  17.179   5.924  0.00  0.00     0.005 A 
HETATM   17  C   UNK N   1      29.254  17.212   7.310  0.00  0.00     0.030 A 
HETATM   18  C   UNK N   1      30.580  17.278   7.773  0.00  0.00     0.039 A 
BRANCH  18  19
HETATM   19  N   UNK N   1      30.852  17.321   9.155  0.00  0.00    -0.398 N 
HETATM   20  H   UNK N   1      30.505  16.616   9.748  0.00  0.00     0.156 HD
HETATM   21  H   UNK N   1      31.390  18.057   9.528  0.00  0.00     0.156 HD
ENDBRANCH  18  19
ENDBRANCH   8   9
ENDBRANCH   4   8
BRANCH   1  22
HETATM   22  C   UNK N   1      34.704  12.819   9.198  0.00  0.00     0.171 C 
BRANCH  22  23
HETATM   23  C   UNK N   1      33.380  12.219   8.698  0.00  0.00     0.143 C 
HETATM   24  C   UNK N   1      33.316  10.721   8.949  0.00  0.00     0.042 C 
BRANCH  23  25
HETATM   25  O   UNK N   1      32.299  12.801   9.355  0.00  0.00    -0.393 OA
HETATM   26  H   UNK N   1      31.835  13.554   8.955  0.00  0.00     0.210 HD
ENDBRANCH  23  25
ENDBRANCH  22  23
BRANCH  22  27
HETATM   27  N   UNK N   1      35.784  12.437   8.295  0.00  0.00    -0.418 N 
HETATM   28  H   UNK N   1      36.644  12.985   8.257  0.00  0.00     0.150 HD
HETATM   29  H   UNK N   1      35.680  11.617   7.697  0.00  0.00     0.150 HD
ENDBRANCH  22  27
ENDBRANCH   1  22
BRANCH   7  30
HETATM   30  C   UNK N   1      36.442  14.596  11.160  0.00  0.00     0.243 C 
BRANCH  30  31
HETATM   31  C   UNK N   1      35.966  14.466  12.576  0.00  0.00     0.158 C 
HETATM   32  O   UNK N   1      34.867  13.989  12.805  0.00  0.00    -0.649 OA
BRANCH  31  33
HETATM   33  O   UNK N   1      36.729  14.913  13.591  0.00  0.00    -0.775 OA
HETATM   34  H   UNK N   1      37.334  15.445  14.069  0.00  0.00     0.167 HD
ENDBRANCH  31  33
ENDBRANCH  30  31
ENDBRANCH   7  30
TORSDOF 10
ENDMDL
MODEL 7
REMARK VINA RESULT:      -6.4      4.917      9.427
REMARK  10 active torsions:
REMARK  status: ('A' for Active; 'I' for Inactive)
REMARK    1  A    between atoms: C_2  and  O_3 
REMARK    2  A    between atoms: C_2  and  C_4 
REMARK    3  A    between atoms: C_4  and  N_5 
REMARK    4  A    between atoms: C_4  and  C_6 
REMARK    5  A    between atoms: C_9  and  C_10 
REMARK    6  A    between atoms: C_10  and  C_11 
REMARK    7  A    between atoms: C_18  and  N_19 
REMARK    8  A    between atoms: N_23  and  C_24 
REMARK    9  A    between atoms: C_24  and  C_25 
REMARK   10  A    between atoms: C_25  and  O_26 
ROOT
HETATM    1  C   UNK N   1      34.220  14.674   9.011  0.00  0.00     0.112 A 
HETATM    2  N   UNK N   1      35.012  13.792   9.527  0.00  0.00    -0.339 N 
ATOM      3  HN  UNK N   1      34.940  12.781   9.415  1.00  0.00     0.167 HD
HETATM    4  C   UNK N   1      35.995  14.479  10.274  0.00  0.00     0.103 A 
HETATM    5  C   UNK N   1      35.705  15.890  10.142  0.00  0.00     0.276 A 
HETATM    6  O   UNK N   1      36.303  16.810  10.676  0.00  0.00    -0.265 OA
HETATM    7  N   UNK N   1      34.603  16.006   9.365  0.00  0.00    -0.290 N 
ENDROOT
BRANCH   4   8
HETATM    8  C   UNK N   1      36.920  13.914  11.061  0.00  0.00     0.049 C 
BRANCH   8   9
HETATM    9  C   UNK N   1      36.689  13.587  12.483  0.00  0.00    -0.004 A 
HETATM   10  C   UNK N   1      36.198  14.431  13.476  0.00  0.00     0.101 A 
HETATM   11  N   UNK N   1      36.158  13.769  14.660  0.00  0.00    -0.364 N 
HETATM   12  C   UNK N   1      36.626  12.534  14.413  0.00  0.00     0.045 A 
HETATM   13  H   UNK N   1      35.849  14.124  15.525  0.00  0.00     0.165 HD
HETATM   14  C   UNK N   1      36.789  11.505  15.338  0.00  0.00     0.030 A 
HETATM   15  C   UNK N   1      36.958  12.384  13.095  0.00  0.00     0.028 A 
HETATM   16  C   UNK N   1      37.316  10.284  14.877  0.00  0.00     0.005 A 
HETATM   17  C   UNK N   1      37.662  10.122  13.517  0.00  0.00     0.030 A 
HETATM   18  C   UNK N   1      37.482  11.181  12.609  0.00  0.00     0.039 A 
BRANCH  18  19
HETATM   19  N   UNK N   1      37.835  11.024  11.253  0.00  0.00    -0.398 N 
HETATM   20  H   UNK N   1      37.151  11.120  10.552  0.00  0.00     0.156 HD
HETATM   21  H   UNK N   1      38.766  10.819  11.008  0.00  0.00     0.156 HD
ENDBRANCH  18  19
ENDBRANCH   8   9
ENDBRANCH   4   8
BRANCH   1  22
HETATM   22  C   UNK N   1      33.000  14.280   8.195  0.00  0.00     0.171 C 
BRANCH  22  23
HETATM   23  C   UNK N   1      33.348  13.644   6.839  0.00  0.00     0.143 C 
HETATM   24  C   UNK N   1      34.301  14.519   6.040  0.00  0.00     0.042 C 
BRANCH  23  25
HETATM   25  O   UNK N   1      33.965  12.408   7.021  0.00  0.00    -0.393 OA
HETATM   26  H   UNK N   1      34.299  11.915   6.255  0.00  0.00     0.210 HD
ENDBRANCH  23  25
ENDBRANCH  22  23
BRANCH  22  27
HETATM   27  N   UNK N   1      32.187  13.352   8.974  0.00  0.00    -0.418 N 
HETATM   28  H   UNK N   1      31.844  12.487   8.555  0.00  0.00     0.150 HD
HETATM   29  H   UNK N   1      31.958  13.569   9.944  0.00  0.00     0.150 HD
ENDBRANCH  22  27
ENDBRANCH   1  22
BRANCH   7  30
HETATM   30  C   UNK N   1      33.872  17.213   9.008  0.00  0.00     0.243 C 
BRANCH  30  31
HETATM   31  C   UNK N   1      34.581  18.139   8.067  0.00  0.00     0.158 C 
HETATM   32  O   UNK N   1      35.206  19.089   8.507  0.00  0.00    -0.649 OA
BRANCH  31  33
HETATM   33  O   UNK N   1      34.493  17.951   6.736  0.00  0.00    -0.775 OA
HETATM   34  H   UNK N   1      34.273  17.555   5.916  0.00  0.00     0.167 HD
ENDBRANCH  31  33
ENDBRANCH  30  31
ENDBRANCH   7  30
TORSDOF 10
ENDMDL
MODEL 8
REMARK VINA RESULT:      -6.3      1.173      2.160
REMARK  10 active torsions:
REMARK  status: ('A' for Active; 'I' for Inactive)
REMARK    1  A    between atoms: C_2  and  O_3 
REMARK    2  A    between atoms: C_2  and  C_4 
REMARK    3  A    between atoms: C_4  and  N_5 
REMARK    4  A    between atoms: C_4  and  C_6 
REMARK    5  A    between atoms: C_9  and  C_10 
REMARK    6  A    between atoms: C_10  and  C_11 
REMARK    7  A    between atoms: C_18  and  N_19 
REMARK    8  A    between atoms: N_23  and  C_24 
REMARK    9  A    between atoms: C_24  and  C_25 
REMARK   10  A    between atoms: C_25  and  O_26 
ROOT
HETATM    1  C   UNK N   1      32.727  14.973   7.708  0.00  0.00     0.112 A 
HETATM    2  N   UNK N   1      31.457  14.830   7.507  0.00  0.00    -0.339 N 
ATOM      3  HN  UNK N   1      30.929  13.962   7.595  1.00  0.00     0.167 HD
HETATM    4  C   UNK N   1      30.934  16.091   7.144  0.00  0.00     0.103 A 
HETATM    5  C   UNK N   1      32.043  17.019   7.156  0.00  0.00     0.276 A 
HETATM    6  O   UNK N   1      32.006  18.202   6.856  0.00  0.00    -0.265 OA
HETATM    7  N   UNK N   1      33.150  16.323   7.498  0.00  0.00    -0.290 N 
ENDROOT
BRANCH   4   8
HETATM    8  C   UNK N   1      29.681  16.331   6.733  0.00  0.00     0.049 C 
BRANCH   8   9
HETATM    9  C   UNK N   1      28.877  17.478   7.202  0.00  0.00    -0.004 A 
HETATM   10  C   UNK N   1      28.400  17.707   8.491  0.00  0.00     0.101 A 
HETATM   11  N   UNK N   1      27.678  18.855   8.514  0.00  0.00    -0.364 N 
HETATM   12  C   UNK N   1      27.695  19.332   7.257  0.00  0.00     0.045 A 
HETATM   13  H   UNK N   1      27.231  19.256   9.294  0.00  0.00     0.165 HD
HETATM   14  C   UNK N   1      27.064  20.485   6.797  0.00  0.00     0.030 A 
HETATM   15  C   UNK N   1      28.419  18.520   6.428  0.00  0.00     0.028 A 
HETATM   16  C   UNK N   1      27.190  20.802   5.431  0.00  0.00     0.005 A 
HETATM   17  C   UNK N   1      27.936  19.969   4.568  0.00  0.00     0.030 A 
HETATM   18  C   UNK N   1      28.562  18.812   5.067  0.00  0.00     0.039 A 
BRANCH  18  19
HETATM   19  N   UNK N   1      29.299  17.973   4.207  0.00  0.00    -0.398 N 
HETATM   20  H   UNK N   1      29.512  18.270   3.293  0.00  0.00     0.156 HD
HETATM   21  H   UNK N   1      29.601  17.090   4.520  0.00  0.00     0.156 HD
ENDBRANCH  18  19
ENDBRANCH   8   9
ENDBRANCH   4   8
BRANCH   1  22
HETATM   22  C   UNK N   1      33.624  13.794   8.050  0.00  0.00     0.171 C 
BRANCH  22  23
HETATM   23  C   UNK N   1      33.908  13.656   9.555  0.00  0.00     0.143 C 
HETATM   24  C   UNK N   1      35.384  13.852   9.865  0.00  0.00     0.042 C 
BRANCH  23  25
HETATM   25  O   UNK N   1      33.197  14.611  10.277  0.00  0.00    -0.393 OA
HETATM   26  H   UNK N   1      33.155  14.556  11.245  0.00  0.00     0.210 HD
ENDBRANCH  23  25
ENDBRANCH  22  23
BRANCH  22  27
HETATM   27  N   UNK N   1      33.007  12.568   7.555  0.00  0.00    -0.418 N 
HETATM   28  H   UNK N   1      32.859  11.776   8.181  0.00  0.00     0.150 HD
HETATM   29  H   UNK N   1      32.723  12.501   6.578  0.00  0.00     0.150 HD
ENDBRANCH  22  27
ENDBRANCH   1  22
BRANCH   7  30
HETATM   30  C   UNK N   1      34.527  16.791   7.568  0.00  0.00     0.243 C 
BRANCH  30  31
HETATM   31  C   UNK N   1      34.837  17.708   8.713  0.00  0.00     0.158 C 
HETATM   32  O   UNK N   1      34.712  17.310   9.859  0.00  0.00    -0.649 OA
BRANCH  31  33
HETATM   33  O   UNK N   1      35.210  18.981   8.480  0.00  0.00    -0.775 OA
HETATM   34  H   UNK N   1      35.525  19.848   8.640  0.00  0.00     0.167 HD
ENDBRANCH  31  33
ENDBRANCH  30  31
ENDBRANCH   7  30
TORSDOF 10
ENDMDL
MODEL 9
REMARK VINA RESULT:      -6.2      1.692      2.507
REMARK  10 active torsions:
REMARK  status: ('A' for Active; 'I' for Inactive)
REMARK    1  A    between atoms: C_2  and  O_3 
REMARK    2  A    between atoms: C_2  and  C_4 
REMARK    3  A    between atoms: C_4  and  N_5 
REMARK    4  A    between atoms: C_4  and  C_6 
REMARK    5  A    between atoms: C_9  and  C_10 
REMARK    6  A    between atoms: C_10  and  C_11 
REMARK    7  A    between atoms: C_18  and  N_19 
REMARK    8  A    between atoms: N_23  and  C_24 
REMARK    9  A    between atoms: C_24  and  C_25 
REMARK   10  A    between atoms: C_25  and  O_26 
ROOT
HETATM    1  C   UNK N   1      32.554  16.534   8.302  0.00  0.00     0.112 A 
HETATM    2  N   UNK N   1      31.421  17.158   8.265  0.00  0.00    -0.339 N 
ATOM      3  HN  UNK N   1      31.162  17.967   8.830  1.00  0.00     0.167 HD
HETATM    4  C   UNK N   1      30.607  16.517   7.305  0.00  0.00     0.103 A 
HETATM    5  C   UNK N   1      31.390  15.430   6.757  0.00  0.00     0.276 A 
HETATM    6  O   UNK N   1      31.022  14.614   5.927  0.00  0.00    -0.265 OA
HETATM    7  N   UNK N   1      32.589  15.441   7.381  0.00  0.00    -0.290 N 
ENDROOT
BRANCH   4   8
HETATM    8  C   UNK N   1      29.317  16.786   7.064  0.00  0.00     0.049 C 
BRANCH   8   9
HETATM    9  C   UNK N   1      28.858  17.631   5.943  0.00  0.00    -0.004 A 
HETATM   10  C   UNK N   1      29.093  17.435   4.584  0.00  0.00     0.101 A 
HETATM   11  N   UNK N   1      28.531  18.444   3.872  0.00  0.00    -0.364 N 
HETATM   12  C   UNK N   1      27.961  19.264   4.773  0.00  0.00     0.045 A 
HETATM   13  H   UNK N   1      28.539  18.554   2.894  0.00  0.00     0.165 HD
HETATM   14  C   UNK N   1      27.283  20.450   4.506  0.00  0.00     0.030 A 
HETATM   15  C   UNK N   1      28.138  18.800   6.047  0.00  0.00     0.028 A 
HETATM   16  C   UNK N   1      26.774  21.177   5.599  0.00  0.00     0.005 A 
HETATM   17  C   UNK N   1      26.953  20.704   6.918  0.00  0.00     0.030 A 
HETATM   18  C   UNK N   1      27.642  19.501   7.152  0.00  0.00     0.039 A 
BRANCH  18  19
HETATM   19  N   UNK N   1      27.830  19.031   8.468  0.00  0.00    -0.398 N 
HETATM   20  H   UNK N   1      27.347  18.232   8.779  0.00  0.00     0.156 HD
HETATM   21  H   UNK N   1      28.444  19.503   9.076  0.00  0.00     0.156 HD
ENDBRANCH  18  19
ENDBRANCH   8   9
ENDBRANCH   4   8
BRANCH   1  22
HETATM   22  C   UNK N   1      33.651  16.918   9.282  0.00  0.00     0.171 C 
BRANCH  22  23
HETATM   23  C   UNK N   1      34.188  15.731  10.098  0.00  0.00     0.143 C 
HETATM   24  C   UNK N   1      35.331  16.151  11.008  0.00  0.00     0.042 C 
BRANCH  23  25
HETATM   25  O   UNK N   1      33.185  15.196  10.903  0.00  0.00    -0.393 OA
HETATM   26  H   UNK N   1      32.466  15.763  11.224  0.00  0.00     0.210 HD
ENDBRANCH  23  25
ENDBRANCH  22  23
BRANCH  22  27
HETATM   27  N   UNK N   1      34.747  17.541   8.548  0.00  0.00    -0.418 N 
HETATM   28  H   UNK N   1      34.642  18.479   8.160  0.00  0.00     0.150 HD
HETATM   29  H   UNK N   1      35.624  17.036   8.420  0.00  0.00     0.150 HD
ENDBRANCH  22  27
ENDBRANCH   1  22
BRANCH   7  30
HETATM   30  C   UNK N   1      33.691  14.499   7.239  0.00  0.00     0.243 C 
BRANCH  30  31
HETATM   31  C   UNK N   1      34.630  14.775   6.104  0.00  0.00     0.158 C 
HETATM   32  O   UNK N   1      34.851  13.908   5.275  0.00  0.00    -0.649 OA
BRANCH  31  33
HETATM   33  O   UNK N   1      35.263  15.961   6.020  0.00  0.00    -0.775 OA
HETATM   34  H   UNK N   1      35.549  16.783   5.675  0.00  0.00     0.167 HD
ENDBRANCH  31  33
ENDBRANCH  30  31
ENDBRANCH   7  30
TORSDOF 10
ENDMDL
