REMARK  22 active torsions:
REMARK  status: ('A' for Active; 'I' for Inactive)
REMARK    1  A    between atoms: C_5  and  C_1 
REMARK    2  A    between atoms: O_38  and  C_1 
REMARK    3  A    between atoms: C_6  and  C_2 
REMARK    4  A    between atoms: O_39  and  C_2 
REMARK    5  A    between atoms: C_8  and  O_24 
REMARK    6  A    between atoms: C_9  and  O_25 
REMARK    7  A    between atoms: C_10  and  O_26 
REMARK    8  A    between atoms: C_11  and  O_27 
REMARK    9  A    between atoms: N_22  and  C_14 
REMARK   10  A    between atoms: C_15  and  N_23 
REMARK   11  A    between atoms: P_44  and  O_28 
REMARK   12  A    between atoms: P_44  and  O_29 
REMARK   13  A    between atoms: P_45  and  O_31 
REMARK   14  A    between atoms: P_45  and  O_32 
REMARK   15  A    between atoms: P_46  and  O_34 
REMARK   16  A    between atoms: P_47  and  O_36 
REMARK   17  A    between atoms: P_44  and  O_38 
REMARK   18  A    between atoms: P_46  and  O_39 
REMARK   19  A    between atoms: P_45  and  O_42 
REMARK   20  A    between atoms: P_47  and  O_42 
REMARK   21  A    between atoms: P_46  and  O_43 
REMARK   22  A    between atoms: P_47  and  O_43 
ROOT
HETATM    1  C   UNK N   1      -0.333  -0.515  -0.333  0.00  0.00     0.188 A 
HETATM    2  C   UNK N   1       3.817   0.853   0.397  0.00  0.00     0.189 A 
HETATM    3  C   UNK N   1       1.788  -0.857  -0.290  0.00  0.00     0.122 A 
HETATM    4  C   UNK N   1       3.106  -1.266  -0.452  0.00  0.00     0.135 A 
HETATM    5  C   UNK N   1       1.549   0.359   0.191  0.00  0.00     0.142 A 
HETATM    6  N   UNK N   1       3.363  -2.426  -0.936  0.00  0.00    -0.383 N 
ATOM      7  HN  UNK N   1       4.336  -2.732  -0.936  1.00  0.00     0.157 HD
HETATM    8  N   UNK N   1       0.623  -1.459  -0.606  0.00  0.00    -0.346 N 
ATOM      9  HN  UNK N   1       0.484  -2.404  -0.966  1.00  0.00     0.167 HD
HETATM   10  N   UNK N   1       2.524   1.225   0.552  0.00  0.00    -0.336 N 
ATOM     11  HN  UNK N   1       2.290   2.141   0.933  1.00  0.00     0.168 HD
HETATM   12  N   UNK N   1       4.119  -0.380  -0.117  0.00  0.00    -0.297 N 
HETATM   13  N   UNK N   1       0.237   0.608   0.164  0.00  0.00    -0.297 N 
HETATM   14  H   UNK N   1       2.692  -3.042  -1.308  0.00  0.00     0.157 HD
ENDROOT
BRANCH  13  15
HETATM   15  C   UNK N   1      -0.233   1.945   0.490  0.00  0.00     0.262 C 
HETATM   16  C   UNK N   1      -1.588   2.459   0.025  0.00  0.00     0.198 C 
HETATM   17  C   UNK N   1      -1.316   3.998  -0.013  0.00  0.00     0.182 C 
HETATM   18  C   UNK N   1       0.206   4.046   0.208  0.00  0.00     0.180 C 
HETATM   19  O   UNK N   1       0.638   2.803  -0.171  0.00  0.00    -0.353 OA
BRANCH  16  20
HETATM   20  O   UNK N   1      -2.619   2.103   0.896  0.00  0.00    -0.388 OA
HETATM   21  H   UNK N   1      -3.192   2.599   1.501  0.00  0.00     0.210 HD
ENDBRANCH  16  20
BRANCH  17  22
HETATM   22  O   UNK N   1      -1.672   4.514  -1.261  0.00  0.00    -0.390 OA
HETATM   23  H   UNK N   1      -1.486   4.908  -2.128  0.00  0.00     0.210 HD
ENDBRANCH  17  22
BRANCH  18  24
HETATM   24  C   UNK N   1       1.184   5.007  -0.425  0.00  0.00     0.215 C 
BRANCH  24  25
HETATM   25  O   UNK N   1       2.424   4.682   0.168  0.00  0.00    -0.294 OA
BRANCH  25  26
HETATM   26  P   UNK N   1       3.721   5.140  -0.887  0.00  0.00     0.401 P 
HETATM   27  O   UNK N   1       3.644   4.282  -2.179  0.00  0.00    -0.631 OA
BRANCH  26  28
HETATM   28  O   UNK N   1       5.247   4.767  -0.136  0.00  0.00    -0.307 OA
HETATM   29  H   UNK N   1       5.492   3.927   0.283  0.00  0.00     0.222 HD
ENDBRANCH  26  28
BRANCH  26  30
HETATM   30  O   UNK N   1       3.614   6.828  -1.301  0.00  0.00    -0.195 OA
BRANCH  30  31
HETATM   31  P   UNK N   1       3.352   7.687   0.205  0.00  0.00     0.410 P 
HETATM   32  O   UNK N   1       4.401   7.120   1.204  0.00  0.00    -0.631 OA
BRANCH  31  33
HETATM   33  O   UNK N   1       3.778   9.364   0.106  0.00  0.00    -0.307 OA
HETATM   34  H   UNK N   1       4.710   9.628   0.051  0.00  0.00     0.222 HD
ENDBRANCH  31  33
BRANCH  31  35
HETATM   35  O   UNK N   1       1.826   7.384   1.006  0.00  0.00    -0.195 OA
BRANCH  35  36
HETATM   36  P   UNK N   1       0.480   8.162   0.195  0.00  0.00     0.399 P 
HETATM   37  O   UNK N   1      -0.643   7.822   1.203  0.00  0.00    -0.631 OA
BRANCH  36  38
HETATM   38  O   UNK N   1      -0.160   7.419  -1.242  0.00  0.00    -0.307 OA
HETATM   39  H   UNK N   1      -0.697   7.520  -2.043  0.00  0.00     0.222 HD
ENDBRANCH  36  38
BRANCH  36  40
HETATM   40  O   UNK N   1       0.414   9.897   0.219  0.00  0.00    -0.307 OA
HETATM   41  H   UNK N   1       1.235  10.413   0.232  0.00  0.00     0.222 HD
ENDBRANCH  36  40
ENDBRANCH  35  36
ENDBRANCH  31  35
ENDBRANCH  30  31
ENDBRANCH  26  30
ENDBRANCH  25  26
ENDBRANCH  24  25
ENDBRANCH  18  24
ENDBRANCH  13  15
BRANCH  12  42
HETATM   42  C   UNK N   1       5.516  -0.756  -0.330  0.00  0.00     0.262 C 
HETATM   43  C   UNK N   1       6.597   0.194   0.178  0.00  0.00     0.198 C 
HETATM   44  C   UNK N   1       7.803  -0.729   0.109  0.00  0.00     0.182 C 
HETATM   45  C   UNK N   1       7.138  -2.123   0.186  0.00  0.00     0.180 C 
HETATM   46  O   UNK N   1       5.770  -1.931   0.378  0.00  0.00    -0.353 OA
BRANCH  43  47
HETATM   47  O   UNK N   1       6.751   1.347  -0.598  0.00  0.00    -0.388 OA
HETATM   48  H   UNK N   1       7.497   1.655  -1.136  0.00  0.00     0.210 HD
ENDBRANCH  43  47
BRANCH  44  49
HETATM   49  O   UNK N   1       8.697  -0.469   1.152  0.00  0.00    -0.390 OA
HETATM   50  H   UNK N   1       9.163  -0.915   1.876  0.00  0.00     0.210 HD
ENDBRANCH  44  49
BRANCH  45  51
HETATM   51  C   UNK N   1       7.637  -3.100   1.246  0.00  0.00     0.215 C 
BRANCH  51  52
HETATM   52  O   UNK N   1       8.831  -3.733   0.870  0.00  0.00    -0.294 OA
BRANCH  52  53
HETATM   53  P   UNK N   1       8.437  -4.887  -0.392  0.00  0.00     0.390 P 
HETATM   54  O   UNK N   1       8.163  -5.807   0.828  0.00  0.00    -0.632 OA
BRANCH  53  55
HETATM   55  O   UNK N   1       9.465  -6.222  -0.793  0.00  0.00    -0.307 OA
HETATM   56  H   UNK N   1       9.105  -7.095  -1.017  0.00  0.00     0.222 HD
ENDBRANCH  53  55
BRANCH  53  57
HETATM   57  O   UNK N   1      10.117  -4.458  -0.354  0.00  0.00    -0.307 OA
HETATM   58  H   UNK N   1      10.794  -5.152  -0.333  0.00  0.00     0.222 HD
ENDBRANCH  53  57
ENDBRANCH  52  53
ENDBRANCH  51  52
ENDBRANCH  45  51
ENDBRANCH  12  42
TORSDOF 22
