REMARK  10 active torsions:
REMARK  status: ('A' for Active; 'I' for Inactive)
REMARK    1  A    between atoms: C_2  and  N_1 
REMARK    2  A    between atoms: C_3  and  N_8 
REMARK    3  A    between atoms: C_6  and  O_13 
REMARK    4  A    between atoms: C_7  and  C_14 
REMARK    5  A    between atoms: C_11  and  C_15 
REMARK    6  A    between atoms: C_12  and  O_16 
REMARK       I    between atoms: C_14  and  N_17 
REMARK    7  A    between atoms: C_15  and  O_19 
REMARK    8  A    between atoms: O_19  and  P_20 
REMARK    9  A    between atoms: P_20  and  O_21 
REMARK   10  A    between atoms: P_20  and  O_22 
ROOT
HETATM    1  C   UNK N   1       0.108  -0.660   0.218  0.00  0.00     0.262 C 
HETATM    2  O   UNK N   1      -0.867  -0.476  -0.761  0.00  0.00    -0.353 OA
HETATM    3  C   UNK N   1       0.413  -2.128   0.175  0.00  0.00     0.198 C 
HETATM    4  C   UNK N   1      -1.795  -1.486  -0.449  0.00  0.00     0.180 C 
HETATM    5  C   UNK N   1      -1.010  -2.634   0.192  0.00  0.00     0.182 C 
ENDROOT
BRANCH   1   6
HETATM    6  N   UNK N   1       1.199   0.301   0.072  0.00  0.00    -0.297 N 
HETATM    7  C   UNK N   1       2.527   0.136  -0.072  0.00  0.00     0.137 A 
HETATM    8  C   UNK N   1       3.120   1.380  -0.102  0.00  0.00     0.145 A 
HETATM    9  N   UNK N   1       2.159   2.318   0.009  0.00  0.00    -0.345 N 
HETATM   10  C   UNK N   1       0.997   1.635   0.116  0.00  0.00     0.188 A 
ATOM     11  HN  UNK N   1       2.282   3.330   0.011  1.00  0.00     0.167 HD
BRANCH   7  12
HETATM   12  N   UNK N   1       3.186  -1.109  -0.148  0.00  0.00    -0.383 N 
HETATM   13  H   UNK N   1       2.664  -1.942  -0.200  0.00  0.00     0.157 HD
HETATM   14  H   UNK N   1       4.170  -1.145  -0.148  0.00  0.00     0.157 HD
ENDBRANCH   7  12
BRANCH   8  15
HETATM   15  C   UNK N   1       4.553   1.705  -0.204  0.00  0.00     0.269 C 
HETATM   16  N   UNK N   1       5.476   0.727  -0.285  0.00  0.00    -0.365 N 
HETATM   17  H   UNK N   1       5.195  -0.214  -0.343  0.00  0.00     0.159 HD
HETATM   18  H   UNK N   1       6.434   0.954  -0.285  0.00  0.00     0.159 HD
HETATM   19  O   UNK N   1       4.911   2.872  -0.196  0.00  0.00    -0.266 OA
ENDBRANCH   8  15
ENDBRANCH   1   6
BRANCH   3  20
HETATM   20  O   UNK N   1       1.093  -2.547   1.319  0.00  0.00    -0.388 OA
HETATM   21  H   UNK N   1       1.076  -3.102   2.114  0.00  0.00     0.210 HD
ENDBRANCH   3  20
BRANCH   4  22
HETATM   22  C   UNK N   1      -2.812  -0.918   0.540  0.00  0.00     0.215 C 
BRANCH  22  23
HETATM   23  O   UNK N   1      -3.253   0.324   0.061  0.00  0.00    -0.294 OA
BRANCH  23  24
HETATM   24  P   UNK N   1      -4.899   0.500   0.580  0.00  0.00     0.390 P 
HETATM   25  O   UNK N   1      -5.085  -0.044  -0.863  0.00  0.00    -0.632 OA
BRANCH  24  26
HETATM   26  O   UNK N   1      -5.916   1.696  -0.158  0.00  0.00    -0.307 OA
HETATM   27  H   UNK N   1      -5.621   2.523  -0.571  0.00  0.00     0.222 HD
ENDBRANCH  24  26
BRANCH  24  28
HETATM   28  O   UNK N   1      -4.107   2.045   0.524  0.00  0.00    -0.307 OA
HETATM   29  H   UNK N   1      -3.138   2.093   0.492  0.00  0.00     0.222 HD
ENDBRANCH  24  28
ENDBRANCH  23  24
ENDBRANCH  22  23
ENDBRANCH   4  22
BRANCH   5  30
HETATM   30  O   UNK N   1      -1.120  -3.798  -0.568  0.00  0.00    -0.390 OA
HETATM   31  H   UNK N   1      -1.859  -4.137  -1.096  0.00  0.00     0.210 HD
ENDBRANCH   5  30
TORSDOF 10
