REMARK  23 active torsions:
REMARK  status: ('A' for Active; 'I' for Inactive)
REMARK    1  A    between atoms: C_7  and  C_4 
REMARK    2  A    between atoms: O_32  and  C_4 
REMARK    3  A    between atoms: C_8  and  C_5 
REMARK    4  A    between atoms: O_33  and  C_5 
REMARK    5  A    between atoms: C_14  and  C_6 
REMARK    6  A    between atoms: O_20  and  C_6 
REMARK    7  A    between atoms: C_14  and  C_8 
REMARK    8  A    between atoms: C_8  and  O_21 
REMARK    9  A    between atoms: N_15  and  C_9 
REMARK   10  A    between atoms: C_10  and  O_22 
REMARK   11  A    between atoms: C_11  and  O_23 
REMARK   12  A    between atoms: C_12  and  N_19 
REMARK   13  A    between atoms: O_24  and  C_13 
REMARK   14  A    between atoms: C_14  and  O_35 
REMARK   15  A    between atoms: P_37  and  O_25 
REMARK   16  A    between atoms: P_37  and  O_26 
REMARK   17  A    between atoms: P_38  and  O_28 
REMARK   18  A    between atoms: P_39  and  O_30 
REMARK   19  A    between atoms: P_38  and  O_32 
REMARK   20  A    between atoms: P_39  and  O_33 
REMARK   21  A    between atoms: P_37  and  O_35 
REMARK   22  A    between atoms: P_38  and  O_36 
REMARK   23  A    between atoms: P_39  and  O_36 
ROOT
HETATM    1  O   UNK N   1       7.033   0.247  -1.423  0.00  0.00    -0.631 OA
HETATM    2  P   UNK N   1       7.150  -1.050  -0.577  0.00  0.00     0.401 P 
ENDROOT
BRANCH   2   3
HETATM    3  O   UNK N   1       6.380  -1.036   0.991  0.00  0.00    -0.307 OA
HETATM    4  H   UNK N   1       6.173  -0.661   1.861  0.00  0.00     0.222 HD
ENDBRANCH   2   3
BRANCH   2   5
HETATM    5  O   UNK N   1       5.385  -1.181  -0.837  0.00  0.00    -0.294 OA
BRANCH   5   6
HETATM    6  C   UNK N   1       4.659   0.003  -0.542  0.00  0.00     0.215 C 
BRANCH   6   7
HETATM    7  C   UNK N   1       3.170  -0.175  -0.768  0.00  0.00     0.180 C 
HETATM    8  C   UNK N   1       2.363   0.650   0.228  0.00  0.00     0.182 C 
HETATM    9  C   UNK N   1       1.058  -0.135   0.345  0.00  0.00     0.198 C 
HETATM   10  C   UNK N   1       1.336  -1.342  -0.564  0.00  0.00     0.262 C 
HETATM   11  O   UNK N   1       2.740  -1.499  -0.561  0.00  0.00    -0.353 OA
BRANCH   8  12
HETATM   12  O   UNK N   1       2.183   1.967  -0.202  0.00  0.00    -0.390 OA
HETATM   13  H   UNK N   1       2.912   2.532  -0.500  0.00  0.00     0.210 HD
ENDBRANCH   8  12
BRANCH   9  14
HETATM   14  O   UNK N   1       0.900  -0.553   1.672  0.00  0.00    -0.388 OA
HETATM   15  H   UNK N   1       0.594  -0.603   2.591  0.00  0.00     0.210 HD
ENDBRANCH   9  14
BRANCH  10  16
HETATM   16  N   UNK N   1       0.625  -2.575  -0.178  0.00  0.00    -0.293 N 
HETATM   17  C   UNK N   1       1.341  -3.679   0.184  0.00  0.00     0.101 A 
HETATM   18  C   UNK N   1       0.695  -4.872   0.497  0.00  0.00     0.065 A 
HETATM   19  C   UNK N   1      -0.692  -4.913   0.426  0.00  0.00     0.102 A 
HETATM   20  N   UNK N   1      -1.384  -3.803   0.067  0.00  0.00    -0.308 N 
HETATM   21  C   UNK N   1      -0.744  -2.641  -0.233  0.00  0.00     0.227 A 
ATOM     22  HN  UNK N   1      -2.402  -3.840   0.022  1.00  0.00     0.171 HD
BRANCH  19  23
HETATM   23  N   UNK N   1      -1.314  -5.998   0.688  0.00  0.00    -0.385 N 
HETATM   24  H   UNK N   1      -2.278  -6.001   0.889  0.00  0.00     0.157 HD
ATOM     25  HN  UNK N   1      -0.801  -6.880   0.688  1.00  0.00     0.157 HD
ENDBRANCH  19  23
BRANCH  21  26
HETATM   26  O   UNK N   1      -1.468  -1.571  -0.607  0.00  0.00    -0.332 OA
HETATM   27  H   UNK N   1      -1.074  -0.762  -0.868  0.00  0.00     0.221 HD
ENDBRANCH  21  26
ENDBRANCH  10  16
ENDBRANCH   6   7
ENDBRANCH   5   6
ENDBRANCH   2   5
BRANCH   2  28
HETATM   28  O   UNK N   1       7.997  -0.040   0.641  0.00  0.00    -0.195 OA
BRANCH  28  29
HETATM   29  P   UNK N   1       7.516   1.667   0.819  0.00  0.00     0.401 P 
HETATM   30  O   UNK N   1       5.987   1.772   1.073  0.00  0.00    -0.631 OA
BRANCH  29  31
HETATM   31  O   UNK N   1       8.250   2.311   2.251  0.00  0.00    -0.307 OA
HETATM   32  H   UNK N   1       8.768   2.135   3.053  0.00  0.00     0.222 HD
ENDBRANCH  29  31
BRANCH  29  33
HETATM   33  O   UNK N   1       7.996   2.660  -0.542  0.00  0.00    -0.294 OA
BRANCH  33  34
HETATM   34  C   UNK N   1       6.856   3.303  -1.046  0.00  0.00     0.215 C 
BRANCH  34  35
HETATM   35  C   UNK N   1       6.613   4.670  -0.386  0.00  0.00     0.179 C 
BRANCH  35  36
HETATM   36  C   UNK N   1       7.836   5.624  -0.459  0.00  0.00     0.117 C 
HETATM   37  C   UNK N   1       8.181   5.828  -1.941  0.00  0.00     0.052 C 
BRANCH  36  38
HETATM   38  C   UNK N   1       7.462   6.979   0.159  0.00  0.00     0.205 C 
BRANCH  38  39
HETATM   39  O   UNK N   1       7.126   6.844   1.508  0.00  0.00    -0.398 OA
HETATM   40  H   UNK N   1       6.928   6.999   2.445  0.00  0.00     0.209 HD
ENDBRANCH  38  39
ENDBRANCH  36  38
BRANCH  36  41
HETATM   41  O   UNK N   1       8.894   5.030   0.283  0.00  0.00    -0.281 OA
BRANCH  41  42
HETATM   42  P   UNK N   1      10.473   5.759   0.002  0.00  0.00     0.391 P 
HETATM   43  O   UNK N   1      10.314   7.209  -0.529  0.00  0.00    -0.632 OA
BRANCH  42  44
HETATM   44  O   UNK N   1      11.373   5.870   1.482  0.00  0.00    -0.307 OA
HETATM   45  H   UNK N   1      11.679   5.466   2.309  0.00  0.00     0.222 HD
ENDBRANCH  42  44
BRANCH  42  46
HETATM   46  O   UNK N   1      11.369   4.861  -1.183  0.00  0.00    -0.307 OA
HETATM   47  H   UNK N   1      11.185   4.177  -1.845  0.00  0.00     0.222 HD
ENDBRANCH  42  46
ENDBRANCH  41  42
ENDBRANCH  36  41
ENDBRANCH  35  36
BRANCH  35  48
HETATM   48  O   UNK N   1       5.504   5.255  -1.006  0.00  0.00    -0.390 OA
HETATM   49  H   UNK N   1       5.471   6.124  -1.436  0.00  0.00     0.210 HD
ENDBRANCH  35  48
ENDBRANCH  34  35
ENDBRANCH  33  34
ENDBRANCH  29  33
ENDBRANCH  28  29
ENDBRANCH   2  28
TORSDOF 23
