MODEL 1
REMARK VINA RESULT:      -4.8      0.000      0.000
REMARK  6 active torsions:
REMARK  status: ('A' for Active; 'I' for Inactive)
REMARK    1  A    between atoms: P_2  and  O_3 
REMARK    2  A    between atoms: P_2  and  C_5 
REMARK    3  A    between atoms: C_5  and  C_6 
REMARK    4  A    between atoms: C_6  and  C_8 
REMARK    5  A    between atoms: C_8  and  C_9 
REMARK    6  A    between atoms: C_9  and  O_10 
ROOT
HETATM    1  C   UNK N   1      34.991  16.698  10.067  0.00  0.00     0.145 C 
HETATM    2  O   UNK N   1      35.912  17.371  10.507  0.00  0.00    -0.297 OA
ENDROOT
BRANCH   1   3
HETATM    3  C   UNK N   1      34.740  15.306  10.569  0.00  0.00     0.172 C 
BRANCH   3   4
HETATM    4  P   UNK N   1      36.278  14.294  10.897  0.00  0.00     0.101 P 
HETATM    5  C   UNK N   1      36.598  13.472  12.534  0.00  0.00     0.109 C 
HETATM    6  O   UNK N   1      36.220  13.134   9.867  0.00  0.00    -0.674 OA
BRANCH   4   7
HETATM    7  O   UNK N   1      37.697  15.134  10.362  0.00  0.00    -0.349 OA
HETATM    8  H   UNK N   1      38.209  15.959  10.345  0.00  0.00     0.217 HD
ENDBRANCH   4   7
ENDBRANCH   3   4
ENDBRANCH   1   3
BRANCH   1   9
HETATM    9  C   UNK N   1      34.057  17.235   9.009  0.00  0.00     0.188 C 
BRANCH   9  10
HETATM   10  C   UNK N   1      34.582  18.254   8.032  0.00  0.00     0.146 C 
HETATM   11  O   UNK N   1      34.393  18.146   6.831  0.00  0.00    -0.650 OA
BRANCH  10  12
HETATM   12  O   UNK N   1      35.271  19.312   8.500  0.00  0.00    -0.776 OA
HETATM   13  H   UNK N   1      35.174  19.581   9.392  0.00  0.00     0.167 HD
ENDBRANCH  10  12
ENDBRANCH   9  10
ENDBRANCH   1   9
TORSDOF 6
ENDMDL
MODEL 2
REMARK VINA RESULT:      -4.6     14.547     15.935
REMARK  6 active torsions:
REMARK  status: ('A' for Active; 'I' for Inactive)
REMARK    1  A    between atoms: P_2  and  O_3 
REMARK    2  A    between atoms: P_2  and  C_5 
REMARK    3  A    between atoms: C_5  and  C_6 
REMARK    4  A    between atoms: C_6  and  C_8 
REMARK    5  A    between atoms: C_8  and  C_9 
REMARK    6  A    between atoms: C_9  and  O_10 
ROOT
HETATM    1  C   UNK N   1      21.005  19.269   3.491  0.00  0.00     0.145 C 
HETATM    2  O   UNK N   1      20.605  20.126   4.267  0.00  0.00    -0.297 OA
ENDROOT
BRANCH   1   3
HETATM    3  C   UNK N   1      21.838  18.117   3.973  0.00  0.00     0.172 C 
BRANCH   3   4
HETATM    4  P   UNK N   1      21.351  17.432   5.643  0.00  0.00     0.101 P 
HETATM    5  C   UNK N   1      19.943  16.237   5.857  0.00  0.00     0.109 C 
HETATM    6  O   UNK N   1      22.607  16.670   6.145  0.00  0.00    -0.674 OA
BRANCH   4   7
HETATM    7  O   UNK N   1      21.245  18.698   6.824  0.00  0.00    -0.349 OA
HETATM    8  H   UNK N   1      21.703  19.371   7.353  0.00  0.00     0.217 HD
ENDBRANCH   4   7
ENDBRANCH   3   4
ENDBRANCH   1   3
BRANCH   1   9
HETATM    9  C   UNK N   1      20.673  19.320   2.019  0.00  0.00     0.188 C 
BRANCH   9  10
HETATM   10  C   UNK N   1      20.935  20.598   1.264  0.00  0.00     0.146 C 
HETATM   11  O   UNK N   1      21.084  20.606   0.053  0.00  0.00    -0.650 OA
BRANCH  10  12
HETATM   12  O   UNK N   1      20.997  21.757   1.946  0.00  0.00    -0.776 OA
HETATM   13  H   UNK N   1      21.636  22.403   1.721  0.00  0.00     0.167 HD
ENDBRANCH  10  12
ENDBRANCH   9  10
ENDBRANCH   1   9
TORSDOF 6
ENDMDL
MODEL 3
REMARK VINA RESULT:      -4.5     13.700     14.871
REMARK  6 active torsions:
REMARK  status: ('A' for Active; 'I' for Inactive)
REMARK    1  A    between atoms: P_2  and  O_3 
REMARK    2  A    between atoms: P_2  and  C_5 
REMARK    3  A    between atoms: C_5  and  C_6 
REMARK    4  A    between atoms: C_6  and  C_8 
REMARK    5  A    between atoms: C_8  and  C_9 
REMARK    6  A    between atoms: C_9  and  O_10 
ROOT
HETATM    1  C   UNK N   1      21.682  12.598  10.651  0.00  0.00     0.145 C 
HETATM    2  O   UNK N   1      20.557  12.482  11.115  0.00  0.00    -0.297 OA
ENDROOT
BRANCH   1   3
HETATM    3  C   UNK N   1      22.046  13.771   9.786  0.00  0.00     0.172 C 
BRANCH   3   4
HETATM    4  P   UNK N   1      20.608  14.583   8.910  0.00  0.00     0.101 P 
HETATM    5  C   UNK N   1      20.705  16.311   8.229  0.00  0.00     0.109 C 
HETATM    6  O   UNK N   1      20.327  13.679   7.679  0.00  0.00    -0.674 OA
BRANCH   4   7
HETATM    7  O   UNK N   1      19.139  14.376   9.808  0.00  0.00    -0.349 OA
HETATM    8  H   UNK N   1      18.203  14.119   9.808  0.00  0.00     0.217 HD
ENDBRANCH   4   7
ENDBRANCH   3   4
ENDBRANCH   1   3
BRANCH   1   9
HETATM    9  C   UNK N   1      22.761  11.581  10.934  0.00  0.00     0.188 C 
BRANCH   9  10
HETATM   10  C   UNK N   1      23.908  11.974  11.829  0.00  0.00     0.146 C 
HETATM   11  O   UNK N   1      25.052  12.042  11.410  0.00  0.00    -0.650 OA
BRANCH  10  12
HETATM   12  O   UNK N   1      23.657  12.264  13.119  0.00  0.00    -0.776 OA
HETATM   13  H   UNK N   1      23.984  13.056  13.497  0.00  0.00     0.167 HD
ENDBRANCH  10  12
ENDBRANCH   9  10
ENDBRANCH   1   9
TORSDOF 6
ENDMDL
MODEL 4
REMARK VINA RESULT:      -4.4      2.339      5.132
REMARK  6 active torsions:
REMARK  status: ('A' for Active; 'I' for Inactive)
REMARK    1  A    between atoms: P_2  and  O_3 
REMARK    2  A    between atoms: P_2  and  C_5 
REMARK    3  A    between atoms: C_5  and  C_6 
REMARK    4  A    between atoms: C_6  and  C_8 
REMARK    5  A    between atoms: C_8  and  C_9 
REMARK    6  A    between atoms: C_9  and  O_10 
ROOT
HETATM    1  C   UNK N   1      35.255  16.525  10.136  0.00  0.00     0.145 C 
HETATM    2  O   UNK N   1      35.665  17.630  10.462  0.00  0.00    -0.297 OA
ENDROOT
BRANCH   1   3
HETATM    3  C   UNK N   1      34.071  16.377   9.225  0.00  0.00     0.172 C 
BRANCH   3   4
HETATM    4  P   UNK N   1      33.872  17.737   7.958  0.00  0.00     0.101 P 
HETATM    5  C   UNK N   1      33.804  17.395   6.132  0.00  0.00     0.109 C 
HETATM    6  O   UNK N   1      32.510  18.401   8.296  0.00  0.00    -0.674 OA
BRANCH   4   7
HETATM    7  O   UNK N   1      34.961  19.048   8.281  0.00  0.00    -0.349 OA
HETATM    8  H   UNK N   1      35.084  19.959   8.591  0.00  0.00     0.217 HD
ENDBRANCH   4   7
ENDBRANCH   3   4
ENDBRANCH   1   3
BRANCH   1   9
HETATM    9  C   UNK N   1      35.923  15.260  10.620  0.00  0.00     0.188 C 
BRANCH   9  10
HETATM   10  C   UNK N   1      35.640  14.786  12.022  0.00  0.00     0.146 C 
HETATM   11  O   UNK N   1      34.663  14.100  12.280  0.00  0.00    -0.650 OA
BRANCH  10  12
HETATM   12  O   UNK N   1      36.491  15.123  13.009  0.00  0.00    -0.776 OA
HETATM   13  H   UNK N   1      36.164  15.371  13.850  0.00  0.00     0.167 HD
ENDBRANCH  10  12
ENDBRANCH   9  10
ENDBRANCH   1   9
TORSDOF 6
ENDMDL
MODEL 5
REMARK VINA RESULT:      -4.4      1.568      1.970
REMARK  6 active torsions:
REMARK  status: ('A' for Active; 'I' for Inactive)
REMARK    1  A    between atoms: P_2  and  O_3 
REMARK    2  A    between atoms: P_2  and  C_5 
REMARK    3  A    between atoms: C_5  and  C_6 
REMARK    4  A    between atoms: C_6  and  C_8 
REMARK    5  A    between atoms: C_8  and  C_9 
REMARK    6  A    between atoms: C_9  and  O_10 
ROOT
HETATM    1  C   UNK N   1      35.097  16.468   9.825  0.00  0.00     0.145 C 
HETATM    2  O   UNK N   1      35.622  16.933  10.827  0.00  0.00    -0.297 OA
ENDROOT
BRANCH   1   3
HETATM    3  C   UNK N   1      35.413  15.075   9.361  0.00  0.00     0.172 C 
BRANCH   3   4
HETATM    4  P   UNK N   1      35.228  13.747  10.663  0.00  0.00     0.101 P 
HETATM    5  C   UNK N   1      34.869  11.974  10.233  0.00  0.00     0.109 C 
HETATM    6  O   UNK N   1      36.595  13.715  11.399  0.00  0.00    -0.674 OA
BRANCH   4   7
HETATM    7  O   UNK N   1      34.182  14.275  11.942  0.00  0.00    -0.349 OA
HETATM    8  H   UNK N   1      33.616  14.974  12.307  0.00  0.00     0.217 HD
ENDBRANCH   4   7
ENDBRANCH   3   4
ENDBRANCH   1   3
BRANCH   1   9
HETATM    9  C   UNK N   1      34.102  17.262   9.014  0.00  0.00     0.188 C 
BRANCH   9  10
HETATM   10  C   UNK N   1      34.618  18.316   8.068  0.00  0.00     0.146 C 
HETATM   11  O   UNK N   1      35.247  19.282   8.470  0.00  0.00    -0.650 OA
BRANCH  10  12
HETATM   12  O   UNK N   1      34.384  18.181   6.750  0.00  0.00    -0.776 OA
HETATM   13  H   UNK N   1      34.074  18.908   6.249  0.00  0.00     0.167 HD
ENDBRANCH  10  12
ENDBRANCH   9  10
ENDBRANCH   1   9
TORSDOF 6
ENDMDL
MODEL 6
REMARK VINA RESULT:      -4.4      1.237      1.768
REMARK  6 active torsions:
REMARK  status: ('A' for Active; 'I' for Inactive)
REMARK    1  A    between atoms: P_2  and  O_3 
REMARK    2  A    between atoms: P_2  and  C_5 
REMARK    3  A    between atoms: C_5  and  C_6 
REMARK    4  A    between atoms: C_6  and  C_8 
REMARK    5  A    between atoms: C_8  and  C_9 
REMARK    6  A    between atoms: C_9  and  O_10 
ROOT
HETATM    1  C   UNK N   1      34.215  15.782   8.777  0.00  0.00     0.145 C 
HETATM    2  O   UNK N   1      34.190  15.356   7.631  0.00  0.00    -0.297 OA
ENDROOT
BRANCH   1   3
HETATM    3  C   UNK N   1      34.437  14.860   9.941  0.00  0.00     0.172 C 
BRANCH   3   4
HETATM    4  P   UNK N   1      36.221  14.654  10.460  0.00  0.00     0.101 P 
HETATM    5  C   UNK N   1      36.758  13.369  11.691  0.00  0.00     0.109 C 
HETATM    6  O   UNK N   1      36.979  14.303   9.152  0.00  0.00    -0.674 OA
BRANCH   4   7
HETATM    7  O   UNK N   1      36.933  16.188  10.848  0.00  0.00    -0.349 OA
HETATM    8  H   UNK N   1      37.166  16.838  11.529  0.00  0.00     0.217 HD
ENDBRANCH   4   7
ENDBRANCH   3   4
ENDBRANCH   1   3
BRANCH   1   9
HETATM    9  C   UNK N   1      34.037  17.251   9.077  0.00  0.00     0.188 C 
BRANCH   9  10
HETATM   10  C   UNK N   1      34.630  18.259   8.126  0.00  0.00     0.146 C 
HETATM   11  O   UNK N   1      35.284  19.209   8.528  0.00  0.00    -0.650 OA
BRANCH  10  12
HETATM   12  O   UNK N   1      34.438  18.100   6.804  0.00  0.00    -0.776 OA
HETATM   13  H   UNK N   1      34.587  18.813   6.216  0.00  0.00     0.167 HD
ENDBRANCH  10  12
ENDBRANCH   9  10
ENDBRANCH   1   9
TORSDOF 6
ENDMDL
MODEL 7
REMARK VINA RESULT:      -4.3      4.305      5.465
REMARK  6 active torsions:
REMARK  status: ('A' for Active; 'I' for Inactive)
REMARK    1  A    between atoms: P_2  and  O_3 
REMARK    2  A    between atoms: P_2  and  C_5 
REMARK    3  A    between atoms: C_5  and  C_6 
REMARK    4  A    between atoms: C_6  and  C_8 
REMARK    5  A    between atoms: C_8  and  C_9 
REMARK    6  A    between atoms: C_9  and  O_10 
ROOT
HETATM    1  C   UNK N   1      31.022  17.054   8.293  0.00  0.00     0.145 C 
HETATM    2  O   UNK N   1      31.257  16.188   9.123  0.00  0.00    -0.297 OA
ENDROOT
BRANCH   1   3
HETATM    3  C   UNK N   1      32.104  17.577   7.393  0.00  0.00     0.172 C 
BRANCH   3   4
HETATM    4  P   UNK N   1      33.848  17.179   7.937  0.00  0.00     0.101 P 
HETATM    5  C   UNK N   1      34.769  15.688   7.317  0.00  0.00     0.109 C 
HETATM    6  O   UNK N   1      34.696  18.397   7.481  0.00  0.00    -0.674 OA
BRANCH   4   7
HETATM    7  O   UNK N   1      34.001  17.303   9.661  0.00  0.00    -0.349 OA
HETATM    8  H   UNK N   1      34.336  16.919  10.487  0.00  0.00     0.217 HD
ENDBRANCH   4   7
ENDBRANCH   3   4
ENDBRANCH   1   3
BRANCH   1   9
HETATM    9  C   UNK N   1      29.637  17.630   8.123  0.00  0.00     0.188 C 
BRANCH   9  10
HETATM   10  C   UNK N   1      28.958  18.242   9.320  0.00  0.00     0.146 C 
HETATM   11  O   UNK N   1      29.593  18.810  10.195  0.00  0.00    -0.650 OA
BRANCH  10  12
HETATM   12  O   UNK N   1      27.618  18.166   9.420  0.00  0.00    -0.776 OA
HETATM   13  H   UNK N   1      27.222  17.527   9.979  0.00  0.00     0.167 HD
ENDBRANCH  10  12
ENDBRANCH   9  10
ENDBRANCH   1   9
TORSDOF 6
ENDMDL
MODEL 8
REMARK VINA RESULT:      -4.2     14.576     15.923
REMARK  6 active torsions:
REMARK  status: ('A' for Active; 'I' for Inactive)
REMARK    1  A    between atoms: P_2  and  O_3 
REMARK    2  A    between atoms: P_2  and  C_5 
REMARK    3  A    between atoms: C_5  and  C_6 
REMARK    4  A    between atoms: C_6  and  C_8 
REMARK    5  A    between atoms: C_8  and  C_9 
REMARK    6  A    between atoms: C_9  and  O_10 
ROOT
HETATM    1  C   UNK N   1      20.501  14.132   9.533  0.00  0.00     0.145 C 
HETATM    2  O   UNK N   1      19.317  14.167   9.835  0.00  0.00    -0.297 OA
ENDROOT
BRANCH   1   3
HETATM    3  C   UNK N   1      21.205  15.354   9.019  0.00  0.00     0.172 C 
BRANCH   3   4
HETATM    4  P   UNK N   1      20.096  16.631   8.222  0.00  0.00     0.101 P 
HETATM    5  C   UNK N   1      19.240  17.957   9.204  0.00  0.00     0.109 C 
HETATM    6  O   UNK N   1      21.013  17.392   7.227  0.00  0.00    -0.674 OA
BRANCH   4   7
HETATM    7  O   UNK N   1      18.978  15.882   7.127  0.00  0.00    -0.349 OA
HETATM    8  H   UNK N   1      18.376  15.143   6.942  0.00  0.00     0.217 HD
ENDBRANCH   4   7
ENDBRANCH   3   4
ENDBRANCH   1   3
BRANCH   1   9
HETATM    9  C   UNK N   1      21.315  12.867   9.673  0.00  0.00     0.188 C 
BRANCH   9  10
HETATM   10  C   UNK N   1      21.543  12.305  11.052  0.00  0.00     0.146 C 
HETATM   11  O   UNK N   1      22.662  12.219  11.531  0.00  0.00    -0.650 OA
BRANCH  10  12
HETATM   12  O   UNK N   1      20.482  11.894  11.772  0.00  0.00    -0.776 OA
HETATM   13  H   UNK N   1      19.848  11.319  11.393  0.00  0.00     0.167 HD
ENDBRANCH  10  12
ENDBRANCH   9  10
ENDBRANCH   1   9
TORSDOF 6
ENDMDL
MODEL 9
REMARK VINA RESULT:      -4.2     14.489     16.440
REMARK  6 active torsions:
REMARK  status: ('A' for Active; 'I' for Inactive)
REMARK    1  A    between atoms: P_2  and  O_3 
REMARK    2  A    between atoms: P_2  and  C_5 
REMARK    3  A    between atoms: C_5  and  C_6 
REMARK    4  A    between atoms: C_6  and  C_8 
REMARK    5  A    between atoms: C_8  and  C_9 
REMARK    6  A    between atoms: C_9  and  O_10 
ROOT
HETATM    1  C   UNK N   1      30.255  23.044  -2.568  0.00  0.00     0.145 C 
HETATM    2  O   UNK N   1      30.262  23.010  -1.346  0.00  0.00    -0.297 OA
ENDROOT
BRANCH   1   3
HETATM    3  C   UNK N   1      29.936  24.313  -3.305  0.00  0.00     0.172 C 
BRANCH   3   4
HETATM    4  P   UNK N   1      28.135  24.539  -3.752  0.00  0.00     0.101 P 
HETATM    5  C   UNK N   1      27.441  26.176  -4.294  0.00  0.00     0.109 C 
HETATM    6  O   UNK N   1      27.898  23.582  -4.951  0.00  0.00    -0.674 OA
BRANCH   4   7
HETATM    7  O   UNK N   1      27.106  23.820  -2.554  0.00  0.00    -0.349 OA
HETATM    8  H   UNK N   1      26.648  23.908  -1.703  0.00  0.00     0.217 HD
ENDBRANCH   4   7
ENDBRANCH   3   4
ENDBRANCH   1   3
BRANCH   1   9
HETATM    9  C   UNK N   1      30.576  21.822  -3.394  0.00  0.00     0.188 C 
BRANCH   9  10
HETATM   10  C   UNK N   1      31.932  21.183  -3.241  0.00  0.00     0.146 C 
HETATM   11  O   UNK N   1      32.459  20.574  -4.158  0.00  0.00    -0.650 OA
BRANCH  10  12
HETATM   12  O   UNK N   1      32.577  21.296  -2.065  0.00  0.00    -0.776 OA
HETATM   13  H   UNK N   1      33.427  21.688  -2.029  0.00  0.00     0.167 HD
ENDBRANCH  10  12
ENDBRANCH   9  10
ENDBRANCH   1   9
TORSDOF 6
ENDMDL
