REMARK  18 active torsions:
REMARK  status: ('A' for Active; 'I' for Inactive)
REMARK    1  A    between atoms: C_35  and  C_10 
REMARK    2  A    between atoms: C_18  and  C_15 
REMARK    3  A    between atoms: O_44  and  C_15 
REMARK    4  A    between atoms: C_22  and  C_16 
REMARK    5  A    between atoms: O_43  and  C_16 
REMARK    6  A    between atoms: C_26  and  C_17 
REMARK    7  A    between atoms: O_45  and  C_17 
REMARK    8  A    between atoms: C_24  and  C_18 
REMARK    9  A    between atoms: O_44  and  C_20 
REMARK   10  A    between atoms: O_46  and  C_21 
REMARK   11  A    between atoms: C_27  and  O_39 
REMARK   12  A    between atoms: C_29  and  O_40 
REMARK   13  A    between atoms: C_30  and  O_41 
REMARK   14  A    between atoms: C_31  and  O_42 
REMARK   15  A    between atoms: C_32  and  O_48 
REMARK   16  A    between atoms: C_33  and  O_46 
REMARK   17  A    between atoms: C_34  and  O_48 
REMARK   18  A    between atoms: O_45  and  C_35 
ROOT
HETATM    1  C   UNK N   1       2.352   2.714  -1.782  0.00  0.00     0.013 C 
HETATM    2  C   UNK N   1       0.694   0.322  -2.052  0.00  0.00     0.027 C 
HETATM    3  C   UNK N   1       4.638   0.111   1.800  0.00  0.00     0.012 C 
HETATM    4  C   UNK N   1       4.475   1.498   1.160  0.00  0.00     0.010 C 
HETATM    5  C   UNK N   1      -2.022  -0.105  -0.710  0.00  0.00     0.068 C 
HETATM    6  C   UNK N   1       1.686  -0.442   0.082  0.00  0.00    -0.007 C 
HETATM    7  C   UNK N   1       2.776   2.583  -0.326  0.00  0.00     0.021 C 
HETATM    8  C   UNK N   1       4.016  -0.871   0.830  0.00  0.00     0.038 C 
HETATM    9  C   UNK N   1       3.612   1.327  -0.103  0.00  0.00     0.021 C 
HETATM   10  C   UNK N   1      -1.673   1.277  -0.290  0.00  0.00    -0.066 C 
HETATM   11  C   UNK N   1       2.977  -0.003   0.186  0.00  0.00    -0.072 C 
HETATM   12  C   UNK N   1      -0.737  -0.848  -0.389  0.00  0.00     0.138 C 
HETATM   13  C   UNK N   1      -0.340   1.449  -0.118  0.00  0.00    -0.031 C 
HETATM   14  C   UNK N   1       1.662   2.826   0.738  0.00  0.00     0.156 C 
HETATM   15  C   UNK N   1       0.208   2.837   0.210  0.00  0.00     0.184 C 
HETATM   16  C   UNK N   1       0.421   0.185  -0.557  0.00  0.00     0.026 C 
ENDROOT
BRANCH  15  17
HETATM   17  O   UNK N   1      -0.052   3.663  -0.937  0.00  0.00    -0.346 OA
BRANCH  17  18
HETATM   18  C   UNK N   1       0.116   5.075  -0.819  0.00  0.00     0.292 C 
HETATM   19  C   UNK N   1      -1.074   5.799  -0.151  0.00  0.00     0.205 C 
HETATM   20  C   UNK N   1      -0.797   7.318  -0.193  0.00  0.00     0.196 C 
HETATM   21  C   UNK N   1       0.559   7.584   0.483  0.00  0.00     0.181 C 
HETATM   22  C   UNK N   1       1.662   6.746  -0.197  0.00  0.00     0.180 C 
HETATM   23  O   UNK N   1       1.334   5.381  -0.189  0.00  0.00    -0.348 OA
BRANCH  19  24
HETATM   24  O   UNK N   1      -1.228   5.391   1.177  0.00  0.00    -0.388 OA
HETATM   25  H   UNK N   1      -1.526   5.342   2.099  0.00  0.00     0.210 HD
ENDBRANCH  19  24
BRANCH  20  26
HETATM   26  O   UNK N   1      -1.782   8.039   0.466  0.00  0.00    -0.311 OA
BRANCH  26  27
HETATM   27  C   UNK N   1      -3.084   8.118   0.084  0.00  0.00     0.255 C 
HETATM   28  C   UNK N   1      -4.033   8.933   0.891  0.00  0.00     0.126 C 
HETATM   29  O   UNK N   1      -3.485   7.549  -0.920  0.00  0.00    -0.266 OA
ENDBRANCH  26  27
ENDBRANCH  20  26
BRANCH  21  30
HETATM   30  O   UNK N   1       0.875   8.944   0.414  0.00  0.00    -0.390 OA
HETATM   31  H   UNK N   1       1.801   9.226   0.366  0.00  0.00     0.210 HD
ENDBRANCH  21  30
BRANCH  22  32
HETATM   32  C   UNK N   1       2.946   6.811   0.622  0.00  0.00     0.203 C 
BRANCH  32  33
HETATM   33  O   UNK N   1       3.747   7.928   0.340  0.00  0.00    -0.374 OA
BRANCH  33  34
HETATM   34  C   UNK N   1       4.927   7.546  -0.365  0.00  0.00     0.071 C 
HETATM   35  C   UNK N   1       4.693   7.697  -1.861  0.00  0.00     0.050 C 
HETATM   36  C   UNK N   1       5.435   6.119  -0.097  0.00  0.00     0.050 C 
BRANCH  34  37
HETATM   37  C   UNK N   1       6.045   8.447   0.067  0.00  0.00    -0.000 C 
HETATM   38  C   UNK N   1       5.962   9.774  -0.029  0.00  0.00     0.010 C 
ENDBRANCH  34  37
ENDBRANCH  33  34
ENDBRANCH  32  33
ENDBRANCH  22  32
ENDBRANCH  17  18
ENDBRANCH  15  17
BRANCH  14  39
HETATM   39  O   UNK N   1       1.750   1.956   1.830  0.00  0.00    -0.392 OA
HETATM   40  H   UNK N   1       1.258   1.601   2.587  0.00  0.00     0.210 HD
ENDBRANCH  14  39
BRANCH  10  41
HETATM   41  C   UNK N   1      -2.732   2.364  -0.171  0.00  0.00     0.035 C 
HETATM   42  C   UNK N   1      -3.506   2.497  -1.476  0.00  0.00     0.017 C 
BRANCH  41  43
HETATM   43  C   UNK N   1      -3.642   2.199   1.045  0.00  0.00     0.187 C 
BRANCH  43  44
HETATM   44  O   UNK N   1      -4.788   1.486   0.776  0.00  0.00    -0.321 OA
BRANCH  44  45
HETATM   45  C   UNK N   1      -5.977   2.114   0.593  0.00  0.00     0.254 C 
HETATM   46  C   UNK N   1      -7.223   1.312   0.466  0.00  0.00     0.126 C 
HETATM   47  O   UNK N   1      -6.037   3.335   0.514  0.00  0.00    -0.266 OA
ENDBRANCH  44  45
ENDBRANCH  43  44
ENDBRANCH  41  43
ENDBRANCH  10  41
BRANCH  12  48
HETATM   48  O   UNK N   1      -0.838  -1.244   0.952  0.00  0.00    -0.394 OA
HETATM   49  H   UNK N   1      -1.111  -1.321   1.880  0.00  0.00     0.210 HD
ENDBRANCH  12  48
BRANCH   8  50
HETATM   50  C   UNK N   1       5.108  -1.283  -0.164  0.00  0.00     0.176 C 
BRANCH  50  51
HETATM   51  O   UNK N   1       4.687  -2.333  -0.978  0.00  0.00    -0.395 OA
HETATM   52  C   UNK N   1       5.616  -3.345  -0.733  0.00  0.00     0.201 C 
ENDBRANCH  50  51
ENDBRANCH   8  50
TORSDOF 18
