MODEL 1
REMARK VINA RESULT:      -5.0      0.000      0.000
REMARK  15 active torsions:
REMARK  status: ('A' for Active; 'I' for Inactive)
REMARK    1  A    between atoms: C_2  and  C_4 
REMARK    2  A    between atoms: C_4  and  C_5 
REMARK    3  A    between atoms: C_5  and  C_6 
REMARK    4  A    between atoms: C_6  and  C_7 
REMARK    5  A    between atoms: C_7  and  C_9 
REMARK    6  A    between atoms: C_9  and  C_10 
REMARK    7  A    between atoms: C_10  and  C_11 
REMARK    8  A    between atoms: C_11  and  C_12 
REMARK    9  A    between atoms: C_12  and  C_14 
REMARK   10  A    between atoms: C_14  and  C_15 
REMARK   11  A    between atoms: C_15  and  C_16 
REMARK   12  A    between atoms: C_16  and  C_17 
REMARK   13  A    between atoms: C_17  and  C_19 
REMARK   14  A    between atoms: C_19  and  C_20 
REMARK   15  A    between atoms: C_20  and  O_21 
ROOT
HETATM    1  C   UNK N   1      27.191  23.805  -5.368  0.00  0.00     0.004 C 
ENDROOT
BRANCH   1   2
HETATM    2  C   UNK N   1      26.270  24.539  -6.324  0.00  0.00     0.001 C 
BRANCH   2   3
HETATM    3  C   UNK N   1      25.387  25.451  -5.494  0.00  0.00     0.004 C 
BRANCH   3   4
HETATM    4  C   UNK N   1      25.316  26.850  -6.072  0.00  0.00    -0.019 C 
HETATM    5  C   UNK N   1      26.673  27.256  -6.630  0.00  0.00     0.010 C 
BRANCH   4   6
HETATM    6  C   UNK N   1      24.908  27.796  -4.956  0.00  0.00     0.004 C 
BRANCH   6   7
HETATM    7  C   UNK N   1      26.067  28.038  -4.011  0.00  0.00     0.001 C 
BRANCH   7   8
HETATM    8  C   UNK N   1      26.267  29.531  -3.841  0.00  0.00     0.004 C 
BRANCH   8   9
HETATM    9  C   UNK N   1      27.748  29.868  -3.852  0.00  0.00    -0.023 C 
HETATM   10  C   UNK N   1      28.550  28.596  -3.681  0.00  0.00     0.009 C 
HETATM   11  C   UNK N   1      28.132  30.516  -5.170  0.00  0.00     0.009 C 
ENDBRANCH   8   9
ENDBRANCH   7   8
ENDBRANCH   6   7
ENDBRANCH   4   6
ENDBRANCH   3   4
ENDBRANCH   2   3
ENDBRANCH   1   2
BRANCH   1  12
HETATM   12  C   UNK N   1      27.618  24.653  -4.183  0.00  0.00    -0.019 C 
HETATM   13  C   UNK N   1      27.454  23.854  -2.896  0.00  0.00     0.010 C 
BRANCH  12  14
HETATM   14  C   UNK N   1      29.081  25.032  -4.418  0.00  0.00     0.004 C 
BRANCH  14  15
HETATM   15  C   UNK N   1      30.074  24.227  -3.590  0.00  0.00     0.001 C 
BRANCH  15  16
HETATM   16  C   UNK N   1      30.873  23.256  -4.450  0.00  0.00     0.004 C 
BRANCH  16  17
HETATM   17  C   UNK N   1      30.213  21.879  -4.507  0.00  0.00    -0.017 C 
HETATM   18  C   UNK N   1      30.143  21.376  -5.944  0.00  0.00     0.010 C 
BRANCH  17  19
HETATM   19  C   UNK N   1      30.922  20.881  -3.602  0.00  0.00     0.030 C 
BRANCH  19  20
HETATM   20  C   UNK N   1      32.368  21.290  -3.366  0.00  0.00     0.164 C 
BRANCH  20  21
HETATM   21  O   UNK N   1      32.665  21.201  -2.016  0.00  0.00    -0.401 OA
HETATM   22  H   UNK N   1      32.089  21.426  -1.268  0.00  0.00     0.209 HD
ENDBRANCH  20  21
ENDBRANCH  19  20
ENDBRANCH  17  19
ENDBRANCH  16  17
ENDBRANCH  15  16
ENDBRANCH  14  15
ENDBRANCH  12  14
ENDBRANCH   1  12
TORSDOF 15
ENDMDL
MODEL 2
REMARK VINA RESULT:      -4.9      1.633      3.513
REMARK  15 active torsions:
REMARK  status: ('A' for Active; 'I' for Inactive)
REMARK    1  A    between atoms: C_2  and  C_4 
REMARK    2  A    between atoms: C_4  and  C_5 
REMARK    3  A    between atoms: C_5  and  C_6 
REMARK    4  A    between atoms: C_6  and  C_7 
REMARK    5  A    between atoms: C_7  and  C_9 
REMARK    6  A    between atoms: C_9  and  C_10 
REMARK    7  A    between atoms: C_10  and  C_11 
REMARK    8  A    between atoms: C_11  and  C_12 
REMARK    9  A    between atoms: C_12  and  C_14 
REMARK   10  A    between atoms: C_14  and  C_15 
REMARK   11  A    between atoms: C_15  and  C_16 
REMARK   12  A    between atoms: C_16  and  C_17 
REMARK   13  A    between atoms: C_17  and  C_19 
REMARK   14  A    between atoms: C_19  and  C_20 
REMARK   15  A    between atoms: C_20  and  O_21 
ROOT
HETATM    1  C   UNK N   1      25.572  26.378  -6.880  0.00  0.00     0.004 C 
ENDROOT
BRANCH   1   2
HETATM    2  C   UNK N   1      24.840  26.913  -5.664  0.00  0.00     0.001 C 
BRANCH   2   3
HETATM    3  C   UNK N   1      25.600  28.131  -5.174  0.00  0.00     0.004 C 
BRANCH   3   4
HETATM    4  C   UNK N   1      26.696  27.758  -4.197  0.00  0.00    -0.019 C 
HETATM    5  C   UNK N   1      26.093  27.380  -2.851  0.00  0.00     0.010 C 
BRANCH   4   6
HETATM    6  C   UNK N   1      27.609  28.962  -4.038  0.00  0.00     0.004 C 
BRANCH   6   7
HETATM    7  C   UNK N   1      27.665  29.763  -5.321  0.00  0.00     0.001 C 
BRANCH   7   8
HETATM    8  C   UNK N   1      28.954  29.444  -6.052  0.00  0.00     0.004 C 
BRANCH   8   9
HETATM    9  C   UNK N   1      28.659  28.701  -7.342  0.00  0.00    -0.023 C 
HETATM   10  C   UNK N   1      29.470  29.312  -8.465  0.00  0.00     0.009 C 
HETATM   11  C   UNK N   1      29.037  27.237  -7.205  0.00  0.00     0.009 C 
ENDBRANCH   8   9
ENDBRANCH   7   8
ENDBRANCH   6   7
ENDBRANCH   4   6
ENDBRANCH   3   4
ENDBRANCH   2   3
ENDBRANCH   1   2
BRANCH   1  12
HETATM   12  C   UNK N   1      25.682  24.863  -6.890  0.00  0.00    -0.019 C 
HETATM   13  C   UNK N   1      25.945  24.378  -8.310  0.00  0.00     0.010 C 
BRANCH  12  14
HETATM   14  C   UNK N   1      26.838  24.500  -5.956  0.00  0.00     0.004 C 
BRANCH  14  15
HETATM   15  C   UNK N   1      26.397  24.015  -4.581  0.00  0.00     0.001 C 
BRANCH  15  16
HETATM   16  C   UNK N   1      27.491  24.202  -3.537  0.00  0.00     0.004 C 
BRANCH  16  17
HETATM   17  C   UNK N   1      28.882  24.178  -4.168  0.00  0.00    -0.017 C 
HETATM   18  C   UNK N   1      29.635  25.466  -3.856  0.00  0.00     0.010 C 
BRANCH  17  19
HETATM   19  C   UNK N   1      29.672  22.952  -3.732  0.00  0.00     0.030 C 
BRANCH  19  20
HETATM   20  C   UNK N   1      30.790  23.335  -2.775  0.00  0.00     0.164 C 
BRANCH  20  21
HETATM   21  O   UNK N   1      30.449  22.964  -1.484  0.00  0.00    -0.401 OA
HETATM   22  H   UNK N   1      29.750  22.347  -1.212  0.00  0.00     0.209 HD
ENDBRANCH  20  21
ENDBRANCH  19  20
ENDBRANCH  17  19
ENDBRANCH  16  17
ENDBRANCH  15  16
ENDBRANCH  14  15
ENDBRANCH  12  14
ENDBRANCH   1  12
TORSDOF 15
ENDMDL
MODEL 3
REMARK VINA RESULT:      -4.8      1.484      2.410
REMARK  15 active torsions:
REMARK  status: ('A' for Active; 'I' for Inactive)
REMARK    1  A    between atoms: C_2  and  C_4 
REMARK    2  A    between atoms: C_4  and  C_5 
REMARK    3  A    between atoms: C_5  and  C_6 
REMARK    4  A    between atoms: C_6  and  C_7 
REMARK    5  A    between atoms: C_7  and  C_9 
REMARK    6  A    between atoms: C_9  and  C_10 
REMARK    7  A    between atoms: C_10  and  C_11 
REMARK    8  A    between atoms: C_11  and  C_12 
REMARK    9  A    between atoms: C_12  and  C_14 
REMARK   10  A    between atoms: C_14  and  C_15 
REMARK   11  A    between atoms: C_15  and  C_16 
REMARK   12  A    between atoms: C_16  and  C_17 
REMARK   13  A    between atoms: C_17  and  C_19 
REMARK   14  A    between atoms: C_19  and  C_20 
REMARK   15  A    between atoms: C_20  and  O_21 
ROOT
HETATM    1  C   UNK N   1      27.389  24.423  -4.053  0.00  0.00     0.004 C 
ENDROOT
BRANCH   1   2
HETATM    2  C   UNK N   1      26.241  25.335  -4.444  0.00  0.00     0.001 C 
BRANCH   2   3
HETATM    3  C   UNK N   1      26.475  26.674  -3.772  0.00  0.00     0.004 C 
BRANCH   3   4
HETATM    4  C   UNK N   1      25.433  27.699  -4.172  0.00  0.00    -0.019 C 
HETATM    5  C   UNK N   1      24.755  27.278  -5.469  0.00  0.00     0.010 C 
BRANCH   4   6
HETATM    6  C   UNK N   1      26.135  29.031  -4.362  0.00  0.00     0.004 C 
BRANCH   6   7
HETATM    7  C   UNK N   1      27.600  28.822  -4.685  0.00  0.00     0.001 C 
BRANCH   7   8
HETATM    8  C   UNK N   1      27.908  29.451  -6.029  0.00  0.00     0.004 C 
BRANCH   8   9
HETATM    9  C   UNK N   1      28.629  28.458  -6.923  0.00  0.00    -0.023 C 
HETATM   10  C   UNK N   1      29.642  27.691  -6.100  0.00  0.00     0.009 C 
HETATM   11  C   UNK N   1      27.640  27.474  -7.523  0.00  0.00     0.009 C 
ENDBRANCH   8   9
ENDBRANCH   7   8
ENDBRANCH   6   7
ENDBRANCH   4   6
ENDBRANCH   3   4
ENDBRANCH   2   3
ENDBRANCH   1   2
BRANCH   1  12
HETATM   12  C   UNK N   1      27.981  23.672  -5.233  0.00  0.00    -0.019 C 
HETATM   13  C   UNK N   1      27.147  23.937  -6.480  0.00  0.00     0.010 C 
BRANCH  12  14
HETATM   14  C   UNK N   1      29.414  24.181  -5.404  0.00  0.00     0.004 C 
BRANCH  14  15
HETATM   15  C   UNK N   1      30.115  24.516  -4.094  0.00  0.00     0.001 C 
BRANCH  15  16
HETATM   16  C   UNK N   1      31.275  23.569  -3.814  0.00  0.00     0.004 C 
BRANCH  16  17
HETATM   17  C   UNK N   1      30.874  22.459  -2.844  0.00  0.00    -0.017 C 
HETATM   18  C   UNK N   1      29.797  22.949  -1.882  0.00  0.00     0.010 C 
BRANCH  17  19
HETATM   19  C   UNK N   1      30.431  21.204  -3.582  0.00  0.00     0.030 C 
BRANCH  19  20
HETATM   20  C   UNK N   1      31.501  20.738  -4.556  0.00  0.00     0.164 C 
BRANCH  20  21
HETATM   21  O   UNK N   1      31.997  19.508  -4.154  0.00  0.00    -0.401 OA
HETATM   22  H   UNK N   1      32.145  19.200  -3.245  0.00  0.00     0.209 HD
ENDBRANCH  20  21
ENDBRANCH  19  20
ENDBRANCH  17  19
ENDBRANCH  16  17
ENDBRANCH  15  16
ENDBRANCH  14  15
ENDBRANCH  12  14
ENDBRANCH   1  12
TORSDOF 15
ENDMDL
MODEL 4
REMARK VINA RESULT:      -4.8      1.826      4.833
REMARK  15 active torsions:
REMARK  status: ('A' for Active; 'I' for Inactive)
REMARK    1  A    between atoms: C_2  and  C_4 
REMARK    2  A    between atoms: C_4  and  C_5 
REMARK    3  A    between atoms: C_5  and  C_6 
REMARK    4  A    between atoms: C_6  and  C_7 
REMARK    5  A    between atoms: C_7  and  C_9 
REMARK    6  A    between atoms: C_9  and  C_10 
REMARK    7  A    between atoms: C_10  and  C_11 
REMARK    8  A    between atoms: C_11  and  C_12 
REMARK    9  A    between atoms: C_12  and  C_14 
REMARK   10  A    between atoms: C_14  and  C_15 
REMARK   11  A    between atoms: C_15  and  C_16 
REMARK   12  A    between atoms: C_16  and  C_17 
REMARK   13  A    between atoms: C_17  and  C_19 
REMARK   14  A    between atoms: C_19  and  C_20 
REMARK   15  A    between atoms: C_20  and  O_21 
ROOT
HETATM    1  C   UNK N   1      25.599  27.678  -4.522  0.00  0.00     0.004 C 
ENDROOT
BRANCH   1   2
HETATM    2  C   UNK N   1      24.805  27.304  -5.759  0.00  0.00     0.001 C 
BRANCH   2   3
HETATM    3  C   UNK N   1      25.459  26.077  -6.365  0.00  0.00     0.004 C 
BRANCH   3   4
HETATM    4  C   UNK N   1      26.287  26.421  -7.587  0.00  0.00    -0.019 C 
HETATM    5  C   UNK N   1      25.649  25.831  -8.837  0.00  0.00     0.010 C 
BRANCH   4   6
HETATM    6  C   UNK N   1      27.676  25.842  -7.388  0.00  0.00     0.004 C 
BRANCH   6   7
HETATM    7  C   UNK N   1      27.813  24.520  -8.115  0.00  0.00     0.001 C 
BRANCH   7   8
HETATM    8  C   UNK N   1      27.979  23.407  -7.099  0.00  0.00     0.004 C 
BRANCH   8   9
HETATM    9  C   UNK N   1      27.007  22.278  -7.391  0.00  0.00    -0.023 C 
HETATM   10  C   UNK N   1      25.691  22.564  -6.701  0.00  0.00     0.009 C 
HETATM   11  C   UNK N   1      26.763  22.166  -8.886  0.00  0.00     0.009 C 
ENDBRANCH   8   9
ENDBRANCH   7   8
ENDBRANCH   6   7
ENDBRANCH   4   6
ENDBRANCH   3   4
ENDBRANCH   2   3
ENDBRANCH   1   2
BRANCH   1  12
HETATM   12  C   UNK N   1      26.686  28.702  -4.799  0.00  0.00    -0.019 C 
HETATM   13  C   UNK N   1      26.444  29.947  -3.954  0.00  0.00     0.010 C 
BRANCH  12  14
HETATM   14  C   UNK N   1      28.017  28.038  -4.441  0.00  0.00     0.004 C 
BRANCH  14  15
HETATM   15  C   UNK N   1      27.873  26.680  -3.768  0.00  0.00     0.001 C 
BRANCH  15  16
HETATM   16  C   UNK N   1      29.081  25.788  -4.026  0.00  0.00     0.004 C 
BRANCH  16  17
HETATM   17  C   UNK N   1      28.935  24.430  -3.343  0.00  0.00    -0.017 C 
HETATM   18  C   UNK N   1      27.498  23.932  -3.440  0.00  0.00     0.010 C 
BRANCH  17  19
HETATM   19  C   UNK N   1      29.916  23.412  -3.907  0.00  0.00     0.030 C 
BRANCH  19  20
HETATM   20  C   UNK N   1      30.900  22.955  -2.843  0.00  0.00     0.164 C 
BRANCH  20  21
HETATM   21  O   UNK N   1      30.352  23.145  -1.585  0.00  0.00    -0.401 OA
HETATM   22  H   UNK N   1      29.721  23.831  -1.313  0.00  0.00     0.209 HD
ENDBRANCH  20  21
ENDBRANCH  19  20
ENDBRANCH  17  19
ENDBRANCH  16  17
ENDBRANCH  15  16
ENDBRANCH  14  15
ENDBRANCH  12  14
ENDBRANCH   1  12
TORSDOF 15
ENDMDL
MODEL 5
REMARK VINA RESULT:      -4.7      2.892      6.815
REMARK  15 active torsions:
REMARK  status: ('A' for Active; 'I' for Inactive)
REMARK    1  A    between atoms: C_2  and  C_4 
REMARK    2  A    between atoms: C_4  and  C_5 
REMARK    3  A    between atoms: C_5  and  C_6 
REMARK    4  A    between atoms: C_6  and  C_7 
REMARK    5  A    between atoms: C_7  and  C_9 
REMARK    6  A    between atoms: C_9  and  C_10 
REMARK    7  A    between atoms: C_10  and  C_11 
REMARK    8  A    between atoms: C_11  and  C_12 
REMARK    9  A    between atoms: C_12  and  C_14 
REMARK   10  A    between atoms: C_14  and  C_15 
REMARK   11  A    between atoms: C_15  and  C_16 
REMARK   12  A    between atoms: C_16  and  C_17 
REMARK   13  A    between atoms: C_17  and  C_19 
REMARK   14  A    between atoms: C_19  and  C_20 
REMARK   15  A    between atoms: C_20  and  O_21 
ROOT
HETATM    1  C   UNK N   1      28.929  27.085  -5.250  0.00  0.00     0.004 C 
ENDROOT
BRANCH   1   2
HETATM    2  C   UNK N   1      28.708  26.218  -4.026  0.00  0.00     0.001 C 
BRANCH   2   3
HETATM    3  C   UNK N   1      29.232  24.832  -4.350  0.00  0.00     0.004 C 
BRANCH   3   4
HETATM    4  C   UNK N   1      28.411  23.746  -3.683  0.00  0.00    -0.019 C 
HETATM    5  C   UNK N   1      27.111  24.328  -3.143  0.00  0.00     0.010 C 
BRANCH   4   6
HETATM    6  C   UNK N   1      29.235  23.170  -2.545  0.00  0.00     0.004 C 
BRANCH   6   7
HETATM    7  C   UNK N   1      30.715  23.323  -2.827  0.00  0.00     0.001 C 
BRANCH   7   8
HETATM    8  C   UNK N   1      31.366  21.954  -2.831  0.00  0.00     0.004 C 
BRANCH   8   9
HETATM    9  C   UNK N   1      31.912  21.634  -4.211  0.00  0.00    -0.023 C 
HETATM   10  C   UNK N   1      30.817  21.010  -5.048  0.00  0.00     0.009 C 
HETATM   11  C   UNK N   1      32.389  22.903  -4.896  0.00  0.00     0.009 C 
ENDBRANCH   8   9
ENDBRANCH   7   8
ENDBRANCH   6   7
ENDBRANCH   4   6
ENDBRANCH   3   4
ENDBRANCH   2   3
ENDBRANCH   1   2
BRANCH   1  12
HETATM   12  C   UNK N   1      27.933  28.227  -5.359  0.00  0.00    -0.019 C 
HETATM   13  C   UNK N   1      27.715  28.579  -6.825  0.00  0.00     0.010 C 
BRANCH  12  14
HETATM   14  C   UNK N   1      26.637  27.743  -4.704  0.00  0.00     0.004 C 
BRANCH  14  15
HETATM   15  C   UNK N   1      25.522  27.429  -5.693  0.00  0.00     0.001 C 
BRANCH  15  16
HETATM   16  C   UNK N   1      25.195  25.941  -5.725  0.00  0.00     0.004 C 
BRANCH  16  17
HETATM   17  C   UNK N   1      26.115  25.184  -6.681  0.00  0.00    -0.017 C 
HETATM   18  C   UNK N   1      25.913  23.680  -6.541  0.00  0.00     0.010 C 
BRANCH  17  19
HETATM   19  C   UNK N   1      25.922  25.639  -8.121  0.00  0.00     0.030 C 
BRANCH  19  20
HETATM   20  C   UNK N   1      25.951  24.456  -9.075  0.00  0.00     0.164 C 
BRANCH  20  21
HETATM   21  O   UNK N   1      24.813  24.464  -9.865  0.00  0.00    -0.401 OA
HETATM   22  H   UNK N   1      24.242  23.710 -10.086  0.00  0.00     0.209 HD
ENDBRANCH  20  21
ENDBRANCH  19  20
ENDBRANCH  17  19
ENDBRANCH  16  17
ENDBRANCH  15  16
ENDBRANCH  14  15
ENDBRANCH  12  14
ENDBRANCH   1  12
TORSDOF 15
ENDMDL
MODEL 6
REMARK VINA RESULT:      -4.7      1.239      1.939
REMARK  15 active torsions:
REMARK  status: ('A' for Active; 'I' for Inactive)
REMARK    1  A    between atoms: C_2  and  C_4 
REMARK    2  A    between atoms: C_4  and  C_5 
REMARK    3  A    between atoms: C_5  and  C_6 
REMARK    4  A    between atoms: C_6  and  C_7 
REMARK    5  A    between atoms: C_7  and  C_9 
REMARK    6  A    between atoms: C_9  and  C_10 
REMARK    7  A    between atoms: C_10  and  C_11 
REMARK    8  A    between atoms: C_11  and  C_12 
REMARK    9  A    between atoms: C_12  and  C_14 
REMARK   10  A    between atoms: C_14  and  C_15 
REMARK   11  A    between atoms: C_15  and  C_16 
REMARK   12  A    between atoms: C_16  and  C_17 
REMARK   13  A    between atoms: C_17  and  C_19 
REMARK   14  A    between atoms: C_19  and  C_20 
REMARK   15  A    between atoms: C_20  and  O_21 
ROOT
HETATM    1  C   UNK N   1      28.049  24.244  -3.616  0.00  0.00     0.004 C 
ENDROOT
BRANCH   1   2
HETATM    2  C   UNK N   1      26.597  24.684  -3.647  0.00  0.00     0.001 C 
BRANCH   2   3
HETATM    3  C   UNK N   1      26.027  24.276  -4.992  0.00  0.00     0.004 C 
BRANCH   3   4
HETATM    4  C   UNK N   1      25.333  25.430  -5.686  0.00  0.00    -0.019 C 
HETATM    5  C   UNK N   1      25.881  25.601  -7.096  0.00  0.00     0.010 C 
BRANCH   4   6
HETATM    6  C   UNK N   1      25.589  26.687  -4.873  0.00  0.00     0.004 C 
BRANCH   6   7
HETATM    7  C   UNK N   1      26.089  27.806  -5.763  0.00  0.00     0.001 C 
BRANCH   7   8
HETATM    8  C   UNK N   1      27.116  28.623  -5.005  0.00  0.00     0.004 C 
BRANCH   8   9
HETATM    9  C   UNK N   1      27.972  29.421  -5.972  0.00  0.00    -0.023 C 
HETATM   10  C   UNK N   1      29.303  29.730  -5.322  0.00  0.00     0.009 C 
HETATM   11  C   UNK N   1      28.219  28.622  -7.240  0.00  0.00     0.009 C 
ENDBRANCH   8   9
ENDBRANCH   7   8
ENDBRANCH   6   7
ENDBRANCH   4   6
ENDBRANCH   3   4
ENDBRANCH   2   3
ENDBRANCH   1   2
BRANCH   1  12
HETATM   12  C   UNK N   1      28.874  24.831  -4.748  0.00  0.00    -0.019 C 
HETATM   13  C   UNK N   1      29.682  26.016  -4.233  0.00  0.00     0.010 C 
BRANCH  12  14
HETATM   14  C   UNK N   1      29.788  23.712  -5.252  0.00  0.00     0.004 C 
BRANCH  14  15
HETATM   15  C   UNK N   1      30.398  22.863  -4.145  0.00  0.00     0.001 C 
BRANCH  15  16
HETATM   16  C   UNK N   1      30.200  21.374  -4.398  0.00  0.00     0.004 C 
BRANCH  16  17
HETATM   17  C   UNK N   1      31.529  20.662  -4.643  0.00  0.00    -0.017 C 
HETATM   18  C   UNK N   1      31.630  20.196  -6.091  0.00  0.00     0.010 C 
BRANCH  17  19
HETATM   19  C   UNK N   1      32.712  21.539  -4.257  0.00  0.00     0.030 C 
BRANCH  19  20
HETATM   20  C   UNK N   1      33.491  20.928  -3.103  0.00  0.00     0.164 C 
BRANCH  20  21
HETATM   21  O   UNK N   1      32.792  21.108  -1.920  0.00  0.00    -0.401 OA
HETATM   22  H   UNK N   1      32.523  21.948  -1.515  0.00  0.00     0.209 HD
ENDBRANCH  20  21
ENDBRANCH  19  20
ENDBRANCH  17  19
ENDBRANCH  16  17
ENDBRANCH  15  16
ENDBRANCH  14  15
ENDBRANCH  12  14
ENDBRANCH   1  12
TORSDOF 15
ENDMDL
MODEL 7
REMARK VINA RESULT:      -4.6      2.934      5.631
REMARK  15 active torsions:
REMARK  status: ('A' for Active; 'I' for Inactive)
REMARK    1  A    between atoms: C_2  and  C_4 
REMARK    2  A    between atoms: C_4  and  C_5 
REMARK    3  A    between atoms: C_5  and  C_6 
REMARK    4  A    between atoms: C_6  and  C_7 
REMARK    5  A    between atoms: C_7  and  C_9 
REMARK    6  A    between atoms: C_9  and  C_10 
REMARK    7  A    between atoms: C_10  and  C_11 
REMARK    8  A    between atoms: C_11  and  C_12 
REMARK    9  A    between atoms: C_12  and  C_14 
REMARK   10  A    between atoms: C_14  and  C_15 
REMARK   11  A    between atoms: C_15  and  C_16 
REMARK   12  A    between atoms: C_16  and  C_17 
REMARK   13  A    between atoms: C_17  and  C_19 
REMARK   14  A    between atoms: C_19  and  C_20 
REMARK   15  A    between atoms: C_20  and  O_21 
ROOT
HETATM    1  C   UNK N   1      26.439  29.214  -4.607  0.00  0.00     0.004 C 
ENDROOT
BRANCH   1   2
HETATM    2  C   UNK N   1      27.745  29.620  -5.265  0.00  0.00     0.001 C 
BRANCH   2   3
HETATM    3  C   UNK N   1      27.851  28.858  -6.572  0.00  0.00     0.004 C 
BRANCH   3   4
HETATM    4  C   UNK N   1      29.268  28.394  -6.843  0.00  0.00    -0.019 C 
HETATM    5  C   UNK N   1      29.283  27.398  -7.994  0.00  0.00     0.010 C 
BRANCH   4   6
HETATM    6  C   UNK N   1      29.793  27.735  -5.579  0.00  0.00     0.004 C 
BRANCH   6   7
HETATM    7  C   UNK N   1      29.320  26.300  -5.489  0.00  0.00     0.001 C 
BRANCH   7   8
HETATM    8  C   UNK N   1      29.472  25.814  -4.061  0.00  0.00     0.004 C 
BRANCH   8   9
HETATM    9  C   UNK N   1      29.231  24.317  -3.985  0.00  0.00    -0.023 C 
HETATM   10  C   UNK N   1      27.858  24.062  -3.402  0.00  0.00     0.009 C 
HETATM   11  C   UNK N   1      29.296  23.702  -5.372  0.00  0.00     0.009 C 
ENDBRANCH   8   9
ENDBRANCH   7   8
ENDBRANCH   6   7
ENDBRANCH   4   6
ENDBRANCH   3   4
ENDBRANCH   2   3
ENDBRANCH   1   2
BRANCH   1  12
HETATM   12  C   UNK N   1      26.282  27.710  -4.474  0.00  0.00    -0.019 C 
HETATM   13  C   UNK N   1      26.151  27.336  -3.003  0.00  0.00     0.010 C 
BRANCH  12  14
HETATM   14  C   UNK N   1      25.024  27.329  -5.258  0.00  0.00     0.004 C 
BRANCH  14  15
HETATM   15  C   UNK N   1      25.288  26.429  -6.459  0.00  0.00     0.001 C 
BRANCH  15  16
HETATM   16  C   UNK N   1      25.655  25.013  -6.036  0.00  0.00     0.004 C 
BRANCH  16  17
HETATM   17  C   UNK N   1      25.828  24.092  -7.243  0.00  0.00    -0.017 C 
HETATM   18  C   UNK N   1      26.956  24.589  -8.140  0.00  0.00     0.010 C 
BRANCH  17  19
HETATM   19  C   UNK N   1      26.053  22.648  -6.817  0.00  0.00     0.030 C 
BRANCH  19  20
HETATM   20  C   UNK N   1      24.983  21.736  -7.397  0.00  0.00     0.164 C 
BRANCH  20  21
HETATM   21  O   UNK N   1      24.186  22.450  -8.276  0.00  0.00    -0.401 OA
HETATM   22  H   UNK N   1      24.462  23.150  -8.890  0.00  0.00     0.209 HD
ENDBRANCH  20  21
ENDBRANCH  19  20
ENDBRANCH  17  19
ENDBRANCH  16  17
ENDBRANCH  15  16
ENDBRANCH  14  15
ENDBRANCH  12  14
ENDBRANCH   1  12
TORSDOF 15
ENDMDL
MODEL 8
REMARK VINA RESULT:      -4.6      2.140      7.168
REMARK  15 active torsions:
REMARK  status: ('A' for Active; 'I' for Inactive)
REMARK    1  A    between atoms: C_2  and  C_4 
REMARK    2  A    between atoms: C_4  and  C_5 
REMARK    3  A    between atoms: C_5  and  C_6 
REMARK    4  A    between atoms: C_6  and  C_7 
REMARK    5  A    between atoms: C_7  and  C_9 
REMARK    6  A    between atoms: C_9  and  C_10 
REMARK    7  A    between atoms: C_10  and  C_11 
REMARK    8  A    between atoms: C_11  and  C_12 
REMARK    9  A    between atoms: C_12  and  C_14 
REMARK   10  A    between atoms: C_14  and  C_15 
REMARK   11  A    between atoms: C_15  and  C_16 
REMARK   12  A    between atoms: C_16  and  C_17 
REMARK   13  A    between atoms: C_17  and  C_19 
REMARK   14  A    between atoms: C_19  and  C_20 
REMARK   15  A    between atoms: C_20  and  O_21 
ROOT
HETATM    1  C   UNK N   1      29.962  26.302  -3.982  0.00  0.00     0.004 C 
ENDROOT
BRANCH   1   2
HETATM    2  C   UNK N   1      31.110  25.340  -4.224  0.00  0.00     0.001 C 
BRANCH   2   3
HETATM    3  C   UNK N   1      30.975  24.209  -3.224  0.00  0.00     0.004 C 
BRANCH   3   4
HETATM    4  C   UNK N   1      29.634  23.512  -3.335  0.00  0.00    -0.019 C 
HETATM    5  C   UNK N   1      29.216  22.957  -1.981  0.00  0.00     0.010 C 
BRANCH   4   6
HETATM    6  C   UNK N   1      29.777  22.382  -4.339  0.00  0.00     0.004 C 
BRANCH   6   7
HETATM    7  C   UNK N   1      30.513  21.210  -3.723  0.00  0.00     0.001 C 
BRANCH   7   8
HETATM    8  C   UNK N   1      31.508  20.664  -4.727  0.00  0.00     0.004 C 
BRANCH   8   9
HETATM    9  C   UNK N   1      32.927  20.879  -4.233  0.00  0.00    -0.023 C 
HETATM   10  C   UNK N   1      33.529  22.069  -4.949  0.00  0.00     0.009 C 
HETATM   11  C   UNK N   1      32.929  21.155  -2.739  0.00  0.00     0.009 C 
ENDBRANCH   8   9
ENDBRANCH   7   8
ENDBRANCH   6   7
ENDBRANCH   4   6
ENDBRANCH   3   4
ENDBRANCH   2   3
ENDBRANCH   1   2
BRANCH   1  12
HETATM   12  C   UNK N   1      29.668  27.191  -5.178  0.00  0.00    -0.019 C 
HETATM   13  C   UNK N   1      28.856  26.415  -6.207  0.00  0.00     0.010 C 
BRANCH  12  14
HETATM   14  C   UNK N   1      28.887  28.396  -4.648  0.00  0.00     0.004 C 
BRANCH  14  15
HETATM   15  C   UNK N   1      27.545  28.617  -5.334  0.00  0.00     0.001 C 
BRANCH  15  16
HETATM   16  C   UNK N   1      26.428  28.859  -4.327  0.00  0.00     0.004 C 
BRANCH  16  17
HETATM   17  C   UNK N   1      25.571  27.611  -4.126  0.00  0.00    -0.017 C 
HETATM   18  C   UNK N   1      25.093  27.066  -5.467  0.00  0.00     0.010 C 
BRANCH  17  19
HETATM   19  C   UNK N   1      26.311  26.548  -3.326  0.00  0.00     0.030 C 
BRANCH  19  20
HETATM   20  C   UNK N   1      26.309  25.215  -4.057  0.00  0.00     0.164 C 
BRANCH  20  21
HETATM   21  O   UNK N   1      26.204  24.179  -3.143  0.00  0.00    -0.401 OA
HETATM   22  H   UNK N   1      25.689  24.168  -2.320  0.00  0.00     0.209 HD
ENDBRANCH  20  21
ENDBRANCH  19  20
ENDBRANCH  17  19
ENDBRANCH  16  17
ENDBRANCH  15  16
ENDBRANCH  14  15
ENDBRANCH  12  14
ENDBRANCH   1  12
TORSDOF 15
ENDMDL
MODEL 9
REMARK VINA RESULT:      -4.6      2.751      6.740
REMARK  15 active torsions:
REMARK  status: ('A' for Active; 'I' for Inactive)
REMARK    1  A    between atoms: C_2  and  C_4 
REMARK    2  A    between atoms: C_4  and  C_5 
REMARK    3  A    between atoms: C_5  and  C_6 
REMARK    4  A    between atoms: C_6  and  C_7 
REMARK    5  A    between atoms: C_7  and  C_9 
REMARK    6  A    between atoms: C_9  and  C_10 
REMARK    7  A    between atoms: C_10  and  C_11 
REMARK    8  A    between atoms: C_11  and  C_12 
REMARK    9  A    between atoms: C_12  and  C_14 
REMARK   10  A    between atoms: C_14  and  C_15 
REMARK   11  A    between atoms: C_15  and  C_16 
REMARK   12  A    between atoms: C_16  and  C_17 
REMARK   13  A    between atoms: C_17  and  C_19 
REMARK   14  A    between atoms: C_19  and  C_20 
REMARK   15  A    between atoms: C_20  and  O_21 
ROOT
HETATM    1  C   UNK N   1      26.844  26.838  -3.809  0.00  0.00     0.004 C 
ENDROOT
BRANCH   1   2
HETATM    2  C   UNK N   1      28.311  27.144  -4.044  0.00  0.00     0.001 C 
BRANCH   2   3
HETATM    3  C   UNK N   1      29.036  25.819  -4.178  0.00  0.00     0.004 C 
BRANCH   3   4
HETATM    4  C   UNK N   1      30.399  25.850  -3.516  0.00  0.00    -0.019 C 
HETATM    5  C   UNK N   1      31.260  26.940  -4.138  0.00  0.00     0.010 C 
BRANCH   4   6
HETATM    6  C   UNK N   1      31.049  24.493  -3.722  0.00  0.00     0.004 C 
BRANCH   6   7
HETATM    7  C   UNK N   1      30.011  23.391  -3.678  0.00  0.00     0.001 C 
BRANCH   7   8
HETATM    8  C   UNK N   1      30.672  22.101  -3.235  0.00  0.00     0.004 C 
BRANCH   8   9
HETATM    9  C   UNK N   1      30.396  20.996  -4.239  0.00  0.00    -0.023 C 
HETATM   10  C   UNK N   1      29.892  21.608  -5.528  0.00  0.00     0.009 C 
HETATM   11  C   UNK N   1      31.668  20.219  -4.530  0.00  0.00     0.009 C 
ENDBRANCH   8   9
ENDBRANCH   7   8
ENDBRANCH   6   7
ENDBRANCH   4   6
ENDBRANCH   3   4
ENDBRANCH   2   3
ENDBRANCH   1   2
BRANCH   1  12
HETATM   12  C   UNK N   1      25.921  27.949  -4.279  0.00  0.00    -0.019 C 
HETATM   13  C   UNK N   1      26.747  29.087  -4.866  0.00  0.00     0.010 C 
BRANCH  12  14
HETATM   14  C   UNK N   1      24.995  27.336  -5.331  0.00  0.00     0.004 C 
BRANCH  14  15
HETATM   15  C   UNK N   1      25.290  25.875  -5.643  0.00  0.00     0.001 C 
BRANCH  15  16
HETATM   16  C   UNK N   1      25.784  25.689  -7.072  0.00  0.00     0.004 C 
BRANCH  16  17
HETATM   17  C   UNK N   1      26.383  24.301  -7.285  0.00  0.00    -0.017 C 
HETATM   18  C   UNK N   1      26.486  23.552  -5.962  0.00  0.00     0.010 C 
BRANCH  17  19
HETATM   19  C   UNK N   1      25.596  23.504  -8.316  0.00  0.00     0.030 C 
BRANCH  19  20
HETATM   20  C   UNK N   1      25.124  22.180  -7.736  0.00  0.00     0.164 C 
BRANCH  20  21
HETATM   21  O   UNK N   1      23.789  21.981  -8.049  0.00  0.00    -0.401 OA
HETATM   22  H   UNK N   1      23.014  22.265  -7.538  0.00  0.00     0.209 HD
ENDBRANCH  20  21
ENDBRANCH  19  20
ENDBRANCH  17  19
ENDBRANCH  16  17
ENDBRANCH  15  16
ENDBRANCH  14  15
ENDBRANCH  12  14
ENDBRANCH   1  12
TORSDOF 15
ENDMDL
