MODEL 1
REMARK VINA RESULT:      -6.8      0.000      0.000
REMARK  28 active torsions:
REMARK  status: ('A' for Active; 'I' for Inactive)
REMARK    1  A    between atoms: N_23  and  C_4 
REMARK    2  A    between atoms: C_6  and  C_5 
REMARK    3  A    between atoms: C_12  and  C_5 
REMARK    4  A    between atoms: N_25  and  C_6 
REMARK    5  A    between atoms: C_11  and  C_7 
REMARK    6  A    between atoms: O_45  and  C_7 
REMARK    7  A    between atoms: C_21  and  C_8 
REMARK    8  A    between atoms: O_46  and  C_8 
REMARK    9  A    between atoms: N_23  and  C_12 
REMARK   10  A    between atoms: O_34  and  C_12 
REMARK   11  A    between atoms: C_14  and  O_35 
REMARK   12  A    between atoms: C_15  and  O_48 
REMARK   13  A    between atoms: C_19  and  C_16 
REMARK   14  A    between atoms: C_21  and  C_16 
REMARK   15  A    between atoms: C_16  and  O_36 
REMARK   16  A    between atoms: N_22  and  C_17 
REMARK   17  A    between atoms: N_25  and  C_19 
REMARK   18  A    between atoms: O_37  and  C_19 
REMARK   19  A    between atoms: C_20  and  N_33 
REMARK   20  A    between atoms: P_50  and  O_38 
REMARK   21  A    between atoms: P_50  and  O_39 
REMARK   22  A    between atoms: P_51  and  O_41 
REMARK   23  A    between atoms: P_52  and  O_43 
REMARK   24  A    between atoms: P_51  and  O_45 
REMARK   25  A    between atoms: P_52  and  O_46 
REMARK   26  A    between atoms: P_50  and  O_48 
REMARK   27  A    between atoms: P_51  and  O_49 
REMARK   28  A    between atoms: P_52  and  O_49 
ROOT
HETATM    1  O   UNK N   1      34.507  16.508   9.206  0.00  0.00    -0.294 OA
ENDROOT
BRANCH   1   2
HETATM    2  C   UNK N   1      35.279  16.986  10.269  0.00  0.00     0.215 C 
BRANCH   2   3
HETATM    3  C   UNK N   1      36.137  15.851  10.837  0.00  0.00     0.180 C 
HETATM    4  C   UNK N   1      36.020  14.543  10.027  0.00  0.00     0.197 C 
HETATM    5  C   UNK N   1      36.334  13.556  11.101  0.00  0.00     0.199 C 
HETATM    6  C   UNK N   1      35.484  14.170  12.206  0.00  0.00     0.262 C 
HETATM    7  O   UNK N   1      35.762  15.557  12.180  0.00  0.00    -0.353 OA
BRANCH   4   8
HETATM    8  O   UNK N   1      36.956  14.428   8.981  0.00  0.00    -0.286 OA
BRANCH   8   9
HETATM    9  P   UNK N   1      36.279  13.541   7.641  0.00  0.00     0.391 P 
HETATM   10  O   UNK N   1      34.751  13.795   7.700  0.00  0.00    -0.632 OA
BRANCH   9  11
HETATM   11  O   UNK N   1      36.534  11.822   7.708  0.00  0.00    -0.307 OA
HETATM   12  H   UNK N   1      36.730  11.072   8.290  0.00  0.00     0.222 HD
ENDBRANCH   9  11
BRANCH   9  13
HETATM   13  O   UNK N   1      36.832  14.183   6.126  0.00  0.00    -0.307 OA
HETATM   14  H   UNK N   1      37.092  13.594   5.401  0.00  0.00     0.222 HD
ENDBRANCH   9  13
ENDBRANCH   8   9
ENDBRANCH   4   8
BRANCH   5  15
HETATM   15  O   UNK N   1      37.696  13.636  11.433  0.00  0.00    -0.388 OA
HETATM   16  H   UNK N   1      38.446  13.889  11.994  0.00  0.00     0.210 HD
ENDBRANCH   5  15
BRANCH   6  17
HETATM   17  N   UNK N   1      35.694  13.578  13.536  0.00  0.00    -0.297 N 
HETATM   18  C   UNK N   1      36.474  14.120  14.509  0.00  0.00     0.188 A 
HETATM   19  N   UNK N   1      36.411  13.395  15.661  0.00  0.00    -0.346 N 
HETATM   20  C   UNK N   1      35.556  12.395  15.382  0.00  0.00     0.122 A 
ATOM     21  HN  UNK N   1      36.902  13.572  16.538  1.00  0.00     0.167 HD
HETATM   22  C   UNK N   1      35.078  11.382  16.197  0.00  0.00     0.131 A 
HETATM   23  C   UNK N   1      35.132  12.499  14.109  0.00  0.00     0.142 A 
HETATM   24  N   UNK N   1      34.177  10.502  15.666  0.00  0.00    -0.337 N 
HETATM   25  C   UNK N   1      33.756  10.624  14.365  0.00  0.00     0.183 A 
ATOM     26  HN  UNK N   1      33.812   9.745  16.245  1.00  0.00     0.168 HD
HETATM   27  N   UNK N   1      34.230  11.636  13.577  0.00  0.00    -0.336 N 
ATOM     28  HN  UNK N   1      33.912  11.739  12.613  1.00  0.00     0.168 HD
BRANCH  22  29
HETATM   29  N   UNK N   1      35.485  11.269  17.541  0.00  0.00    -0.383 N 
HETATM   30  H   UNK N   1      35.140  10.543  18.111  0.00  0.00     0.157 HD
HETATM   31  H   UNK N   1      36.120  11.921  17.914  0.00  0.00     0.157 HD
ENDBRANCH  22  29
ENDBRANCH   6  17
ENDBRANCH   2   3
ENDBRANCH   1   2
BRANCH   1  32
HETATM   32  P   UNK N   1      34.312  17.820   8.077  0.00  0.00     0.401 P 
HETATM   33  O   UNK N   1      35.044  19.147   8.412  0.00  0.00    -0.631 OA
BRANCH  32  34
HETATM   34  O   UNK N   1      32.989  18.320   9.076  0.00  0.00    -0.307 OA
HETATM   35  H   UNK N   1      32.379  18.331   9.830  0.00  0.00     0.222 HD
ENDBRANCH  32  34
BRANCH  32  36
HETATM   36  O   UNK N   1      33.156  17.866   6.764  0.00  0.00    -0.195 OA
BRANCH  36  37
HETATM   37  P   UNK N   1      33.606  16.686   5.560  0.00  0.00     0.401 P 
HETATM   38  O   UNK N   1      32.642  17.579   4.729  0.00  0.00    -0.631 OA
BRANCH  37  39
HETATM   39  O   UNK N   1      32.809  16.022   6.945  0.00  0.00    -0.307 OA
HETATM   40  H   UNK N   1      33.047  15.202   7.406  0.00  0.00     0.222 HD
ENDBRANCH  37  39
BRANCH  37  41
HETATM   41  O   UNK N   1      32.543  15.283   5.205  0.00  0.00    -0.296 OA
BRANCH  41  42
HETATM   42  C   UNK N   1      31.904  15.224   3.927  0.00  0.00     0.192 C 
BRANCH  42  43
HETATM   43  C   UNK N   1      30.389  14.879   3.972  0.00  0.00     0.008 C 
HETATM   44  C   UNK N   1      29.958  14.191   2.692  0.00  0.00     0.020 C 
HETATM   45  C   UNK N   1      30.094  13.936   5.135  0.00  0.00     0.020 C 
BRANCH  43  46
HETATM   46  C   UNK N   1      29.515  16.152   4.093  0.00  0.00     0.202 C 
BRANCH  46  47
HETATM   47  C   UNK N   1      29.116  16.552   5.491  0.00  0.00     0.141 C 
BRANCH  47  48
HETATM   48  N   UNK N   1      29.953  17.139   6.270  0.00  0.00    -0.372 N 
ATOM     49  HN  UNK N   1      30.718  17.673   5.856  1.00  0.00     0.161 HD
BRANCH  48  50
HETATM   50  C   UNK N   1      29.856  17.071   7.703  0.00  0.00     0.129 C 
BRANCH  50  51
HETATM   51  C   UNK N   1      29.526  18.458   8.212  0.00  0.00     0.103 C 
BRANCH  51  52
HETATM   52  C   UNK N   1      28.087  18.607   8.584  0.00  0.00     0.112 C 
BRANCH  52  53
HETATM   53  N   UNK N   1      27.387  19.510   7.994  0.00  0.00    -0.375 N 
ATOM     54  HN  UNK N   1      26.530  19.839   8.440  1.00  0.00     0.161 HD
BRANCH  53  55
HETATM   55  C   UNK N   1      27.771  20.072   6.726  0.00  0.00     0.117 C 
HETATM   56  C   UNK N   1      26.772  19.652   5.670  0.00  0.00     0.026 C 
ENDBRANCH  53  55
ENDBRANCH  52  53
BRANCH  52  57
HETATM   57  O   UNK N   1      27.530  17.802   9.517  0.00  0.00    -0.350 OA
HETATM   58  H   UNK N   1      27.380  18.022  10.417  0.00  0.00     0.219 HD
ENDBRANCH  52  57
ENDBRANCH  51  52
ENDBRANCH  50  51
ENDBRANCH  48  50
ENDBRANCH  47  48
BRANCH  47  59
HETATM   59  O   UNK N   1      27.864  16.276   5.915  0.00  0.00    -0.348 OA
HETATM   60  H   UNK N   1      27.162  16.878   5.763  0.00  0.00     0.219 HD
ENDBRANCH  47  59
ENDBRANCH  46  47
BRANCH  46  61
HETATM   61  O   UNK N   1      30.177  17.231   3.497  0.00  0.00    -0.387 OA
HETATM   62  H   UNK N   1      31.005  17.729   3.428  0.00  0.00     0.210 HD
ENDBRANCH  46  61
ENDBRANCH  43  46
ENDBRANCH  42  43
ENDBRANCH  41  42
ENDBRANCH  37  41
ENDBRANCH  36  37
ENDBRANCH  32  36
ENDBRANCH   1  32
TORSDOF 28
ENDMDL
MODEL 2
REMARK VINA RESULT:      -6.8     10.543     13.757
REMARK  28 active torsions:
REMARK  status: ('A' for Active; 'I' for Inactive)
REMARK    1  A    between atoms: N_23  and  C_4 
REMARK    2  A    between atoms: C_6  and  C_5 
REMARK    3  A    between atoms: C_12  and  C_5 
REMARK    4  A    between atoms: N_25  and  C_6 
REMARK    5  A    between atoms: C_11  and  C_7 
REMARK    6  A    between atoms: O_45  and  C_7 
REMARK    7  A    between atoms: C_21  and  C_8 
REMARK    8  A    between atoms: O_46  and  C_8 
REMARK    9  A    between atoms: N_23  and  C_12 
REMARK   10  A    between atoms: O_34  and  C_12 
REMARK   11  A    between atoms: C_14  and  O_35 
REMARK   12  A    between atoms: C_15  and  O_48 
REMARK   13  A    between atoms: C_19  and  C_16 
REMARK   14  A    between atoms: C_21  and  C_16 
REMARK   15  A    between atoms: C_16  and  O_36 
REMARK   16  A    between atoms: N_22  and  C_17 
REMARK   17  A    between atoms: N_25  and  C_19 
REMARK   18  A    between atoms: O_37  and  C_19 
REMARK   19  A    between atoms: C_20  and  N_33 
REMARK   20  A    between atoms: P_50  and  O_38 
REMARK   21  A    between atoms: P_50  and  O_39 
REMARK   22  A    between atoms: P_51  and  O_41 
REMARK   23  A    between atoms: P_52  and  O_43 
REMARK   24  A    between atoms: P_51  and  O_45 
REMARK   25  A    between atoms: P_52  and  O_46 
REMARK   26  A    between atoms: P_50  and  O_48 
REMARK   27  A    between atoms: P_51  and  O_49 
REMARK   28  A    between atoms: P_52  and  O_49 
ROOT
HETATM    1  O   UNK N   1      20.489  16.874   6.401  0.00  0.00    -0.294 OA
ENDROOT
BRANCH   1   2
HETATM    2  C   UNK N   1      21.048  18.132   6.643  0.00  0.00     0.215 C 
BRANCH   2   3
HETATM    3  C   UNK N   1      22.044  18.479   5.532  0.00  0.00     0.180 C 
HETATM    4  C   UNK N   1      21.615  17.943   4.150  0.00  0.00     0.197 C 
HETATM    5  C   UNK N   1      22.956  17.807   3.509  0.00  0.00     0.199 C 
HETATM    6  C   UNK N   1      23.688  17.172   4.684  0.00  0.00     0.262 C 
HETATM    7  O   UNK N   1      23.331  17.939   5.819  0.00  0.00    -0.353 OA
BRANCH   4   8
HETATM    8  O   UNK N   1      20.818  18.837   3.408  0.00  0.00    -0.286 OA
BRANCH   8   9
HETATM    9  P   UNK N   1      19.417  18.024   2.764  0.00  0.00     0.391 P 
HETATM   10  O   UNK N   1      19.883  17.371   1.437  0.00  0.00    -0.632 OA
BRANCH   9  11
HETATM   11  O   UNK N   1      18.078  19.071   2.396  0.00  0.00    -0.307 OA
HETATM   12  H   UNK N   1      17.457  19.722   2.759  0.00  0.00     0.222 HD
ENDBRANCH   9  11
BRANCH   9  13
HETATM   13  O   UNK N   1      18.913  16.730   3.805  0.00  0.00    -0.307 OA
HETATM   14  H   UNK N   1      18.833  15.823   3.470  0.00  0.00     0.222 HD
ENDBRANCH   9  13
ENDBRANCH   8   9
ENDBRANCH   4   8
BRANCH   5  15
HETATM   15  O   UNK N   1      23.482  19.081   3.238  0.00  0.00    -0.388 OA
HETATM   16  H   UNK N   1      23.584  20.034   3.386  0.00  0.00     0.210 HD
ENDBRANCH   5  15
BRANCH   6  17
HETATM   17  N   UNK N   1      25.144  17.068   4.511  0.00  0.00    -0.297 N 
HETATM   18  C   UNK N   1      25.767  16.132   3.747  0.00  0.00     0.188 A 
HETATM   19  N   UNK N   1      27.114  16.333   3.709  0.00  0.00    -0.346 N 
HETATM   20  C   UNK N   1      27.310  17.433   4.460  0.00  0.00     0.122 A 
ATOM     21  HN  UNK N   1      27.816  15.776   3.221  1.00  0.00     0.167 HD
HETATM   22  C   UNK N   1      28.479  18.125   4.733  0.00  0.00     0.131 A 
HETATM   23  C   UNK N   1      26.133  17.869   4.946  0.00  0.00     0.142 A 
HETATM   24  N   UNK N   1      28.394  19.247   5.508  0.00  0.00    -0.337 N 
HETATM   25  C   UNK N   1      27.185  19.677   5.995  0.00  0.00     0.183 A 
ATOM     26  HN  UNK N   1      29.240  19.773   5.726  1.00  0.00     0.168 HD
HETATM   27  N   UNK N   1      26.039  18.988   5.708  0.00  0.00    -0.336 N 
ATOM     28  HN  UNK N   1      25.135  19.308   6.057  1.00  0.00     0.168 HD
BRANCH  22  29
HETATM   29  N   UNK N   1      29.718  17.704   4.212  0.00  0.00    -0.383 N 
HETATM   30  H   UNK N   1      29.775  17.304   3.313  0.00  0.00     0.157 HD
HETATM   31  H   UNK N   1      30.535  17.810   4.750  0.00  0.00     0.157 HD
ENDBRANCH  22  29
ENDBRANCH   6  17
ENDBRANCH   2   3
ENDBRANCH   1   2
BRANCH   1  32
HETATM   32  P   UNK N   1      19.912  16.262   7.926  0.00  0.00     0.401 P 
HETATM   33  O   UNK N   1      18.417  16.510   8.261  0.00  0.00    -0.631 OA
BRANCH  32  34
HETATM   34  O   UNK N   1      20.294  17.829   8.558  0.00  0.00    -0.307 OA
HETATM   35  H   UNK N   1      20.184  18.655   9.053  0.00  0.00     0.222 HD
ENDBRANCH  32  34
BRANCH  32  36
HETATM   36  O   UNK N   1      20.920  15.649   9.220  0.00  0.00    -0.195 OA
BRANCH  36  37
HETATM   37  P   UNK N   1      20.523  13.975   9.513  0.00  0.00     0.401 P 
HETATM   38  O   UNK N   1      22.059  13.945   9.757  0.00  0.00    -0.631 OA
BRANCH  37  39
HETATM   39  O   UNK N   1      20.153  14.526   7.914  0.00  0.00    -0.307 OA
HETATM   40  H   UNK N   1      19.285  14.820   7.597  0.00  0.00     0.222 HD
ENDBRANCH  37  39
BRANCH  37  41
HETATM   41  O   UNK N   1      20.747  12.739   8.230  0.00  0.00    -0.296 OA
BRANCH  41  42
HETATM   42  C   UNK N   1      22.076  12.297   7.940  0.00  0.00     0.192 C 
BRANCH  42  43
HETATM   43  C   UNK N   1      22.382  12.103   6.429  0.00  0.00     0.008 C 
HETATM   44  C   UNK N   1      23.657  11.306   6.237  0.00  0.00     0.020 C 
HETATM   45  C   UNK N   1      21.246  11.341   5.751  0.00  0.00     0.020 C 
BRANCH  43  46
HETATM   46  C   UNK N   1      22.607  13.457   5.711  0.00  0.00     0.202 C 
BRANCH  46  47
HETATM   47  C   UNK N   1      21.609  13.813   4.638  0.00  0.00     0.141 C 
BRANCH  47  48
HETATM   48  N   UNK N   1      21.847  13.543   3.404  0.00  0.00    -0.372 N 
ATOM     49  HN  UNK N   1      22.181  12.609   3.162  1.00  0.00     0.161 HD
BRANCH  48  50
HETATM   50  C   UNK N   1      21.665  14.505   2.352  0.00  0.00     0.129 C 
BRANCH  50  51
HETATM   51  C   UNK N   1      20.800  13.867   1.285  0.00  0.00     0.103 C 
BRANCH  51  52
HETATM   52  C   UNK N   1      19.348  14.172   1.465  0.00  0.00     0.112 C 
BRANCH  52  53
HETATM   53  N   UNK N   1      18.656  14.512   0.436  0.00  0.00    -0.375 N 
ATOM     54  HN  UNK N   1      18.951  15.322  -0.110  1.00  0.00     0.161 HD
BRANCH  53  55
HETATM   55  C   UNK N   1      17.480  13.789   0.029  0.00  0.00     0.117 C 
HETATM   56  C   UNK N   1      17.821  12.320  -0.113  0.00  0.00     0.026 C 
ENDBRANCH  53  55
ENDBRANCH  52  53
BRANCH  52  57
HETATM   57  O   UNK N   1      18.772  14.085   2.686  0.00  0.00    -0.350 OA
HETATM   58  H   UNK N   1      17.913  13.755   2.868  0.00  0.00     0.219 HD
ENDBRANCH  52  57
ENDBRANCH  51  52
ENDBRANCH  50  51
ENDBRANCH  48  50
ENDBRANCH  47  48
BRANCH  47  59
HETATM   59  O   UNK N   1      20.461  14.428   4.994  0.00  0.00    -0.348 OA
HETATM   60  H   UNK N   1      20.413  14.938   5.779  0.00  0.00     0.219 HD
ENDBRANCH  47  59
ENDBRANCH  46  47
BRANCH  46  61
HETATM   61  O   UNK N   1      22.627  14.488   6.656  0.00  0.00    -0.387 OA
HETATM   62  H   UNK N   1      23.155  14.975   7.307  0.00  0.00     0.210 HD
ENDBRANCH  46  61
ENDBRANCH  43  46
ENDBRANCH  42  43
ENDBRANCH  41  42
ENDBRANCH  37  41
ENDBRANCH  36  37
ENDBRANCH  32  36
ENDBRANCH   1  32
TORSDOF 28
ENDMDL
MODEL 3
REMARK VINA RESULT:      -6.6      5.499     12.097
REMARK  28 active torsions:
REMARK  status: ('A' for Active; 'I' for Inactive)
REMARK    1  A    between atoms: N_23  and  C_4 
REMARK    2  A    between atoms: C_6  and  C_5 
REMARK    3  A    between atoms: C_12  and  C_5 
REMARK    4  A    between atoms: N_25  and  C_6 
REMARK    5  A    between atoms: C_11  and  C_7 
REMARK    6  A    between atoms: O_45  and  C_7 
REMARK    7  A    between atoms: C_21  and  C_8 
REMARK    8  A    between atoms: O_46  and  C_8 
REMARK    9  A    between atoms: N_23  and  C_12 
REMARK   10  A    between atoms: O_34  and  C_12 
REMARK   11  A    between atoms: C_14  and  O_35 
REMARK   12  A    between atoms: C_15  and  O_48 
REMARK   13  A    between atoms: C_19  and  C_16 
REMARK   14  A    between atoms: C_21  and  C_16 
REMARK   15  A    between atoms: C_16  and  O_36 
REMARK   16  A    between atoms: N_22  and  C_17 
REMARK   17  A    between atoms: N_25  and  C_19 
REMARK   18  A    between atoms: O_37  and  C_19 
REMARK   19  A    between atoms: C_20  and  N_33 
REMARK   20  A    between atoms: P_50  and  O_38 
REMARK   21  A    between atoms: P_50  and  O_39 
REMARK   22  A    between atoms: P_51  and  O_41 
REMARK   23  A    between atoms: P_52  and  O_43 
REMARK   24  A    between atoms: P_51  and  O_45 
REMARK   25  A    between atoms: P_52  and  O_46 
REMARK   26  A    between atoms: P_50  and  O_48 
REMARK   27  A    between atoms: P_51  and  O_49 
REMARK   28  A    between atoms: P_52  and  O_49 
ROOT
HETATM    1  O   UNK N   1      25.102  19.273   5.260  0.00  0.00    -0.294 OA
ENDROOT
BRANCH   1   2
HETATM    2  C   UNK N   1      24.406  19.179   4.052  0.00  0.00     0.215 C 
BRANCH   2   3
HETATM    3  C   UNK N   1      23.464  17.971   4.090  0.00  0.00     0.180 C 
HETATM    4  C   UNK N   1      21.976  18.365   3.992  0.00  0.00     0.197 C 
HETATM    5  C   UNK N   1      21.364  17.208   4.709  0.00  0.00     0.199 C 
HETATM    6  C   UNK N   1      22.344  17.141   5.874  0.00  0.00     0.262 C 
HETATM    7  O   UNK N   1      23.633  17.236   5.298  0.00  0.00    -0.353 OA
BRANCH   4   8
HETATM    8  O   UNK N   1      21.482  18.427   2.674  0.00  0.00    -0.286 OA
BRANCH   8   9
HETATM    9  P   UNK N   1      20.159  19.557   2.563  0.00  0.00     0.391 P 
HETATM   10  O   UNK N   1      20.297  20.487   3.796  0.00  0.00    -0.632 OA
BRANCH   9  11
HETATM   11  O   UNK N   1      18.580  18.832   2.620  0.00  0.00    -0.307 OA
HETATM   12  H   UNK N   1      18.067  18.033   2.423  0.00  0.00     0.222 HD
ENDBRANCH   9  11
BRANCH   9  13
HETATM   13  O   UNK N   1      20.318  20.566   1.160  0.00  0.00    -0.307 OA
HETATM   14  H   UNK N   1      19.857  21.418   1.103  0.00  0.00     0.222 HD
ENDBRANCH   9  13
ENDBRANCH   8   9
ENDBRANCH   4   8
BRANCH   5  15
HETATM   15  O   UNK N   1      21.469  16.053   3.918  0.00  0.00    -0.388 OA
HETATM   16  H   UNK N   1      21.747  15.142   3.732  0.00  0.00     0.210 HD
ENDBRANCH   5  15
BRANCH   6  17
HETATM   17  N   UNK N   1      22.194  15.954   6.729  0.00  0.00    -0.297 N 
HETATM   18  C   UNK N   1      21.016  15.515   7.244  0.00  0.00     0.188 A 
HETATM   19  N   UNK N   1      21.172  14.346   7.926  0.00  0.00    -0.346 N 
HETATM   20  C   UNK N   1      22.482  14.061   7.806  0.00  0.00     0.122 A 
ATOM     21  HN  UNK N   1      20.457  13.808   8.417  1.00  0.00     0.167 HD
HETATM   22  C   UNK N   1      23.197  12.965   8.261  0.00  0.00     0.131 A 
HETATM   23  C   UNK N   1      23.095  15.026   7.097  0.00  0.00     0.142 A 
HETATM   24  N   UNK N   1      24.531  12.903   7.970  0.00  0.00    -0.337 N 
HETATM   25  C   UNK N   1      25.140  13.897   7.244  0.00  0.00     0.183 A 
ATOM     26  HN  UNK N   1      25.081  12.108   8.295  1.00  0.00     0.168 HD
HETATM   27  N   UNK N   1      24.417  14.968   6.794  0.00  0.00    -0.336 N 
ATOM     28  HN  UNK N   1      24.861  15.704   6.245  1.00  0.00     0.168 HD
BRANCH  22  29
HETATM   29  N   UNK N   1      22.571  11.929   8.981  0.00  0.00    -0.383 N 
HETATM   30  H   UNK N   1      22.995  11.550   9.786  0.00  0.00     0.157 HD
HETATM   31  H   UNK N   1      21.702  11.580   8.678  0.00  0.00     0.157 HD
ENDBRANCH  22  29
ENDBRANCH   6  17
ENDBRANCH   2   3
ENDBRANCH   1   2
BRANCH   1  32
HETATM   32  P   UNK N   1      26.728  18.725   4.966  0.00  0.00     0.401 P 
HETATM   33  O   UNK N   1      26.928  17.717   3.803  0.00  0.00    -0.631 OA
BRANCH  32  34
HETATM   34  O   UNK N   1      26.341  17.405   6.018  0.00  0.00    -0.307 OA
HETATM   35  H   UNK N   1      26.247  16.904   6.843  0.00  0.00     0.222 HD
ENDBRANCH  32  34
BRANCH  32  36
HETATM   36  O   UNK N   1      28.095  18.988   6.027  0.00  0.00    -0.195 OA
BRANCH  36  37
HETATM   37  P   UNK N   1      28.268  17.617   7.093  0.00  0.00     0.401 P 
HETATM   38  O   UNK N   1      28.925  18.730   7.959  0.00  0.00    -0.631 OA
BRANCH  37  39
HETATM   39  O   UNK N   1      29.079  17.445   5.574  0.00  0.00    -0.307 OA
HETATM   40  H   UNK N   1      29.854  17.947   5.278  0.00  0.00     0.222 HD
ENDBRANCH  37  39
BRANCH  37  41
HETATM   41  O   UNK N   1      29.812  16.704   7.174  0.00  0.00    -0.296 OA
BRANCH  41  42
HETATM   42  C   UNK N   1      30.908  17.154   6.374  0.00  0.00     0.192 C 
BRANCH  42  43
HETATM   43  C   UNK N   1      32.304  16.666   6.848  0.00  0.00     0.008 C 
HETATM   44  C   UNK N   1      32.502  15.200   6.514  0.00  0.00     0.020 C 
HETATM   45  C   UNK N   1      33.408  17.459   6.154  0.00  0.00     0.020 C 
BRANCH  43  46
HETATM   46  C   UNK N   1      32.461  16.782   8.385  0.00  0.00     0.202 C 
BRANCH  46  47
HETATM   47  C   UNK N   1      33.875  16.768   8.910  0.00  0.00     0.141 C 
BRANCH  47  48
HETATM   48  N   UNK N   1      34.450  15.659   9.217  0.00  0.00    -0.372 N 
ATOM     49  HN  UNK N   1      35.182  15.300   8.603  1.00  0.00     0.161 HD
BRANCH  48  50
HETATM   50  C   UNK N   1      34.101  14.905  10.389  0.00  0.00     0.129 C 
BRANCH  50  51
HETATM   51  C   UNK N   1      35.314  14.099  10.800  0.00  0.00     0.103 C 
BRANCH  51  52
HETATM   52  C   UNK N   1      36.341  14.924  11.506  0.00  0.00     0.112 C 
BRANCH  52  53
HETATM   53  N   UNK N   1      36.784  14.519  12.643  0.00  0.00    -0.375 N 
ATOM     54  HN  UNK N   1      37.782  14.596  12.839  1.00  0.00     0.161 HD
BRANCH  53  55
HETATM   55  C   UNK N   1      35.919  13.961  13.649  0.00  0.00     0.117 C 
HETATM   56  C   UNK N   1      36.635  13.968  14.983  0.00  0.00     0.026 C 
ENDBRANCH  53  55
ENDBRANCH  52  53
BRANCH  52  57
HETATM   57  O   UNK N   1      36.798  16.072  10.957  0.00  0.00    -0.350 OA
HETATM   58  H   UNK N   1      37.233  16.767  11.413  0.00  0.00     0.219 HD
ENDBRANCH  52  57
ENDBRANCH  51  52
ENDBRANCH  50  51
ENDBRANCH  48  50
ENDBRANCH  47  48
BRANCH  47  59
HETATM   59  O   UNK N   1      34.526  17.940   9.060  0.00  0.00    -0.348 OA
HETATM   60  H   UNK N   1      35.282  18.139   8.543  0.00  0.00     0.219 HD
ENDBRANCH  47  59
ENDBRANCH  46  47
BRANCH  46  61
HETATM   61  O   UNK N   1      31.836  17.951   8.830  0.00  0.00    -0.387 OA
HETATM   62  H   UNK N   1      31.005  18.446   8.897  0.00  0.00     0.210 HD
ENDBRANCH  46  61
ENDBRANCH  43  46
ENDBRANCH  42  43
ENDBRANCH  41  42
ENDBRANCH  37  41
ENDBRANCH  36  37
ENDBRANCH  32  36
ENDBRANCH   1  32
TORSDOF 28
ENDMDL
MODEL 4
REMARK VINA RESULT:      -6.6      1.934      3.155
REMARK  28 active torsions:
REMARK  status: ('A' for Active; 'I' for Inactive)
REMARK    1  A    between atoms: N_23  and  C_4 
REMARK    2  A    between atoms: C_6  and  C_5 
REMARK    3  A    between atoms: C_12  and  C_5 
REMARK    4  A    between atoms: N_25  and  C_6 
REMARK    5  A    between atoms: C_11  and  C_7 
REMARK    6  A    between atoms: O_45  and  C_7 
REMARK    7  A    between atoms: C_21  and  C_8 
REMARK    8  A    between atoms: O_46  and  C_8 
REMARK    9  A    between atoms: N_23  and  C_12 
REMARK   10  A    between atoms: O_34  and  C_12 
REMARK   11  A    between atoms: C_14  and  O_35 
REMARK   12  A    between atoms: C_15  and  O_48 
REMARK   13  A    between atoms: C_19  and  C_16 
REMARK   14  A    between atoms: C_21  and  C_16 
REMARK   15  A    between atoms: C_16  and  O_36 
REMARK   16  A    between atoms: N_22  and  C_17 
REMARK   17  A    between atoms: N_25  and  C_19 
REMARK   18  A    between atoms: O_37  and  C_19 
REMARK   19  A    between atoms: C_20  and  N_33 
REMARK   20  A    between atoms: P_50  and  O_38 
REMARK   21  A    between atoms: P_50  and  O_39 
REMARK   22  A    between atoms: P_51  and  O_41 
REMARK   23  A    between atoms: P_52  and  O_43 
REMARK   24  A    between atoms: P_51  and  O_45 
REMARK   25  A    between atoms: P_52  and  O_46 
REMARK   26  A    between atoms: P_50  and  O_48 
REMARK   27  A    between atoms: P_51  and  O_49 
REMARK   28  A    between atoms: P_52  and  O_49 
ROOT
HETATM    1  O   UNK N   1      34.350  15.084  11.584  0.00  0.00    -0.294 OA
ENDROOT
BRANCH   1   2
HETATM    2  C   UNK N   1      34.495  13.699  11.707  0.00  0.00     0.215 C 
BRANCH   2   3
HETATM    3  C   UNK N   1      35.474  13.379  12.841  0.00  0.00     0.180 C 
HETATM    4  C   UNK N   1      36.494  12.284  12.466  0.00  0.00     0.197 C 
HETATM    5  C   UNK N   1      36.786  11.740  13.824  0.00  0.00     0.199 C 
HETATM    6  C   UNK N   1      35.355  11.689  14.343  0.00  0.00     0.262 C 
HETATM    7  O   UNK N   1      34.777  12.935  14.001  0.00  0.00    -0.353 OA
BRANCH   4   8
HETATM    8  O   UNK N   1      37.678  12.776  11.881  0.00  0.00    -0.286 OA
BRANCH   8   9
HETATM    9  P   UNK N   1      37.810  12.254  10.223  0.00  0.00     0.391 P 
HETATM   10  O   UNK N   1      36.404  11.728   9.835  0.00  0.00    -0.632 OA
BRANCH   9  11
HETATM   11  O   UNK N   1      38.949  10.967   9.957  0.00  0.00    -0.307 OA
HETATM   12  H   UNK N   1      39.559  10.348  10.385  0.00  0.00     0.222 HD
ENDBRANCH   9  11
BRANCH   9  13
HETATM   13  O   UNK N   1      38.146  13.595   9.173  0.00  0.00    -0.307 OA
HETATM   14  H   UNK N   1      37.697  14.446   9.292  0.00  0.00     0.222 HD
ENDBRANCH   9  13
ENDBRANCH   8   9
ENDBRANCH   4   8
BRANCH   5  15
HETATM   15  O   UNK N   1      37.537  12.675  14.556  0.00  0.00    -0.388 OA
HETATM   16  H   UNK N   1      38.229  13.345  14.668  0.00  0.00     0.210 HD
ENDBRANCH   5  15
BRANCH   6  17
HETATM   17  N   UNK N   1      35.237  11.387  15.777  0.00  0.00    -0.297 N 
HETATM   18  C   UNK N   1      35.186  10.135  16.303  0.00  0.00     0.188 A 
HETATM   19  N   UNK N   1      35.162  10.165  17.665  0.00  0.00    -0.346 N 
HETATM   20  C   UNK N   1      35.216  11.474  17.972  0.00  0.00     0.122 A 
ATOM     21  HN  UNK N   1      35.114   9.373  18.307  1.00  0.00     0.167 HD
HETATM   22  C   UNK N   1      35.270  12.093  19.210  0.00  0.00     0.131 A 
HETATM   23  C   UNK N   1      35.254  12.206  16.844  0.00  0.00     0.142 A 
HETATM   24  N   UNK N   1      35.356  13.457  19.243  0.00  0.00    -0.337 N 
HETATM   25  C   UNK N   1      35.393  14.188  18.081  0.00  0.00     0.183 A 
ATOM     26  HN  UNK N   1      35.394  13.938  20.141  1.00  0.00     0.168 HD
HETATM   27  N   UNK N   1      35.349  13.560  16.866  0.00  0.00    -0.336 N 
ATOM     28  HN  UNK N   1      35.389  14.096  16.000  1.00  0.00     0.168 HD
BRANCH  22  29
HETATM   29  N   UNK N   1      35.261  11.346  20.405  0.00  0.00    -0.383 N 
HETATM   30  H   UNK N   1      35.693  10.462  20.447  0.00  0.00     0.157 HD
HETATM   31  H   UNK N   1      34.818  11.711  21.204  0.00  0.00     0.157 HD
ENDBRANCH  22  29
ENDBRANCH   6  17
ENDBRANCH   2   3
ENDBRANCH   1   2
BRANCH   1  32
HETATM   32  P   UNK N   1      35.346  15.591  10.248  0.00  0.00     0.401 P 
HETATM   33  O   UNK N   1      36.783  16.067  10.587  0.00  0.00    -0.631 OA
BRANCH  32  34
HETATM   34  O   UNK N   1      34.759  17.187  10.578  0.00  0.00    -0.307 OA
HETATM   35  H   UNK N   1      34.768  18.152  10.669  0.00  0.00     0.222 HD
ENDBRANCH  32  34
BRANCH  32  36
HETATM   36  O   UNK N   1      34.785  15.873   8.615  0.00  0.00    -0.195 OA
BRANCH  36  37
HETATM   37  P   UNK N   1      34.671  14.348   7.774  0.00  0.00     0.401 P 
HETATM   38  O   UNK N   1      35.758  15.059   6.917  0.00  0.00    -0.631 OA
BRANCH  37  39
HETATM   39  O   UNK N   1      33.199  15.258   7.801  0.00  0.00    -0.307 OA
HETATM   40  H   UNK N   1      33.124  16.225   7.823  0.00  0.00     0.222 HD
ENDBRANCH  37  39
BRANCH  37  41
HETATM   41  O   UNK N   1      33.670  14.188   6.292  0.00  0.00    -0.296 OA
BRANCH  41  42
HETATM   42  C   UNK N   1      34.189  14.706   5.064  0.00  0.00     0.192 C 
BRANCH  42  43
HETATM   43  C   UNK N   1      33.167  15.508   4.212  0.00  0.00     0.008 C 
HETATM   44  C   UNK N   1      33.640  15.624   2.776  0.00  0.00     0.020 C 
HETATM   45  C   UNK N   1      31.813  14.804   4.205  0.00  0.00     0.020 C 
BRANCH  43  46
HETATM   46  C   UNK N   1      33.002  16.959   4.730  0.00  0.00     0.202 C 
BRANCH  46  47
HETATM   47  C   UNK N   1      31.606  17.364   5.131  0.00  0.00     0.141 C 
BRANCH  47  48
HETATM   48  N   UNK N   1      31.177  17.151   6.325  0.00  0.00    -0.372 N 
ATOM     49  HN  UNK N   1      31.858  17.022   7.074  1.00  0.00     0.161 HD
BRANCH  48  50
HETATM   50  C   UNK N   1      29.778  17.086   6.644  0.00  0.00     0.129 C 
BRANCH  50  51
HETATM   51  C   UNK N   1      29.576  17.764   7.983  0.00  0.00     0.103 C 
BRANCH  51  52
HETATM   52  C   UNK N   1      28.182  18.269   8.168  0.00  0.00     0.112 C 
BRANCH  52  53
HETATM   53  N   UNK N   1      27.564  18.762   7.154  0.00  0.00    -0.375 N 
ATOM     54  HN  UNK N   1      26.982  18.147   6.584  1.00  0.00     0.161 HD
BRANCH  53  55
HETATM   55  C   UNK N   1      27.665  20.152   6.794  0.00  0.00     0.117 C 
HETATM   56  C   UNK N   1      26.589  20.486   5.783  0.00  0.00     0.026 C 
ENDBRANCH  53  55
ENDBRANCH  52  53
BRANCH  52  57
HETATM   57  O   UNK N   1      27.580  18.204   9.377  0.00  0.00    -0.350 OA
HETATM   58  H   UNK N   1      26.919  17.590   9.632  0.00  0.00     0.219 HD
ENDBRANCH  52  57
ENDBRANCH  51  52
ENDBRANCH  50  51
ENDBRANCH  48  50
ENDBRANCH  47  48
BRANCH  47  59
HETATM   59  O   UNK N   1      30.808  17.949   4.212  0.00  0.00    -0.348 OA
HETATM   60  H   UNK N   1      30.097  18.499   4.475  0.00  0.00     0.219 HD
ENDBRANCH  47  59
ENDBRANCH  46  47
BRANCH  46  61
HETATM   61  O   UNK N   1      33.852  17.164   5.821  0.00  0.00    -0.387 OA
HETATM   62  H   UNK N   1      34.766  17.290   6.118  0.00  0.00     0.210 HD
ENDBRANCH  46  61
ENDBRANCH  43  46
ENDBRANCH  42  43
ENDBRANCH  41  42
ENDBRANCH  37  41
ENDBRANCH  36  37
ENDBRANCH  32  36
ENDBRANCH   1  32
TORSDOF 28
ENDMDL
MODEL 5
REMARK VINA RESULT:      -6.5      9.131     12.292
REMARK  28 active torsions:
REMARK  status: ('A' for Active; 'I' for Inactive)
REMARK    1  A    between atoms: N_23  and  C_4 
REMARK    2  A    between atoms: C_6  and  C_5 
REMARK    3  A    between atoms: C_12  and  C_5 
REMARK    4  A    between atoms: N_25  and  C_6 
REMARK    5  A    between atoms: C_11  and  C_7 
REMARK    6  A    between atoms: O_45  and  C_7 
REMARK    7  A    between atoms: C_21  and  C_8 
REMARK    8  A    between atoms: O_46  and  C_8 
REMARK    9  A    between atoms: N_23  and  C_12 
REMARK   10  A    between atoms: O_34  and  C_12 
REMARK   11  A    between atoms: C_14  and  O_35 
REMARK   12  A    between atoms: C_15  and  O_48 
REMARK   13  A    between atoms: C_19  and  C_16 
REMARK   14  A    between atoms: C_21  and  C_16 
REMARK   15  A    between atoms: C_16  and  O_36 
REMARK   16  A    between atoms: N_22  and  C_17 
REMARK   17  A    between atoms: N_25  and  C_19 
REMARK   18  A    between atoms: O_37  and  C_19 
REMARK   19  A    between atoms: C_20  and  N_33 
REMARK   20  A    between atoms: P_50  and  O_38 
REMARK   21  A    between atoms: P_50  and  O_39 
REMARK   22  A    between atoms: P_51  and  O_41 
REMARK   23  A    between atoms: P_52  and  O_43 
REMARK   24  A    between atoms: P_51  and  O_45 
REMARK   25  A    between atoms: P_52  and  O_46 
REMARK   26  A    between atoms: P_50  and  O_48 
REMARK   27  A    between atoms: P_51  and  O_49 
REMARK   28  A    between atoms: P_52  and  O_49 
ROOT
HETATM    1  O   UNK N   1      19.917  15.387   3.849  0.00  0.00    -0.294 OA
ENDROOT
BRANCH   1   2
HETATM    2  C   UNK N   1      18.940  15.353   4.848  0.00  0.00     0.215 C 
BRANCH   2   3
HETATM    3  C   UNK N   1      19.556  15.766   6.189  0.00  0.00     0.180 C 
HETATM    4  C   UNK N   1      20.944  16.422   6.039  0.00  0.00     0.197 C 
HETATM    5  C   UNK N   1      21.527  16.078   7.369  0.00  0.00     0.199 C 
HETATM    6  C   UNK N   1      21.069  14.626   7.430  0.00  0.00     0.262 C 
HETATM    7  O   UNK N   1      19.707  14.636   7.044  0.00  0.00    -0.353 OA
BRANCH   4   8
HETATM    8  O   UNK N   1      20.905  17.821   5.880  0.00  0.00    -0.286 OA
BRANCH   8   9
HETATM    9  P   UNK N   1      21.939  18.322   4.569  0.00  0.00     0.391 P 
HETATM   10  O   UNK N   1      23.358  18.452   5.180  0.00  0.00    -0.632 OA
BRANCH   9  11
HETATM   11  O   UNK N   1      21.523  19.857   3.865  0.00  0.00    -0.307 OA
HETATM   12  H   UNK N   1      21.543  20.388   3.054  0.00  0.00     0.222 HD
ENDBRANCH   9  11
BRANCH   9  13
HETATM   13  O   UNK N   1      22.034  17.094   3.346  0.00  0.00    -0.307 OA
HETATM   14  H   UNK N   1      21.432  17.100   2.586  0.00  0.00     0.222 HD
ENDBRANCH   9  13
ENDBRANCH   8   9
ENDBRANCH   4   8
BRANCH   5  15
HETATM   15  O   UNK N   1      20.895  16.831   8.371  0.00  0.00    -0.388 OA
HETATM   16  H   UNK N   1      20.128  17.216   8.823  0.00  0.00     0.210 HD
ENDBRANCH   5  15
BRANCH   6  17
HETATM   17  N   UNK N   1      21.281  13.975   8.731  0.00  0.00    -0.297 N 
HETATM   18  C   UNK N   1      20.288  13.612   9.585  0.00  0.00     0.188 A 
HETATM   19  N   UNK N   1      20.779  12.954  10.673  0.00  0.00    -0.346 N 
HETATM   20  C   UNK N   1      22.107  12.904  10.463  0.00  0.00     0.122 A 
ATOM     21  HN  UNK N   1      20.257  12.583  11.468  1.00  0.00     0.167 HD
HETATM   22  C   UNK N   1      23.104  12.310  11.219  0.00  0.00     0.131 A 
HETATM   23  C   UNK N   1      22.409  13.521   9.305  0.00  0.00     0.142 A 
HETATM   24  N   UNK N   1      24.388  12.377  10.756  0.00  0.00    -0.337 N 
HETATM   25  C   UNK N   1      24.677  13.011   9.572  0.00  0.00     0.183 A 
ATOM     26  HN  UNK N   1      25.141  11.950  11.295  1.00  0.00     0.168 HD
HETATM   27  N   UNK N   1      23.680  13.584   8.832  0.00  0.00    -0.336 N 
ATOM     28  HN  UNK N   1      23.886  14.045   7.946  1.00  0.00     0.168 HD
BRANCH  22  29
HETATM   29  N   UNK N   1      22.809  11.635  12.420  0.00  0.00    -0.383 N 
HETATM   30  H   UNK N   1      23.481  11.055  12.847  0.00  0.00     0.157 HD
HETATM   31  H   UNK N   1      21.923  11.743  12.835  0.00  0.00     0.157 HD
ENDBRANCH  22  29
ENDBRANCH   6  17
ENDBRANCH   2   3
ENDBRANCH   1   2
BRANCH   1  32
HETATM   32  P   UNK N   1      19.737  13.938   2.900  0.00  0.00     0.401 P 
HETATM   33  O   UNK N   1      18.371  13.207   2.989  0.00  0.00    -0.631 OA
BRANCH  32  34
HETATM   34  O   UNK N   1      20.261  13.093   4.318  0.00  0.00    -0.307 OA
HETATM   35  H   UNK N   1      20.297  12.401   4.996  0.00  0.00     0.222 HD
ENDBRANCH  32  34
BRANCH  32  36
HETATM   36  O   UNK N   1      21.035  13.091   2.086  0.00  0.00    -0.195 OA
BRANCH  36  37
HETATM   37  P   UNK N   1      21.970  14.231   1.153  0.00  0.00     0.401 P 
HETATM   38  O   UNK N   1      22.527  12.890   0.595  0.00  0.00    -0.631 OA
BRANCH  37  39
HETATM   39  O   UNK N   1      22.208  14.345   2.864  0.00  0.00    -0.307 OA
HETATM   40  H   UNK N   1      22.045  13.642   3.513  0.00  0.00     0.222 HD
ENDBRANCH  37  39
BRANCH  37  41
HETATM   41  O   UNK N   1      23.641  14.669   1.645  0.00  0.00    -0.296 OA
BRANCH  41  42
HETATM   42  C   UNK N   1      24.685  13.720   1.417  0.00  0.00     0.192 C 
BRANCH  42  43
HETATM   43  C   UNK N   1      25.924  13.880   2.340  0.00  0.00     0.008 C 
HETATM   44  C   UNK N   1      26.984  12.850   2.001  0.00  0.00     0.020 C 
HETATM   45  C   UNK N   1      26.542  15.264   2.164  0.00  0.00     0.020 C 
BRANCH  43  46
HETATM   46  C   UNK N   1      25.563  13.652   3.829  0.00  0.00     0.202 C 
BRANCH  46  47
HETATM   47  C   UNK N   1      25.361  14.895   4.660  0.00  0.00     0.141 C 
BRANCH  47  48
HETATM   48  N   UNK N   1      26.091  15.119   5.694  0.00  0.00    -0.372 N 
ATOM     49  HN  UNK N   1      25.712  14.906   6.618  1.00  0.00     0.161 HD
BRANCH  48  50
HETATM   50  C   UNK N   1      27.419  15.660   5.601  0.00  0.00     0.129 C 
BRANCH  50  51
HETATM   51  C   UNK N   1      27.471  16.910   6.454  0.00  0.00     0.103 C 
BRANCH  51  52
HETATM   52  C   UNK N   1      27.175  18.150   5.675  0.00  0.00     0.112 C 
BRANCH  52  53
HETATM   53  N   UNK N   1      27.852  19.214   5.926  0.00  0.00    -0.375 N 
ATOM     54  HN  UNK N   1      28.613  19.166   6.603  1.00  0.00     0.161 HD
BRANCH  53  55
HETATM   55  C   UNK N   1      27.572  20.472   5.283  0.00  0.00     0.117 C 
HETATM   56  C   UNK N   1      26.878  21.391   6.266  0.00  0.00     0.026 C 
ENDBRANCH  53  55
ENDBRANCH  52  53
BRANCH  52  57
HETATM   57  O   UNK N   1      26.217  18.152   4.720  0.00  0.00    -0.350 OA
HETATM   58  H   UNK N   1      26.335  18.393   3.821  0.00  0.00     0.219 HD
ENDBRANCH  52  57
ENDBRANCH  51  52
ENDBRANCH  50  51
ENDBRANCH  48  50
ENDBRANCH  47  48
BRANCH  47  59
HETATM   59  O   UNK N   1      24.394  15.767   4.303  0.00  0.00    -0.348 OA
HETATM   60  H   UNK N   1      24.447  16.669   4.548  0.00  0.00     0.219 HD
ENDBRANCH  47  59
ENDBRANCH  46  47
BRANCH  46  61
HETATM   61  O   UNK N   1      24.406  12.871   3.914  0.00  0.00    -0.387 OA
HETATM   62  H   UNK N   1      23.692  12.548   4.484  0.00  0.00     0.210 HD
ENDBRANCH  46  61
ENDBRANCH  43  46
ENDBRANCH  42  43
ENDBRANCH  41  42
ENDBRANCH  37  41
ENDBRANCH  36  37
ENDBRANCH  32  36
ENDBRANCH   1  32
TORSDOF 28
ENDMDL
MODEL 6
REMARK VINA RESULT:      -6.5      9.024     12.691
REMARK  28 active torsions:
REMARK  status: ('A' for Active; 'I' for Inactive)
REMARK    1  A    between atoms: N_23  and  C_4 
REMARK    2  A    between atoms: C_6  and  C_5 
REMARK    3  A    between atoms: C_12  and  C_5 
REMARK    4  A    between atoms: N_25  and  C_6 
REMARK    5  A    between atoms: C_11  and  C_7 
REMARK    6  A    between atoms: O_45  and  C_7 
REMARK    7  A    between atoms: C_21  and  C_8 
REMARK    8  A    between atoms: O_46  and  C_8 
REMARK    9  A    between atoms: N_23  and  C_12 
REMARK   10  A    between atoms: O_34  and  C_12 
REMARK   11  A    between atoms: C_14  and  O_35 
REMARK   12  A    between atoms: C_15  and  O_48 
REMARK   13  A    between atoms: C_19  and  C_16 
REMARK   14  A    between atoms: C_21  and  C_16 
REMARK   15  A    between atoms: C_16  and  O_36 
REMARK   16  A    between atoms: N_22  and  C_17 
REMARK   17  A    between atoms: N_25  and  C_19 
REMARK   18  A    between atoms: O_37  and  C_19 
REMARK   19  A    between atoms: C_20  and  N_33 
REMARK   20  A    between atoms: P_50  and  O_38 
REMARK   21  A    between atoms: P_50  and  O_39 
REMARK   22  A    between atoms: P_51  and  O_41 
REMARK   23  A    between atoms: P_52  and  O_43 
REMARK   24  A    between atoms: P_51  and  O_45 
REMARK   25  A    between atoms: P_52  and  O_46 
REMARK   26  A    between atoms: P_50  and  O_48 
REMARK   27  A    between atoms: P_51  and  O_49 
REMARK   28  A    between atoms: P_52  and  O_49 
ROOT
HETATM    1  O   UNK N   1      19.707  14.993   4.161  0.00  0.00    -0.294 OA
ENDROOT
BRANCH   1   2
HETATM    2  C   UNK N   1      18.799  15.649   4.999  0.00  0.00     0.215 C 
BRANCH   2   3
HETATM    3  C   UNK N   1      19.480  16.000   6.326  0.00  0.00     0.180 C 
HETATM    4  C   UNK N   1      20.908  16.554   6.143  0.00  0.00     0.197 C 
HETATM    5  C   UNK N   1      21.500  16.153   7.453  0.00  0.00     0.199 C 
HETATM    6  C   UNK N   1      20.937  14.739   7.515  0.00  0.00     0.262 C 
HETATM    7  O   UNK N   1      19.570  14.853   7.167  0.00  0.00    -0.353 OA
BRANCH   4   8
HETATM    8  O   UNK N   1      20.968  17.954   5.997  0.00  0.00    -0.286 OA
BRANCH   8   9
HETATM    9  P   UNK N   1      21.783  18.386   4.519  0.00  0.00     0.391 P 
HETATM   10  O   UNK N   1      23.294  18.424   4.867  0.00  0.00    -0.632 OA
BRANCH   9  11
HETATM   11  O   UNK N   1      21.348  19.944   3.880  0.00  0.00    -0.307 OA
HETATM   12  H   UNK N   1      20.961  20.410   3.123  0.00  0.00     0.222 HD
ENDBRANCH   9  11
BRANCH   9  13
HETATM   13  O   UNK N   1      21.582  17.153   3.313  0.00  0.00    -0.307 OA
HETATM   14  H   UNK N   1      21.115  17.339   2.484  0.00  0.00     0.222 HD
ENDBRANCH   9  13
ENDBRANCH   8   9
ENDBRANCH   4   8
BRANCH   5  15
HETATM   15  O   UNK N   1      20.952  16.941   8.479  0.00  0.00    -0.388 OA
HETATM   16  H   UNK N   1      20.238  17.248   9.059  0.00  0.00     0.210 HD
ENDBRANCH   5  15
BRANCH   6  17
HETATM   17  N   UNK N   1      21.135  14.060   8.804  0.00  0.00    -0.297 N 
HETATM   18  C   UNK N   1      20.136  13.708   9.654  0.00  0.00     0.188 A 
HETATM   19  N   UNK N   1      20.612  13.019  10.729  0.00  0.00    -0.346 N 
HETATM   20  C   UNK N   1      21.939  12.939  10.514  0.00  0.00     0.122 A 
ATOM     21  HN  UNK N   1      20.083  12.648  11.518  1.00  0.00     0.167 HD
HETATM   22  C   UNK N   1      22.921  12.306  11.257  0.00  0.00     0.131 A 
HETATM   23  C   UNK N   1      22.253  13.567   9.366  0.00  0.00     0.142 A 
HETATM   24  N   UNK N   1      24.205  12.348  10.791  0.00  0.00    -0.337 N 
HETATM   25  C   UNK N   1      24.508  12.994   9.618  0.00  0.00     0.183 A 
ATOM     26  HN  UNK N   1      24.949  11.892  11.320  1.00  0.00     0.168 HD
HETATM   27  N   UNK N   1      23.524  13.605   8.891  0.00  0.00    -0.336 N 
ATOM     28  HN  UNK N   1      23.740  14.076   8.012  1.00  0.00     0.168 HD
BRANCH  22  29
HETATM   29  N   UNK N   1      22.612  11.617  12.447  0.00  0.00    -0.383 N 
HETATM   30  H   UNK N   1      23.290  11.060  12.895  0.00  0.00     0.157 HD
HETATM   31  H   UNK N   1      21.710  11.693  12.833  0.00  0.00     0.157 HD
ENDBRANCH  22  29
ENDBRANCH   6  17
ENDBRANCH   2   3
ENDBRANCH   1   2
BRANCH   1  32
HETATM   32  P   UNK N   1      19.225  13.322   4.083  0.00  0.00     0.401 P 
HETATM   33  O   UNK N   1      18.364  12.896   2.864  0.00  0.00    -0.631 OA
BRANCH  32  34
HETATM   34  O   UNK N   1      17.784  13.828   4.900  0.00  0.00    -0.307 OA
HETATM   35  H   UNK N   1      17.224  14.198   5.600  0.00  0.00     0.222 HD
ENDBRANCH  32  34
BRANCH  32  36
HETATM   36  O   UNK N   1      19.385  12.158   5.381  0.00  0.00    -0.195 OA
BRANCH  36  37
HETATM   37  P   UNK N   1      20.660  11.033   4.991  0.00  0.00     0.401 P 
HETATM   38  O   UNK N   1      21.009  11.349   6.474  0.00  0.00    -0.631 OA
BRANCH  37  39
HETATM   39  O   UNK N   1      20.659  12.471   4.028  0.00  0.00    -0.307 OA
HETATM   40  H   UNK N   1      21.014  12.559   3.129  0.00  0.00     0.222 HD
ENDBRANCH  37  39
BRANCH  37  41
HETATM   41  O   UNK N   1      22.293  11.619   4.527  0.00  0.00    -0.296 OA
BRANCH  41  42
HETATM   42  C   UNK N   1      23.062  12.325   5.505  0.00  0.00     0.192 C 
BRANCH  42  43
HETATM   43  C   UNK N   1      24.229  13.172   4.927  0.00  0.00     0.008 C 
HETATM   44  C   UNK N   1      25.335  13.331   5.951  0.00  0.00     0.020 C 
HETATM   45  C   UNK N   1      24.822  12.490   3.697  0.00  0.00     0.020 C 
BRANCH  43  46
HETATM   46  C   UNK N   1      23.771  14.606   4.561  0.00  0.00     0.202 C 
BRANCH  46  47
HETATM   47  C   UNK N   1      24.691  15.386   3.656  0.00  0.00     0.141 C 
BRANCH  47  48
HETATM   48  N   UNK N   1      25.544  16.216   4.145  0.00  0.00    -0.372 N 
ATOM     49  HN  UNK N   1      25.764  16.164   5.140  1.00  0.00     0.161 HD
BRANCH  48  50
HETATM   50  C   UNK N   1      26.197  17.215   3.344  0.00  0.00     0.129 C 
BRANCH  50  51
HETATM   51  C   UNK N   1      27.289  17.841   4.185  0.00  0.00     0.103 C 
BRANCH  51  52
HETATM   52  C   UNK N   1      26.811  18.243   5.542  0.00  0.00     0.112 C 
BRANCH  52  53
HETATM   53  N   UNK N   1      26.181  19.356   5.671  0.00  0.00    -0.375 N 
ATOM     54  HN  UNK N   1      25.224  19.344   6.025  1.00  0.00     0.161 HD
BRANCH  53  55
HETATM   55  C   UNK N   1      26.780  20.620   5.332  0.00  0.00     0.117 C 
HETATM   56  C   UNK N   1      26.581  21.590   6.478  0.00  0.00     0.026 C 
ENDBRANCH  53  55
ENDBRANCH  52  53
BRANCH  52  57
HETATM   57  O   UNK N   1      27.031  17.447   6.614  0.00  0.00    -0.350 OA
HETATM   58  H   UNK N   1      27.604  17.635   7.332  0.00  0.00     0.219 HD
ENDBRANCH  52  57
ENDBRANCH  51  52
ENDBRANCH  50  51
ENDBRANCH  48  50
ENDBRANCH  47  48
BRANCH  47  59
HETATM   59  O   UNK N   1      24.601  15.204   2.322  0.00  0.00    -0.348 OA
HETATM   60  H   UNK N   1      23.800  14.919   1.929  0.00  0.00     0.219 HD
ENDBRANCH  47  59
ENDBRANCH  46  47
BRANCH  46  61
HETATM   61  O   UNK N   1      22.506  14.554   3.966  0.00  0.00    -0.387 OA
HETATM   62  H   UNK N   1      21.556  14.712   4.077  0.00  0.00     0.210 HD
ENDBRANCH  46  61
ENDBRANCH  43  46
ENDBRANCH  42  43
ENDBRANCH  41  42
ENDBRANCH  37  41
ENDBRANCH  36  37
ENDBRANCH  32  36
ENDBRANCH   1  32
TORSDOF 28
ENDMDL
MODEL 7
REMARK VINA RESULT:      -6.5      1.655      3.131
REMARK  28 active torsions:
REMARK  status: ('A' for Active; 'I' for Inactive)
REMARK    1  A    between atoms: N_23  and  C_4 
REMARK    2  A    between atoms: C_6  and  C_5 
REMARK    3  A    between atoms: C_12  and  C_5 
REMARK    4  A    between atoms: N_25  and  C_6 
REMARK    5  A    between atoms: C_11  and  C_7 
REMARK    6  A    between atoms: O_45  and  C_7 
REMARK    7  A    between atoms: C_21  and  C_8 
REMARK    8  A    between atoms: O_46  and  C_8 
REMARK    9  A    between atoms: N_23  and  C_12 
REMARK   10  A    between atoms: O_34  and  C_12 
REMARK   11  A    between atoms: C_14  and  O_35 
REMARK   12  A    between atoms: C_15  and  O_48 
REMARK   13  A    between atoms: C_19  and  C_16 
REMARK   14  A    between atoms: C_21  and  C_16 
REMARK   15  A    between atoms: C_16  and  O_36 
REMARK   16  A    between atoms: N_22  and  C_17 
REMARK   17  A    between atoms: N_25  and  C_19 
REMARK   18  A    between atoms: O_37  and  C_19 
REMARK   19  A    between atoms: C_20  and  N_33 
REMARK   20  A    between atoms: P_50  and  O_38 
REMARK   21  A    between atoms: P_50  and  O_39 
REMARK   22  A    between atoms: P_51  and  O_41 
REMARK   23  A    between atoms: P_52  and  O_43 
REMARK   24  A    between atoms: P_51  and  O_45 
REMARK   25  A    between atoms: P_52  and  O_46 
REMARK   26  A    between atoms: P_50  and  O_48 
REMARK   27  A    between atoms: P_51  and  O_49 
REMARK   28  A    between atoms: P_52  and  O_49 
ROOT
HETATM    1  O   UNK N   1      35.478  13.059   6.814  0.00  0.00    -0.294 OA
ENDROOT
BRANCH   1   2
HETATM    2  C   UNK N   1      36.023  13.998   7.694  0.00  0.00     0.215 C 
BRANCH   2   3
HETATM    3  C   UNK N   1      35.127  14.130   8.930  0.00  0.00     0.180 C 
HETATM    4  C   UNK N   1      34.871  15.596   9.336  0.00  0.00     0.197 C 
HETATM    5  C   UNK N   1      34.626  15.411  10.796  0.00  0.00     0.199 C 
HETATM    6  C   UNK N   1      35.766  14.443  11.080  0.00  0.00     0.262 C 
HETATM    7  O   UNK N   1      35.712  13.472  10.051  0.00  0.00    -0.353 OA
BRANCH   4   8
HETATM    8  O   UNK N   1      33.738  16.172   8.728  0.00  0.00    -0.286 OA
BRANCH   8   9
HETATM    9  P   UNK N   1      34.071  17.808   8.226  0.00  0.00     0.391 P 
HETATM   10  O   UNK N   1      34.536  17.708   6.750  0.00  0.00    -0.632 OA
BRANCH   9  11
HETATM   11  O   UNK N   1      35.331  18.599   9.125  0.00  0.00    -0.307 OA
HETATM   12  H   UNK N   1      35.707  18.739  10.008  0.00  0.00     0.222 HD
ENDBRANCH   9  11
BRANCH   9  13
HETATM   13  O   UNK N   1      32.624  18.766   8.227  0.00  0.00    -0.307 OA
HETATM   14  H   UNK N   1      32.559  19.572   7.692  0.00  0.00     0.222 HD
ENDBRANCH   9  13
ENDBRANCH   8   9
ENDBRANCH   4   8
BRANCH   5  15
HETATM   15  O   UNK N   1      33.388  14.778  10.991  0.00  0.00    -0.388 OA
HETATM   16  H   UNK N   1      32.654  14.439  11.527  0.00  0.00     0.210 HD
ENDBRANCH   5  15
BRANCH   6  17
HETATM   17  N   UNK N   1      35.736  13.842  12.422  0.00  0.00    -0.297 N 
HETATM   18  C   UNK N   1      36.219  14.435  13.546  0.00  0.00     0.188 A 
HETATM   19  N   UNK N   1      35.977  13.679  14.654  0.00  0.00    -0.346 N 
HETATM   20  C   UNK N   1      35.314  12.604  14.188  0.00  0.00     0.122 A 
ATOM     21  HN  UNK N   1      36.239  13.882  15.618  1.00  0.00     0.167 HD
HETATM   22  C   UNK N   1      34.775  11.528  14.873  0.00  0.00     0.131 A 
HETATM   23  C   UNK N   1      35.176  12.698  12.852  0.00  0.00     0.142 A 
HETATM   24  N   UNK N   1      34.111  10.575  14.153  0.00  0.00    -0.337 N 
HETATM   25  C   UNK N   1      33.980  10.687  12.790  0.00  0.00     0.183 A 
ATOM     26  HN  UNK N   1      33.707   9.771  14.633  1.00  0.00     0.168 HD
HETATM   27  N   UNK N   1      34.509  11.761  12.130  0.00  0.00    -0.336 N 
ATOM     28  HN  UNK N   1      34.405  11.857  11.120  1.00  0.00     0.168 HD
BRANCH  22  29
HETATM   29  N   UNK N   1      34.882  11.423  16.274  0.00  0.00    -0.383 N 
HETATM   30  H   UNK N   1      35.346  10.658  16.686  0.00  0.00     0.157 HD
HETATM   31  H   UNK N   1      34.490  12.121  16.847  0.00  0.00     0.157 HD
ENDBRANCH  22  29
ENDBRANCH   6  17
ENDBRANCH   2   3
ENDBRANCH   1   2
BRANCH   1  32
HETATM   32  P   UNK N   1      35.122  13.891   5.326  0.00  0.00     0.401 P 
HETATM   33  O   UNK N   1      36.134  13.713   4.163  0.00  0.00    -0.631 OA
BRANCH  32  34
HETATM   34  O   UNK N   1      36.098  15.175   5.955  0.00  0.00    -0.307 OA
HETATM   35  H   UNK N   1      36.337  15.958   6.475  0.00  0.00     0.222 HD
ENDBRANCH  32  34
BRANCH  32  36
HETATM   36  O   UNK N   1      33.889  15.117   5.119  0.00  0.00    -0.195 OA
BRANCH  36  37
HETATM   37  P   UNK N   1      33.371  15.136   3.453  0.00  0.00     0.401 P 
HETATM   38  O   UNK N   1      33.185  16.636   3.821  0.00  0.00    -0.631 OA
BRANCH  37  39
HETATM   39  O   UNK N   1      32.424  14.117   4.483  0.00  0.00    -0.307 OA
HETATM   40  H   UNK N   1      31.839  14.410   5.199  0.00  0.00     0.222 HD
ENDBRANCH  37  39
BRANCH  37  41
HETATM   41  O   UNK N   1      31.626  15.069   3.032  0.00  0.00    -0.296 OA
BRANCH  41  42
HETATM   42  C   UNK N   1      30.706  14.620   4.031  0.00  0.00     0.192 C 
BRANCH  42  43
HETATM   43  C   UNK N   1      29.405  15.463   4.141  0.00  0.00     0.008 C 
HETATM   44  C   UNK N   1      28.848  15.774   2.766  0.00  0.00     0.020 C 
HETATM   45  C   UNK N   1      28.339  14.694   4.917  0.00  0.00     0.020 C 
BRANCH  43  46
HETATM   46  C   UNK N   1      29.664  16.831   4.821  0.00  0.00     0.202 C 
BRANCH  46  47
HETATM   47  C   UNK N   1      30.269  16.781   6.201  0.00  0.00     0.141 C 
BRANCH  47  48
HETATM   48  N   UNK N   1      29.531  16.910   7.247  0.00  0.00    -0.372 N 
ATOM     49  HN  UNK N   1      29.863  16.524   8.131  1.00  0.00     0.161 HD
BRANCH  48  50
HETATM   50  C   UNK N   1      28.257  17.573   7.218  0.00  0.00     0.129 C 
BRANCH  50  51
HETATM   51  C   UNK N   1      28.507  19.063   7.322  0.00  0.00     0.103 C 
BRANCH  51  52
HETATM   52  C   UNK N   1      27.479  19.871   6.600  0.00  0.00     0.112 C 
BRANCH  52  53
HETATM   53  N   UNK N   1      26.463  19.267   6.092  0.00  0.00    -0.375 N 
ATOM     54  HN  UNK N   1      25.927  18.626   6.678  1.00  0.00     0.161 HD
BRANCH  53  55
HETATM   55  C   UNK N   1      26.057  19.465   4.726  0.00  0.00     0.117 C 
HETATM   56  C   UNK N   1      26.279  18.185   3.949  0.00  0.00     0.026 C 
ENDBRANCH  53  55
ENDBRANCH  52  53
BRANCH  52  57
HETATM   57  O   UNK N   1      27.610  21.212   6.488  0.00  0.00    -0.350 OA
HETATM   58  H   UNK N   1      26.917  21.841   6.546  0.00  0.00     0.219 HD
ENDBRANCH  52  57
ENDBRANCH  51  52
ENDBRANCH  50  51
ENDBRANCH  48  50
ENDBRANCH  47  48
BRANCH  47  59
HETATM   59  O   UNK N   1      31.602  16.606   6.322  0.00  0.00    -0.348 OA
HETATM   60  H   UNK N   1      32.101  17.121   6.925  0.00  0.00     0.219 HD
ENDBRANCH  47  59
ENDBRANCH  46  47
BRANCH  46  61
HETATM   61  O   UNK N   1      30.490  17.608   4.004  0.00  0.00    -0.387 OA
HETATM   62  H   UNK N   1      30.533  18.244   3.273  0.00  0.00     0.210 HD
ENDBRANCH  46  61
ENDBRANCH  43  46
ENDBRANCH  42  43
ENDBRANCH  41  42
ENDBRANCH  37  41
ENDBRANCH  36  37
ENDBRANCH  32  36
ENDBRANCH   1  32
TORSDOF 28
ENDMDL
MODEL 8
REMARK VINA RESULT:      -6.4      2.084      3.346
REMARK  28 active torsions:
REMARK  status: ('A' for Active; 'I' for Inactive)
REMARK    1  A    between atoms: N_23  and  C_4 
REMARK    2  A    between atoms: C_6  and  C_5 
REMARK    3  A    between atoms: C_12  and  C_5 
REMARK    4  A    between atoms: N_25  and  C_6 
REMARK    5  A    between atoms: C_11  and  C_7 
REMARK    6  A    between atoms: O_45  and  C_7 
REMARK    7  A    between atoms: C_21  and  C_8 
REMARK    8  A    between atoms: O_46  and  C_8 
REMARK    9  A    between atoms: N_23  and  C_12 
REMARK   10  A    between atoms: O_34  and  C_12 
REMARK   11  A    between atoms: C_14  and  O_35 
REMARK   12  A    between atoms: C_15  and  O_48 
REMARK   13  A    between atoms: C_19  and  C_16 
REMARK   14  A    between atoms: C_21  and  C_16 
REMARK   15  A    between atoms: C_16  and  O_36 
REMARK   16  A    between atoms: N_22  and  C_17 
REMARK   17  A    between atoms: N_25  and  C_19 
REMARK   18  A    between atoms: O_37  and  C_19 
REMARK   19  A    between atoms: C_20  and  N_33 
REMARK   20  A    between atoms: P_50  and  O_38 
REMARK   21  A    between atoms: P_50  and  O_39 
REMARK   22  A    between atoms: P_51  and  O_41 
REMARK   23  A    between atoms: P_52  and  O_43 
REMARK   24  A    between atoms: P_51  and  O_45 
REMARK   25  A    between atoms: P_52  and  O_46 
REMARK   26  A    between atoms: P_50  and  O_48 
REMARK   27  A    between atoms: P_51  and  O_49 
REMARK   28  A    between atoms: P_52  and  O_49 
ROOT
HETATM    1  O   UNK N   1      35.594  14.313   9.718  0.00  0.00    -0.294 OA
ENDROOT
BRANCH   1   2
HETATM    2  C   UNK N   1      36.981  14.213   9.864  0.00  0.00     0.215 C 
BRANCH   2   3
HETATM    3  C   UNK N   1      37.313  13.475  11.165  0.00  0.00     0.180 C 
HETATM    4  C   UNK N   1      37.086  11.952  11.069  0.00  0.00     0.197 C 
HETATM    5  C   UNK N   1      36.814  11.651  12.506  0.00  0.00     0.199 C 
HETATM    6  C   UNK N   1      35.882  12.821  12.794  0.00  0.00     0.262 C 
HETATM    7  O   UNK N   1      36.514  13.961  12.240  0.00  0.00    -0.353 OA
BRANCH   4   8
HETATM    8  O   UNK N   1      38.213  11.228  10.633  0.00  0.00    -0.286 OA
BRANCH   8   9
HETATM    9  P   UNK N   1      37.848  10.338   9.179  0.00  0.00     0.391 P 
HETATM   10  O   UNK N   1      39.163   9.614   8.789  0.00  0.00    -0.632 OA
BRANCH   9  11
HETATM   11  O   UNK N   1      37.365  11.321   7.829  0.00  0.00    -0.307 OA
HETATM   12  H   UNK N   1      36.823  12.076   7.552  0.00  0.00     0.222 HD
ENDBRANCH   9  11
BRANCH   9  13
HETATM   13  O   UNK N   1      36.671   9.099   9.486  0.00  0.00    -0.307 OA
HETATM   14  H   UNK N   1      36.149   8.718   8.763  0.00  0.00     0.222 HD
ENDBRANCH   9  13
ENDBRANCH   8   9
ENDBRANCH   4   8
BRANCH   5  15
HETATM   15  O   UNK N   1      37.999  11.777  13.248  0.00  0.00    -0.388 OA
HETATM   16  H   UNK N   1      38.917  11.558  13.474  0.00  0.00     0.210 HD
ENDBRANCH   5  15
BRANCH   6  17
HETATM   17  N   UNK N   1      35.547  12.998  14.214  0.00  0.00    -0.297 N 
HETATM   18  C   UNK N   1      34.687  12.209  14.910  0.00  0.00     0.188 A 
HETATM   19  N   UNK N   1      34.638  12.560  16.226  0.00  0.00    -0.346 N 
HETATM   20  C   UNK N   1      35.508  13.582  16.332  0.00  0.00     0.122 A 
ATOM     21  HN  UNK N   1      34.071  12.142  16.964  1.00  0.00     0.167 HD
HETATM   22  C   UNK N   1      35.902  14.299  17.449  0.00  0.00     0.131 A 
HETATM   23  C   UNK N   1      36.047  13.849  15.128  0.00  0.00     0.142 A 
HETATM   24  N   UNK N   1      36.840  15.279  17.285  0.00  0.00    -0.337 N 
HETATM   25  C   UNK N   1      37.379  15.538  16.049  0.00  0.00     0.183 A 
ATOM     26  HN  UNK N   1      37.146  15.824  18.091  1.00  0.00     0.168 HD
HETATM   27  N   UNK N   1      36.987  14.813  14.958  0.00  0.00    -0.336 N 
ATOM     28  HN  UNK N   1      37.392  14.992  14.039  1.00  0.00     0.168 HD
BRANCH  22  29
HETATM   29  N   UNK N   1      35.373  14.019  18.725  0.00  0.00    -0.383 N 
HETATM   30  H   UNK N   1      35.935  14.099  19.530  0.00  0.00     0.157 HD
HETATM   31  H   UNK N   1      34.433  13.740  18.812  0.00  0.00     0.157 HD
ENDBRANCH  22  29
ENDBRANCH   6  17
ENDBRANCH   2   3
ENDBRANCH   1   2
BRANCH   1  32
HETATM   32  P   UNK N   1      35.194  16.007   9.724  0.00  0.00     0.401 P 
HETATM   33  O   UNK N   1      36.061  16.929  10.623  0.00  0.00    -0.631 OA
BRANCH  32  34
HETATM   34  O   UNK N   1      34.198  15.641  11.092  0.00  0.00    -0.307 OA
HETATM   35  H   UNK N   1      33.425  15.655  11.677  0.00  0.00     0.222 HD
ENDBRANCH  32  34
BRANCH  32  36
HETATM   36  O   UNK N   1      33.748  16.711   9.034  0.00  0.00    -0.195 OA
BRANCH  36  37
HETATM   37  P   UNK N   1      34.195  18.011   7.960  0.00  0.00     0.401 P 
HETATM   38  O   UNK N   1      32.646  18.155   7.943  0.00  0.00    -0.631 OA
BRANCH  37  39
HETATM   39  O   UNK N   1      34.685  16.441   7.422  0.00  0.00    -0.307 OA
HETATM   40  H   UNK N   1      35.541  16.212   7.025  0.00  0.00     0.222 HD
ENDBRANCH  37  39
BRANCH  37  41
HETATM   41  O   UNK N   1      34.151  17.789   6.179  0.00  0.00    -0.296 OA
BRANCH  41  42
HETATM   42  C   UNK N   1      33.943  16.470   5.666  0.00  0.00     0.192 C 
BRANCH  42  43
HETATM   43  C   UNK N   1      32.839  16.362   4.578  0.00  0.00     0.008 C 
HETATM   44  C   UNK N   1      32.120  17.686   4.409  0.00  0.00     0.020 C 
HETATM   45  C   UNK N   1      33.455  15.988   3.233  0.00  0.00     0.020 C 
BRANCH  43  46
HETATM   46  C   UNK N   1      31.753  15.327   4.964  0.00  0.00     0.202 C 
BRANCH  46  47
HETATM   47  C   UNK N   1      31.049  15.565   6.276  0.00  0.00     0.141 C 
BRANCH  47  48
HETATM   48  N   UNK N   1      29.831  15.980   6.303  0.00  0.00    -0.372 N 
ATOM     49  HN  UNK N   1      29.110  15.413   5.856  1.00  0.00     0.161 HD
BRANCH  48  50
HETATM   50  C   UNK N   1      29.448  17.212   6.936  0.00  0.00     0.129 C 
BRANCH  50  51
HETATM   51  C   UNK N   1      28.190  17.710   6.256  0.00  0.00     0.103 C 
BRANCH  51  52
HETATM   52  C   UNK N   1      28.401  18.016   4.809  0.00  0.00     0.112 C 
BRANCH  52  53
HETATM   53  N   UNK N   1      28.512  19.245   4.448  0.00  0.00    -0.375 N 
ATOM     54  HN  UNK N   1      29.435  19.680   4.457  1.00  0.00     0.161 HD
BRANCH  53  55
HETATM   55  C   UNK N   1      27.379  20.028   4.031  0.00  0.00     0.117 C 
HETATM   56  C   UNK N   1      26.903  20.876   5.191  0.00  0.00     0.026 C 
ENDBRANCH  53  55
ENDBRANCH  52  53
BRANCH  52  57
HETATM   57  O   UNK N   1      28.479  17.020   3.898  0.00  0.00    -0.350 OA
HETATM   58  H   UNK N   1      27.821  16.373   3.730  0.00  0.00     0.219 HD
ENDBRANCH  52  57
ENDBRANCH  51  52
ENDBRANCH  50  51
ENDBRANCH  48  50
ENDBRANCH  47  48
BRANCH  47  59
HETATM   59  O   UNK N   1      31.720  15.341   7.426  0.00  0.00    -0.348 OA
HETATM   60  H   UNK N   1      31.278  15.008   8.183  0.00  0.00     0.219 HD
ENDBRANCH  47  59
ENDBRANCH  46  47
BRANCH  46  61
HETATM   61  O   UNK N   1      30.790  15.262   3.952  0.00  0.00    -0.387 OA
HETATM   62  H   UNK N   1      30.621  15.118   3.008  0.00  0.00     0.210 HD
ENDBRANCH  46  61
ENDBRANCH  43  46
ENDBRANCH  42  43
ENDBRANCH  41  42
ENDBRANCH  37  41
ENDBRANCH  36  37
ENDBRANCH  32  36
ENDBRANCH   1  32
TORSDOF 28
ENDMDL
MODEL 9
REMARK VINA RESULT:      -6.4      2.299      9.989
REMARK  28 active torsions:
REMARK  status: ('A' for Active; 'I' for Inactive)
REMARK    1  A    between atoms: N_23  and  C_4 
REMARK    2  A    between atoms: C_6  and  C_5 
REMARK    3  A    between atoms: C_12  and  C_5 
REMARK    4  A    between atoms: N_25  and  C_6 
REMARK    5  A    between atoms: C_11  and  C_7 
REMARK    6  A    between atoms: O_45  and  C_7 
REMARK    7  A    between atoms: C_21  and  C_8 
REMARK    8  A    between atoms: O_46  and  C_8 
REMARK    9  A    between atoms: N_23  and  C_12 
REMARK   10  A    between atoms: O_34  and  C_12 
REMARK   11  A    between atoms: C_14  and  O_35 
REMARK   12  A    between atoms: C_15  and  O_48 
REMARK   13  A    between atoms: C_19  and  C_16 
REMARK   14  A    between atoms: C_21  and  C_16 
REMARK   15  A    between atoms: C_16  and  O_36 
REMARK   16  A    between atoms: N_22  and  C_17 
REMARK   17  A    between atoms: N_25  and  C_19 
REMARK   18  A    between atoms: O_37  and  C_19 
REMARK   19  A    between atoms: C_20  and  N_33 
REMARK   20  A    between atoms: P_50  and  O_38 
REMARK   21  A    between atoms: P_50  and  O_39 
REMARK   22  A    between atoms: P_51  and  O_41 
REMARK   23  A    between atoms: P_52  and  O_43 
REMARK   24  A    between atoms: P_51  and  O_45 
REMARK   25  A    between atoms: P_52  and  O_46 
REMARK   26  A    between atoms: P_50  and  O_48 
REMARK   27  A    between atoms: P_51  and  O_49 
REMARK   28  A    between atoms: P_52  and  O_49 
ROOT
HETATM    1  O   UNK N   1      33.404  13.550   7.427  0.00  0.00    -0.294 OA
ENDROOT
BRANCH   1   2
HETATM    2  C   UNK N   1      32.803  14.243   6.372  0.00  0.00     0.215 C 
BRANCH   2   3
HETATM    3  C   UNK N   1      32.535  15.692   6.791  0.00  0.00     0.180 C 
HETATM    4  C   UNK N   1      33.031  16.009   8.217  0.00  0.00     0.197 C 
HETATM    5  C   UNK N   1      32.092  17.115   8.566  0.00  0.00     0.199 C 
HETATM    6  C   UNK N   1      30.814  16.483   8.031  0.00  0.00     0.262 C 
HETATM    7  O   UNK N   1      31.141  15.981   6.749  0.00  0.00    -0.353 OA
BRANCH   4   8
HETATM    8  O   UNK N   1      34.360  16.473   8.274  0.00  0.00    -0.286 OA
BRANCH   8   9
HETATM    9  P   UNK N   1      35.030  16.232   9.866  0.00  0.00     0.391 P 
HETATM   10  O   UNK N   1      36.180  15.209   9.687  0.00  0.00    -0.632 OA
BRANCH   9  11
HETATM   11  O   UNK N   1      33.915  15.577  11.029  0.00  0.00    -0.307 OA
HETATM   12  H   UNK N   1      33.413  14.790  11.290  0.00  0.00     0.222 HD
ENDBRANCH   9  11
BRANCH   9  13
HETATM   13  O   UNK N   1      35.752  17.692  10.465  0.00  0.00    -0.307 OA
HETATM   14  H   UNK N   1      36.527  18.080  10.031  0.00  0.00     0.222 HD
ENDBRANCH   9  13
ENDBRANCH   8   9
ENDBRANCH   4   8
BRANCH   5  15
HETATM   15  O   UNK N   1      32.416  18.263   7.824  0.00  0.00    -0.388 OA
HETATM   16  H   UNK N   1      32.934  18.770   7.179  0.00  0.00     0.210 HD
ENDBRANCH   5  15
BRANCH   6  17
HETATM   17  N   UNK N   1      29.653  17.386   8.004  0.00  0.00    -0.297 N 
HETATM   18  C   UNK N   1      29.009  17.850   9.106  0.00  0.00     0.188 A 
HETATM   19  N   UNK N   1      28.025  18.734   8.775  0.00  0.00    -0.346 N 
HETATM   20  C   UNK N   1      28.087  18.817   7.433  0.00  0.00     0.122 A 
ATOM     21  HN  UNK N   1      27.386  19.222   9.403  1.00  0.00     0.167 HD
HETATM   22  C   UNK N   1      27.355  19.603   6.558  0.00  0.00     0.131 A 
HETATM   23  C   UNK N   1      29.056  18.006   6.971  0.00  0.00     0.142 A 
HETATM   24  N   UNK N   1      27.645  19.520   5.226  0.00  0.00    -0.337 N 
HETATM   25  C   UNK N   1      28.637  18.686   4.771  0.00  0.00     0.183 A 
ATOM     26  HN  UNK N   1      27.119  20.086   4.559  1.00  0.00     0.168 HD
HETATM   27  N   UNK N   1      29.358  17.925   5.650  0.00  0.00    -0.336 N 
ATOM     28  HN  UNK N   1      30.104  17.313   5.320  1.00  0.00     0.168 HD
BRANCH  22  29
HETATM   29  N   UNK N   1      26.355  20.481   7.022  0.00  0.00    -0.383 N 
HETATM   30  H   UNK N   1      25.754  20.936   6.388  0.00  0.00     0.157 HD
HETATM   31  H   UNK N   1      26.257  20.640   7.988  0.00  0.00     0.157 HD
ENDBRANCH  22  29
ENDBRANCH   6  17
ENDBRANCH   2   3
ENDBRANCH   1   2
BRANCH   1  32
HETATM   32  P   UNK N   1      35.023  13.149   6.927  0.00  0.00     0.401 P 
HETATM   33  O   UNK N   1      35.786  14.217   6.100  0.00  0.00    -0.631 OA
BRANCH  32  34
HETATM   34  O   UNK N   1      34.295  12.566   5.468  0.00  0.00    -0.307 OA
HETATM   35  H   UNK N   1      34.053  12.531   4.530  0.00  0.00     0.222 HD
ENDBRANCH  32  34
BRANCH  32  36
HETATM   36  O   UNK N   1      35.753  11.561   7.032  0.00  0.00    -0.195 OA
BRANCH  36  37
HETATM   37  P   UNK N   1      37.139  11.634   8.089  0.00  0.00     0.401 P 
HETATM   38  O   UNK N   1      36.866  10.103   8.091  0.00  0.00    -0.631 OA
BRANCH  37  39
HETATM   39  O   UNK N   1      35.762  12.517   8.656  0.00  0.00    -0.307 OA
HETATM   40  H   UNK N   1      35.742  13.121   9.415  0.00  0.00     0.222 HD
ENDBRANCH  37  39
BRANCH  37  41
HETATM   41  O   UNK N   1      36.935  11.628   9.874  0.00  0.00    -0.296 OA
BRANCH  41  42
HETATM   42  C   UNK N   1      35.928  10.784  10.437  0.00  0.00     0.192 C 
BRANCH  42  43
HETATM   43  C   UNK N   1      35.678  10.994  11.956  0.00  0.00     0.008 C 
HETATM   44  C   UNK N   1      34.656  10.001  12.475  0.00  0.00     0.020 C 
HETATM   45  C   UNK N   1      36.971  10.790  12.740  0.00  0.00     0.020 C 
BRANCH  43  46
HETATM   46  C   UNK N   1      35.100  12.401  12.254  0.00  0.00     0.202 C 
BRANCH  46  47
HETATM   47  C   UNK N   1      36.066  13.405  12.830  0.00  0.00     0.141 C 
BRANCH  47  48
HETATM   48  N   UNK N   1      35.885  13.890  14.007  0.00  0.00    -0.372 N 
ATOM     49  HN  UNK N   1      34.982  14.310  14.231  1.00  0.00     0.161 HD
BRANCH  48  50
HETATM   50  C   UNK N   1      36.905  13.865  15.020  0.00  0.00     0.129 C 
BRANCH  50  51
HETATM   51  C   UNK N   1      36.221  13.950  16.368  0.00  0.00     0.103 C 
BRANCH  51  52
HETATM   52  C   UNK N   1      35.144  12.928  16.532  0.00  0.00     0.112 C 
BRANCH  52  53
HETATM   53  N   UNK N   1      35.401  11.863  17.205  0.00  0.00    -0.375 N 
ATOM     54  HN  UNK N   1      35.689  11.021  16.706  1.00  0.00     0.161 HD
BRANCH  53  55
HETATM   55  C   UNK N   1      35.295  11.818  18.640  0.00  0.00     0.117 C 
HETATM   56  C   UNK N   1      36.040  10.606  19.158  0.00  0.00     0.026 C 
ENDBRANCH  53  55
ENDBRANCH  52  53
BRANCH  52  57
HETATM   57  O   UNK N   1      33.921  13.122  15.988  0.00  0.00    -0.350 OA
HETATM   58  H   UNK N   1      33.243  13.669  16.336  0.00  0.00     0.219 HD
ENDBRANCH  52  57
ENDBRANCH  51  52
ENDBRANCH  50  51
ENDBRANCH  48  50
ENDBRANCH  47  48
BRANCH  47  59
HETATM   59  O   UNK N   1      37.124  13.794  12.086  0.00  0.00    -0.348 OA
HETATM   60  H   UNK N   1      37.000  14.190  11.246  0.00  0.00     0.219 HD
ENDBRANCH  47  59
ENDBRANCH  46  47
BRANCH  46  61
HETATM   61  O   UNK N   1      34.552  12.936  11.084  0.00  0.00    -0.387 OA
HETATM   62  H   UNK N   1      34.497  12.875  10.118  0.00  0.00     0.210 HD
ENDBRANCH  46  61
ENDBRANCH  43  46
ENDBRANCH  42  43
ENDBRANCH  41  42
ENDBRANCH  37  41
ENDBRANCH  36  37
ENDBRANCH  32  36
ENDBRANCH   1  32
TORSDOF 28
ENDMDL
