REMARK  17 active torsions:
REMARK  status: ('A' for Active; 'I' for Inactive)
REMARK    1  A    between atoms: C_1  and  N_2 
REMARK    2  A    between atoms: C_4  and  O_9 
REMARK    3  A    between atoms: C_7  and  C_13 
REMARK    4  A    between atoms: C_8  and  O_14 
REMARK    5  A    between atoms: C_13  and  O_16 
REMARK    6  A    between atoms: O_16  and  P_18 
REMARK    7  A    between atoms: P_18  and  O_19 
REMARK    8  A    between atoms: P_18  and  O_20 
REMARK    9  A    between atoms: O_19  and  P_22 
REMARK   10  A    between atoms: P_22  and  O_23 
REMARK   11  A    between atoms: P_22  and  O_24 
REMARK   12  A    between atoms: C_26  and  O_23 
REMARK   13  A    between atoms: C_28  and  O_31 
REMARK   14  A    between atoms: C_29  and  C_33 
REMARK   15  A    between atoms: C_30  and  O_34 
REMARK   16  A    between atoms: C_32  and  O_35 
REMARK   17  A    between atoms: C_33  and  O_36 
ROOT
HETATM    1  P   UNK N   1      14.068  -7.749  -0.246  0.00  0.00     0.401 P 
HETATM    2  O   UNK N   1      14.406  -6.302  -0.693  0.00  0.00    -0.631 OA
ENDROOT
BRANCH   1   3
HETATM    3  O   UNK N   1      15.349  -8.294   0.793  0.00  0.00    -0.294 OA
BRANCH   3   4
HETATM    4  C   UNK N   1      16.449  -8.423  -0.049  0.00  0.00     0.215 C 
BRANCH   4   5
HETATM    5  C   UNK N   1      16.593  -9.858  -0.540  0.00  0.00     0.180 C 
HETATM    6  O   UNK N   1      17.577  -9.919  -1.554  0.00  0.00    -0.353 OA
HETATM    7  C   UNK N   1      18.742 -10.451  -0.961  0.00  0.00     0.263 C 
HETATM    8  C   UNK N   1      18.248 -11.392   0.133  0.00  0.00     0.198 C 
HETATM    9  C   UNK N   1      16.987 -10.759   0.612  0.00  0.00     0.182 C 
BRANCH   7  10
HETATM   10  N   UNK N   1      19.673  -9.383  -0.525  0.00  0.00    -0.280 N 
HETATM   11  C   UNK N   1      20.958  -9.685  -0.111  0.00  0.00     0.331 A 
HETATM   12  N   UNK N   1      21.818  -8.682   0.253  0.00  0.00    -0.275 N 
HETATM   13  O   UNK N   1      21.348 -10.840  -0.088  0.00  0.00    -0.246 OA
HETATM   14  C   UNK N   1      21.430  -7.371   0.202  0.00  0.00     0.250 A 
HETATM   15  H   UNK N   1      22.727  -8.907   0.556  0.00  0.00     0.173 HD
HETATM   16  O   UNK N   1      22.204  -6.492   0.531  0.00  0.00    -0.268 OA
HETATM   17  C   UNK N   1      20.155  -7.046  -0.235  0.00  0.00     0.092 A 
HETATM   18  C   UNK N   1      19.293  -8.073  -0.603  0.00  0.00     0.104 A 
ENDBRANCH   7  10
BRANCH   8  19
HETATM   19  O   UNK N   1      19.140 -11.589   1.186  0.00  0.00    -0.388 OA
HETATM   20  H   UNK N   1      19.332 -12.195   1.919  0.00  0.00     0.210 HD
ENDBRANCH   8  19
BRANCH   9  21
HETATM   21  O   UNK N   1      16.017 -11.746   0.794  0.00  0.00    -0.390 OA
HETATM   22  H   UNK N   1      15.086 -11.504   0.922  0.00  0.00     0.210 HD
ENDBRANCH   9  21
ENDBRANCH   4   5
ENDBRANCH   3   4
ENDBRANCH   1   3
BRANCH   1  23
HETATM   23  O   UNK N   1      12.594  -7.669   0.680  0.00  0.00    -0.195 OA
BRANCH  23  24
HETATM   24  P   UNK N   1      11.427  -8.717  -0.077  0.00  0.00     0.404 P 
HETATM   25  O   UNK N   1      10.578  -7.556   0.508  0.00  0.00    -0.631 OA
BRANCH  24  26
HETATM   26  O   UNK N   1      10.331  -9.524   1.000  0.00  0.00    -0.263 OA
BRANCH  26  27
HETATM   27  C   UNK N   1       9.343 -10.127   0.217  0.00  0.00     0.303 C 
HETATM   28  O   UNK N   1       8.096  -9.675   0.691  0.00  0.00    -0.348 OA
HETATM   29  C   UNK N   1       7.088 -10.175  -0.151  0.00  0.00     0.179 C 
HETATM   30  C   UNK N   1       6.968 -11.690   0.079  0.00  0.00     0.180 C 
HETATM   31  C   UNK N   1       8.293 -12.331  -0.324  0.00  0.00     0.183 C 
HETATM   32  C   UNK N   1       9.449 -11.647   0.396  0.00  0.00     0.205 C 
BRANCH  29  33
HETATM   33  C   UNK N   1       5.795  -9.447   0.194  0.00  0.00     0.198 C 
BRANCH  33  34
HETATM   34  O   UNK N   1       4.800  -9.736  -0.740  0.00  0.00    -0.398 OA
HETATM   35  H   UNK N   1       4.280  -9.237  -1.390  0.00  0.00     0.209 HD
ENDBRANCH  33  34
ENDBRANCH  29  33
BRANCH  30  36
HETATM   36  O   UNK N   1       5.939 -12.237  -0.689  0.00  0.00    -0.390 OA
HETATM   37  H   UNK N   1       5.252 -11.808  -1.224  0.00  0.00     0.210 HD
ENDBRANCH  30  36
BRANCH  31  38
HETATM   38  O   UNK N   1       8.281 -13.692  -0.015  0.00  0.00    -0.390 OA
HETATM   39  H   UNK N   1       7.458 -14.158   0.199  0.00  0.00     0.210 HD
ENDBRANCH  31  38
BRANCH  32  40
HETATM   40  O   UNK N   1      10.662 -12.109  -0.119  0.00  0.00    -0.388 OA
HETATM   41  H   UNK N   1      10.806 -12.999  -0.476  0.00  0.00     0.210 HD
ENDBRANCH  32  40
ENDBRANCH  26  27
ENDBRANCH  24  26
BRANCH  24  42
HETATM   42  O   UNK N   1      12.261  -9.631   1.146  0.00  0.00    -0.307 OA
HETATM   43  H   UNK N   1      12.052 -10.288   1.828  0.00  0.00     0.222 HD
ENDBRANCH  24  42
ENDBRANCH  23  24
ENDBRANCH   1  23
BRANCH   1  44
HETATM   44  O   UNK N   1      13.947  -8.738  -1.673  0.00  0.00    -0.307 OA
HETATM   45  H   UNK N   1      13.435  -8.956  -2.468  0.00  0.00     0.222 HD
ENDBRANCH   1  44
TORSDOF 17
