REMARK  2 active torsions:
REMARK  status: ('A' for Active; 'I' for Inactive)
REMARK    1  A    between atoms: C_10  and  O_11 
REMARK    2  A    between atoms: C_15  and  O_22 
ROOT
HETATM    1  C   UNK N   1       5.609   2.711   1.179  0.00  0.00     0.018 C 
HETATM    2  C   UNK N   1       5.282   1.619   0.160  0.00  0.00    -0.014 C 
HETATM    3  C   UNK N   1       4.160   2.127  -0.747  0.00  0.00     0.012 C 
HETATM    4  C   UNK N   1       2.919   2.377   0.107  0.00  0.00     0.007 C 
HETATM    5  C   UNK N   1       2.336   1.057   0.637  0.00  0.00     0.002 C 
HETATM    6  C   UNK N   1       3.370  -0.101   0.750  0.00  0.00    -0.004 C 
HETATM    7  C   UNK N   1       4.872   0.311   0.872  0.00  0.00     0.001 C 
HETATM    8  C   UNK N   1       5.808  -0.768   0.331  0.00  0.00     0.008 C 
HETATM    9  C   UNK N   1       6.319  -0.205  -0.982  0.00  0.00     0.033 C 
HETATM   10  C   UNK N   1       6.516   1.264  -0.681  0.00  0.00     0.126 C 
HETATM   11  C   UNK N   1       3.054  -1.256  -0.198  0.00  0.00     0.010 C 
HETATM   12  C   UNK N   1       1.681  -1.825   0.149  0.00  0.00     0.038 C 
HETATM   13  C   UNK N   1       0.609  -0.757   0.158  0.00  0.00    -0.034 C 
HETATM   14  C   UNK N   1      -0.689  -1.128   0.262  0.00  0.00     0.114 C 
HETATM   15  C   UNK N   1      -1.778  -0.126   0.160  0.00  0.00     0.182 C 
HETATM   16  O   UNK N   1      -2.942  -0.496   0.153  0.00  0.00    -0.290 OA
HETATM   17  C   UNK N   1      -1.476   1.332  -0.009  0.00  0.00     0.087 C 
HETATM   18  C   UNK N   1      -0.064   1.661   0.460  0.00  0.00     0.022 C 
HETATM   19  C   UNK N   1       1.001   0.697  -0.082  0.00  0.00    -0.013 C 
HETATM   20  C   UNK N   1       1.131   0.873  -1.596  0.00  0.00     0.020 C 
ENDROOT
BRANCH  10  21
HETATM   21  O   UNK N   1       7.698   1.388   0.061  0.00  0.00    -0.395 OA
HETATM   22  H   UNK N   1       8.181   0.722   0.575  0.00  0.00     0.210 HD
ENDBRANCH  10  21
BRANCH  14  23
HETATM   23  O   UNK N   1      -1.009  -2.430   0.414  0.00  0.00    -0.357 OA
HETATM   24  H   UNK N   1      -1.903  -2.689   0.520  0.00  0.00     0.218 HD
ENDBRANCH  14  23
TORSDOF 2
