MODEL 1
REMARK VINA RESULT:      -4.6      0.000      0.000
REMARK  10 active torsions:
REMARK  status: ('A' for Active; 'I' for Inactive)
REMARK    1  A    between atoms: C_2  and  N_3 
REMARK    2  A    between atoms: C_2  and  C_4 
REMARK    3  A    between atoms: C_4  and  N_5 
REMARK    4  A    between atoms: C_4  and  C_6 
REMARK    5  A    between atoms: C_6  and  C_7 
REMARK    6  A    between atoms: C_7  and  C_8 
REMARK    7  A    between atoms: C_8  and  C_9 
REMARK    8  A    between atoms: C_9  and  C_10 
REMARK    9  A    between atoms: C_10  and  C_11 
REMARK   10  A    between atoms: C_11  and  O_12 
ROOT
HETATM    1  C   UNK N   1      29.936  18.023   8.186  0.00  0.00     0.095 C 
ENDROOT
BRANCH   1   2
HETATM    2  C   UNK N   1      28.697  17.492   8.916  0.00  0.00     0.092 C 
HETATM    3  C   UNK N   1      29.065  16.991  10.300  0.00  0.00     0.033 C 
BRANCH   2   4
HETATM    4  N   UNK N   1      27.689  18.530   9.057  0.00  0.00    -0.424 N 
HETATM    5  H   UNK N   1      26.812  18.365   9.550  0.00  0.00     0.150 HD
HETATM    6  H   UNK N   1      27.864  19.449   8.652  0.00  0.00     0.150 HD
ENDBRANCH   2   4
ENDBRANCH   1   2
BRANCH   1   7
HETATM    7  N   UNK N   1      31.109  17.865   9.031  0.00  0.00    -0.424 N 
HETATM    8  H   UNK N   1      31.057  17.418   9.947  0.00  0.00     0.150 HD
HETATM    9  H   UNK N   1      32.009  18.211   8.699  0.00  0.00     0.150 HD
ENDBRANCH   1   7
BRANCH   1  10
HETATM   10  C   UNK N   1      30.182  17.270   6.886  0.00  0.00     0.026 C 
BRANCH  10  11
HETATM   11  C   UNK N   1      31.480  16.477   6.945  0.00  0.00     0.002 C 
BRANCH  11  12
HETATM   12  C   UNK N   1      32.370  16.803   5.758  0.00  0.00     0.001 C 
BRANCH  12  13
HETATM   13  C   UNK N   1      33.510  17.692   6.206  0.00  0.00     0.010 C 
BRANCH  13  14
HETATM   14  C   UNK N   1      34.335  17.009   7.280  0.00  0.00     0.110 C 
BRANCH  14  15
HETATM   15  C   UNK N   1      34.547  17.902   8.467  0.00  0.00     0.139 C 
HETATM   16  O   UNK N   1      35.017  19.024   8.336  0.00  0.00    -0.650 OA
BRANCH  15  17
HETATM   17  O   UNK N   1      34.212  17.463   9.693  0.00  0.00    -0.776 OA
HETATM   18  H   UNK N   1      33.343  17.590  10.018  0.00  0.00     0.167 HD
ENDBRANCH  15  17
ENDBRANCH  14  15
ENDBRANCH  13  14
ENDBRANCH  12  13
ENDBRANCH  11  12
ENDBRANCH  10  11
ENDBRANCH   1  10
TORSDOF 10
ENDMDL
MODEL 2
REMARK VINA RESULT:      -4.5      2.442      3.147
REMARK  10 active torsions:
REMARK  status: ('A' for Active; 'I' for Inactive)
REMARK    1  A    between atoms: C_2  and  N_3 
REMARK    2  A    between atoms: C_2  and  C_4 
REMARK    3  A    between atoms: C_4  and  N_5 
REMARK    4  A    between atoms: C_4  and  C_6 
REMARK    5  A    between atoms: C_6  and  C_7 
REMARK    6  A    between atoms: C_7  and  C_8 
REMARK    7  A    between atoms: C_8  and  C_9 
REMARK    8  A    between atoms: C_9  and  C_10 
REMARK    9  A    between atoms: C_10  and  C_11 
REMARK   10  A    between atoms: C_11  and  O_12 
ROOT
HETATM    1  C   UNK N   1      28.311  18.961   7.008  0.00  0.00     0.095 C 
ENDROOT
BRANCH   1   2
HETATM    2  C   UNK N   1      27.569  19.493   5.776  0.00  0.00     0.092 C 
HETATM    3  C   UNK N   1      27.162  20.941   5.980  0.00  0.00     0.033 C 
BRANCH   2   4
HETATM    4  N   UNK N   1      28.404  19.414   4.589  0.00  0.00    -0.424 N 
HETATM    5  H   UNK N   1      28.210  18.753   3.838  0.00  0.00     0.150 HD
HETATM    6  H   UNK N   1      29.206  20.038   4.505  0.00  0.00     0.150 HD
ENDBRANCH   2   4
ENDBRANCH   1   2
BRANCH   1   7
HETATM    7  N   UNK N   1      27.514  19.200   8.201  0.00  0.00    -0.424 N 
HETATM    8  H   UNK N   1      26.898  20.009   8.285  0.00  0.00     0.150 HD
HETATM    9  H   UNK N   1      27.573  18.540   8.976  0.00  0.00     0.150 HD
ENDBRANCH   1   7
BRANCH   1  10
HETATM   10  C   UNK N   1      28.568  17.465   6.900  0.00  0.00     0.026 C 
BRANCH  10  11
HETATM   11  C   UNK N   1      29.642  17.017   7.881  0.00  0.00     0.002 C 
BRANCH  11  12
HETATM   12  C   UNK N   1      31.027  17.376   7.372  0.00  0.00     0.001 C 
BRANCH  12  13
HETATM   13  C   UNK N   1      31.821  18.034   8.479  0.00  0.00     0.010 C 
BRANCH  13  14
HETATM   14  C   UNK N   1      33.198  17.408   8.599  0.00  0.00     0.110 C 
BRANCH  14  15
HETATM   15  C   UNK N   1      34.223  18.174   7.816  0.00  0.00     0.139 C 
HETATM   16  O   UNK N   1      34.886  19.057   8.341  0.00  0.00    -0.650 OA
BRANCH  15  17
HETATM   17  O   UNK N   1      34.419  17.881   6.518  0.00  0.00    -0.776 OA
HETATM   18  H   UNK N   1      34.281  18.535   5.862  0.00  0.00     0.167 HD
ENDBRANCH  15  17
ENDBRANCH  14  15
ENDBRANCH  13  14
ENDBRANCH  12  13
ENDBRANCH  11  12
ENDBRANCH  10  11
ENDBRANCH   1  10
TORSDOF 10
ENDMDL
MODEL 3
REMARK VINA RESULT:      -4.3      9.500     11.746
REMARK  10 active torsions:
REMARK  status: ('A' for Active; 'I' for Inactive)
REMARK    1  A    between atoms: C_2  and  N_3 
REMARK    2  A    between atoms: C_2  and  C_4 
REMARK    3  A    between atoms: C_4  and  N_5 
REMARK    4  A    between atoms: C_4  and  C_6 
REMARK    5  A    between atoms: C_6  and  C_7 
REMARK    6  A    between atoms: C_7  and  C_8 
REMARK    7  A    between atoms: C_8  and  C_9 
REMARK    8  A    between atoms: C_9  and  C_10 
REMARK    9  A    between atoms: C_10  and  C_11 
REMARK   10  A    between atoms: C_11  and  O_12 
ROOT
HETATM    1  C   UNK N   1      22.876  12.129  10.053  0.00  0.00     0.095 C 
ENDROOT
BRANCH   1   2
HETATM    2  C   UNK N   1      24.407  12.155   9.983  0.00  0.00     0.092 C 
HETATM    3  C   UNK N   1      24.883  13.287   9.092  0.00  0.00     0.033 C 
BRANCH   2   4
HETATM    4  N   UNK N   1      24.987  12.335  11.304  0.00  0.00    -0.424 N 
HETATM    5  H   UNK N   1      24.654  11.812  12.113  0.00  0.00     0.150 HD
HETATM    6  H   UNK N   1      25.747  13.003  11.424  0.00  0.00     0.150 HD
ENDBRANCH   2   4
ENDBRANCH   1   2
BRANCH   1   7
HETATM    7  N   UNK N   1      22.452  11.684  11.371  0.00  0.00    -0.424 N 
HETATM    8  H   UNK N   1      23.038  11.082  11.950  0.00  0.00     0.150 HD
HETATM    9  H   UNK N   1      21.545  11.983  11.727  0.00  0.00     0.150 HD
ENDBRANCH   1   7
BRANCH   1  10
HETATM   10  C   UNK N   1      22.284  13.509   9.804  0.00  0.00     0.026 C 
BRANCH  10  11
HETATM   11  C   UNK N   1      20.853  13.413   9.294  0.00  0.00     0.002 C 
BRANCH  11  12
HETATM   12  C   UNK N   1      20.552  14.529   8.309  0.00  0.00     0.001 C 
BRANCH  12  13
HETATM   13  C   UNK N   1      20.623  15.865   9.017  0.00  0.00     0.010 C 
BRANCH  13  14
HETATM   14  C   UNK N   1      20.086  16.973   8.130  0.00  0.00     0.110 C 
BRANCH  14  15
HETATM   15  C   UNK N   1      19.451  18.068   8.935  0.00  0.00     0.139 C 
HETATM   16  O   UNK N   1      20.100  19.037   9.303  0.00  0.00    -0.650 OA
BRANCH  15  17
HETATM   17  O   UNK N   1      18.147  17.983   9.253  0.00  0.00    -0.776 OA
HETATM   18  H   UNK N   1      17.884  17.924  10.150  0.00  0.00     0.167 HD
ENDBRANCH  15  17
ENDBRANCH  14  15
ENDBRANCH  13  14
ENDBRANCH  12  13
ENDBRANCH  11  12
ENDBRANCH  10  11
ENDBRANCH   1  10
TORSDOF 10
ENDMDL
MODEL 4
REMARK VINA RESULT:      -4.2     10.232     11.359
REMARK  10 active torsions:
REMARK  status: ('A' for Active; 'I' for Inactive)
REMARK    1  A    between atoms: C_2  and  N_3 
REMARK    2  A    between atoms: C_2  and  C_4 
REMARK    3  A    between atoms: C_4  and  N_5 
REMARK    4  A    between atoms: C_4  and  C_6 
REMARK    5  A    between atoms: C_6  and  C_7 
REMARK    6  A    between atoms: C_7  and  C_8 
REMARK    7  A    between atoms: C_8  and  C_9 
REMARK    8  A    between atoms: C_9  and  C_10 
REMARK    9  A    between atoms: C_10  and  C_11 
REMARK   10  A    between atoms: C_11  and  O_12 
ROOT
HETATM    1  C   UNK N   1      23.722  12.417  10.511  0.00  0.00     0.095 C 
ENDROOT
BRANCH   1   2
HETATM    2  C   UNK N   1      22.908  11.628  11.543  0.00  0.00     0.092 C 
HETATM    3  C   UNK N   1      23.332  11.996  12.953  0.00  0.00     0.033 C 
BRANCH   2   4
HETATM    4  N   UNK N   1      21.487  11.901  11.406  0.00  0.00    -0.424 N 
HETATM    5  H   UNK N   1      20.789  11.417  11.971  0.00  0.00     0.150 HD
HETATM    6  H   UNK N   1      21.179  12.595  10.727  0.00  0.00     0.150 HD
ENDBRANCH   2   4
ENDBRANCH   1   2
BRANCH   1   7
HETATM    7  N   UNK N   1      25.053  12.683  11.035  0.00  0.00    -0.424 N 
HETATM    8  H   UNK N   1      25.579  13.516  10.771  0.00  0.00     0.150 HD
HETATM    9  H   UNK N   1      25.471  12.018  11.685  0.00  0.00     0.150 HD
ENDBRANCH   1   7
BRANCH   1  10
HETATM   10  C   UNK N   1      23.870  11.642   9.209  0.00  0.00     0.026 C 
BRANCH  10  11
HETATM   11  C   UNK N   1      22.949  12.193   8.131  0.00  0.00     0.002 C 
BRANCH  11  12
HETATM   12  C   UNK N   1      22.854  13.706   8.217  0.00  0.00     0.001 C 
BRANCH  12  13
HETATM   13  C   UNK N   1      21.475  14.156   7.788  0.00  0.00     0.010 C 
BRANCH  13  14
HETATM   14  C   UNK N   1      20.593  14.416   8.995  0.00  0.00     0.110 C 
BRANCH  14  15
HETATM   15  C   UNK N   1      19.979  15.784   8.946  0.00  0.00     0.139 C 
HETATM   16  O   UNK N   1      20.662  16.774   8.728  0.00  0.00    -0.650 OA
BRANCH  15  17
HETATM   17  O   UNK N   1      18.655  15.921   9.142  0.00  0.00    -0.776 OA
HETATM   18  H   UNK N   1      18.176  15.261   9.603  0.00  0.00     0.167 HD
ENDBRANCH  15  17
ENDBRANCH  14  15
ENDBRANCH  13  14
ENDBRANCH  12  13
ENDBRANCH  11  12
ENDBRANCH  10  11
ENDBRANCH   1  10
TORSDOF 10
ENDMDL
MODEL 5
REMARK VINA RESULT:      -4.2     13.911     14.835
REMARK  10 active torsions:
REMARK  status: ('A' for Active; 'I' for Inactive)
REMARK    1  A    between atoms: C_2  and  N_3 
REMARK    2  A    between atoms: C_2  and  C_4 
REMARK    3  A    between atoms: C_4  and  N_5 
REMARK    4  A    between atoms: C_4  and  C_6 
REMARK    5  A    between atoms: C_6  and  C_7 
REMARK    6  A    between atoms: C_7  and  C_8 
REMARK    7  A    between atoms: C_8  and  C_9 
REMARK    8  A    between atoms: C_9  and  C_10 
REMARK    9  A    between atoms: C_10  and  C_11 
REMARK   10  A    between atoms: C_11  and  O_12 
ROOT
HETATM    1  C   UNK N   1      26.579  26.750  -4.098  0.00  0.00     0.095 C 
ENDROOT
BRANCH   1   2
HETATM    2  C   UNK N   1      26.065  27.509  -5.326  0.00  0.00     0.092 C 
HETATM    3  C   UNK N   1      26.890  27.163  -6.552  0.00  0.00     0.033 C 
BRANCH   2   4
HETATM    4  N   UNK N   1      24.676  27.181  -5.600  0.00  0.00    -0.424 N 
HETATM    5  H   UNK N   1      24.096  26.687  -4.922  0.00  0.00     0.150 HD
HETATM    6  H   UNK N   1      24.270  27.452  -6.495  0.00  0.00     0.150 HD
ENDBRANCH   2   4
ENDBRANCH   1   2
BRANCH   1   7
HETATM    7  N   UNK N   1      26.068  27.374  -2.887  0.00  0.00    -0.424 N 
HETATM    8  H   UNK N   1      25.072  27.539  -2.745  0.00  0.00     0.150 HD
HETATM    9  H   UNK N   1      26.726  27.652  -2.159  0.00  0.00     0.150 HD
ENDBRANCH   1   7
BRANCH   1  10
HETATM   10  C   UNK N   1      26.125  25.297  -4.111  0.00  0.00     0.026 C 
BRANCH  10  11
HETATM   11  C   UNK N   1      27.197  24.378  -3.544  0.00  0.00     0.002 C 
BRANCH  11  12
HETATM   12  C   UNK N   1      28.575  24.780  -4.037  0.00  0.00     0.001 C 
BRANCH  12  13
HETATM   13  C   UNK N   1      29.416  23.543  -4.263  0.00  0.00     0.010 C 
BRANCH  13  14
HETATM   14  C   UNK N   1      30.790  23.705  -3.641  0.00  0.00     0.110 C 
BRANCH  14  15
HETATM   15  C   UNK N   1      30.956  22.834  -2.431  0.00  0.00     0.139 C 
HETATM   16  O   UNK N   1      31.768  21.919  -2.419  0.00  0.00    -0.650 OA
BRANCH  15  17
HETATM   17  O   UNK N   1      30.202  23.065  -1.342  0.00  0.00    -0.776 OA
HETATM   18  H   UNK N   1      29.639  22.394  -1.007  0.00  0.00     0.167 HD
ENDBRANCH  15  17
ENDBRANCH  14  15
ENDBRANCH  13  14
ENDBRANCH  12  13
ENDBRANCH  11  12
ENDBRANCH  10  11
ENDBRANCH   1  10
TORSDOF 10
ENDMDL
MODEL 6
REMARK VINA RESULT:      -4.2      3.147      5.078
REMARK  10 active torsions:
REMARK  status: ('A' for Active; 'I' for Inactive)
REMARK    1  A    between atoms: C_2  and  N_3 
REMARK    2  A    between atoms: C_2  and  C_4 
REMARK    3  A    between atoms: C_4  and  N_5 
REMARK    4  A    between atoms: C_4  and  C_6 
REMARK    5  A    between atoms: C_6  and  C_7 
REMARK    6  A    between atoms: C_7  and  C_8 
REMARK    7  A    between atoms: C_8  and  C_9 
REMARK    8  A    between atoms: C_9  and  C_10 
REMARK    9  A    between atoms: C_10  and  C_11 
REMARK   10  A    between atoms: C_11  and  O_12 
ROOT
HETATM    1  C   UNK N   1      33.186  15.607   9.224  0.00  0.00     0.095 C 
ENDROOT
BRANCH   1   2
HETATM    2  C   UNK N   1      34.501  15.751   9.999  0.00  0.00     0.092 C 
HETATM    3  C   UNK N   1      35.649  15.130   9.223  0.00  0.00     0.033 C 
BRANCH   2   4
HETATM    4  N   UNK N   1      34.814  17.149  10.241  0.00  0.00    -0.424 N 
HETATM    5  H   UNK N   1      34.093  17.870  10.243  0.00  0.00     0.150 HD
HETATM    6  H   UNK N   1      35.782  17.417  10.416  0.00  0.00     0.150 HD
ENDBRANCH   2   4
ENDBRANCH   1   2
BRANCH   1   7
HETATM    7  N   UNK N   1      32.188  14.965  10.066  0.00  0.00    -0.424 N 
HETATM    8  H   UNK N   1      31.317  14.598   9.685  0.00  0.00     0.150 HD
HETATM    9  H   UNK N   1      32.366  14.880  11.066  0.00  0.00     0.150 HD
ENDBRANCH   1   7
BRANCH   1  10
HETATM   10  C   UNK N   1      32.643  16.962   8.793  0.00  0.00     0.026 C 
BRANCH  10  11
HETATM   11  C   UNK N   1      32.695  17.123   7.281  0.00  0.00     0.002 C 
BRANCH  11  12
HETATM   12  C   UNK N   1      31.299  17.102   6.684  0.00  0.00     0.001 C 
BRANCH  12  13
HETATM   13  C   UNK N   1      30.274  16.976   7.790  0.00  0.00     0.010 C 
BRANCH  13  14
HETATM   14  C   UNK N   1      29.401  18.216   7.859  0.00  0.00     0.110 C 
BRANCH  14  15
HETATM   15  C   UNK N   1      28.804  18.397   9.222  0.00  0.00     0.139 C 
HETATM   16  O   UNK N   1      29.496  18.728  10.175  0.00  0.00    -0.650 OA
BRANCH  15  17
HETATM   17  O   UNK N   1      27.486  18.195   9.399  0.00  0.00    -0.776 OA
HETATM   18  H   UNK N   1      26.888  18.343   8.693  0.00  0.00     0.167 HD
ENDBRANCH  15  17
ENDBRANCH  14  15
ENDBRANCH  13  14
ENDBRANCH  12  13
ENDBRANCH  11  12
ENDBRANCH  10  11
ENDBRANCH   1  10
TORSDOF 10
ENDMDL
MODEL 7
REMARK VINA RESULT:      -4.1      1.450      2.142
REMARK  10 active torsions:
REMARK  status: ('A' for Active; 'I' for Inactive)
REMARK    1  A    between atoms: C_2  and  N_3 
REMARK    2  A    between atoms: C_2  and  C_4 
REMARK    3  A    between atoms: C_4  and  N_5 
REMARK    4  A    between atoms: C_4  and  C_6 
REMARK    5  A    between atoms: C_6  and  C_7 
REMARK    6  A    between atoms: C_7  and  C_8 
REMARK    7  A    between atoms: C_8  and  C_9 
REMARK    8  A    between atoms: C_9  and  C_10 
REMARK    9  A    between atoms: C_10  and  C_11 
REMARK   10  A    between atoms: C_11  and  O_12 
ROOT
HETATM    1  C   UNK N   1      28.248  17.475   8.637  0.00  0.00     0.095 C 
ENDROOT
BRANCH   1   2
HETATM    2  C   UNK N   1      29.519  17.479   9.493  0.00  0.00     0.092 C 
HETATM    3  C   UNK N   1      29.897  18.896   9.883  0.00  0.00     0.033 C 
BRANCH   2   4
HETATM    4  N   UNK N   1      29.334  16.703  10.708  0.00  0.00    -0.424 N 
HETATM    5  H   UNK N   1      29.664  15.741  10.788  0.00  0.00     0.150 HD
HETATM    6  H   UNK N   1      28.860  17.131  11.502  0.00  0.00     0.150 HD
ENDBRANCH   2   4
ENDBRANCH   1   2
BRANCH   1   7
HETATM    7  N   UNK N   1      27.448  18.651   8.941  0.00  0.00    -0.424 N 
HETATM    8  H   UNK N   1      27.427  19.061   9.875  0.00  0.00     0.150 HD
HETATM    9  H   UNK N   1      26.893  19.078   8.200  0.00  0.00     0.150 HD
ENDBRANCH   1   7
BRANCH   1  10
HETATM   10  C   UNK N   1      28.577  17.496   7.151  0.00  0.00     0.026 C 
BRANCH  10  11
HETATM   11  C   UNK N   1      29.664  16.487   6.812  0.00  0.00     0.002 C 
BRANCH  11  12
HETATM   12  C   UNK N   1      30.821  17.156   6.090  0.00  0.00     0.001 C 
BRANCH  12  13
HETATM   13  C   UNK N   1      32.131  16.702   6.698  0.00  0.00     0.010 C 
BRANCH  13  14
HETATM   14  C   UNK N   1      32.577  17.658   7.788  0.00  0.00     0.110 C 
BRANCH  14  15
HETATM   15  C   UNK N   1      34.018  18.043   7.630  0.00  0.00     0.139 C 
HETATM   16  O   UNK N   1      34.661  18.483   8.573  0.00  0.00    -0.650 OA
BRANCH  15  17
HETATM   17  O   UNK N   1      34.613  17.900   6.432  0.00  0.00    -0.776 OA
HETATM   18  H   UNK N   1      34.112  17.981   5.644  0.00  0.00     0.167 HD
ENDBRANCH  15  17
ENDBRANCH  14  15
ENDBRANCH  13  14
ENDBRANCH  12  13
ENDBRANCH  11  12
ENDBRANCH  10  11
ENDBRANCH   1  10
TORSDOF 10
ENDMDL
MODEL 8
REMARK VINA RESULT:      -4.1     15.882     16.841
REMARK  10 active torsions:
REMARK  status: ('A' for Active; 'I' for Inactive)
REMARK    1  A    between atoms: C_2  and  N_3 
REMARK    2  A    between atoms: C_2  and  C_4 
REMARK    3  A    between atoms: C_4  and  N_5 
REMARK    4  A    between atoms: C_4  and  C_6 
REMARK    5  A    between atoms: C_6  and  C_7 
REMARK    6  A    between atoms: C_7  and  C_8 
REMARK    7  A    between atoms: C_8  and  C_9 
REMARK    8  A    between atoms: C_9  and  C_10 
REMARK    9  A    between atoms: C_10  and  C_11 
REMARK   10  A    between atoms: C_11  and  O_12 
ROOT
HETATM    1  C   UNK N   1      26.935  28.218  -3.602  0.00  0.00     0.095 C 
ENDROOT
BRANCH   1   2
HETATM    2  C   UNK N   1      27.493  29.568  -3.137  0.00  0.00     0.092 C 
HETATM    3  C   UNK N   1      26.540  30.693  -3.498  0.00  0.00     0.033 C 
BRANCH   2   4
HETATM    4  N   UNK N   1      27.695  29.582  -1.698  0.00  0.00    -0.424 N 
HETATM    5  H   UNK N   1      28.574  29.887  -1.281  0.00  0.00     0.150 HD
HETATM    6  H   UNK N   1      26.936  29.279  -1.088  0.00  0.00     0.150 HD
ENDBRANCH   2   4
ENDBRANCH   1   2
BRANCH   1   7
HETATM    7  N   UNK N   1      26.068  27.665  -2.573  0.00  0.00    -0.424 N 
HETATM    8  H   UNK N   1      25.543  26.802  -2.717  0.00  0.00     0.150 HD
HETATM    9  H   UNK N   1      25.983  28.154  -1.683  0.00  0.00     0.150 HD
ENDBRANCH   1   7
BRANCH   1  10
HETATM   10  C   UNK N   1      26.123  28.361  -4.881  0.00  0.00     0.026 C 
BRANCH  10  11
HETATM   11  C   UNK N   1      26.860  27.766  -6.073  0.00  0.00     0.002 C 
BRANCH  11  12
HETATM   12  C   UNK N   1      26.035  26.673  -6.731  0.00  0.00     0.001 C 
BRANCH  12  13
HETATM   13  C   UNK N   1      25.175  25.989  -5.691  0.00  0.00     0.010 C 
BRANCH  13  14
HETATM   14  C   UNK N   1      25.665  24.577  -5.431  0.00  0.00     0.110 C 
BRANCH  14  15
HETATM   15  C   UNK N   1      26.692  24.541  -4.339  0.00  0.00     0.139 C 
HETATM   16  O   UNK N   1      26.371  24.678  -3.167  0.00  0.00    -0.650 OA
BRANCH  15  17
HETATM   17  O   UNK N   1      27.986  24.351  -4.654  0.00  0.00    -0.776 OA
HETATM   18  H   UNK N   1      28.646  24.906  -4.288  0.00  0.00     0.167 HD
ENDBRANCH  15  17
ENDBRANCH  14  15
ENDBRANCH  13  14
ENDBRANCH  12  13
ENDBRANCH  11  12
ENDBRANCH  10  11
ENDBRANCH   1  10
TORSDOF 10
ENDMDL
MODEL 9
REMARK VINA RESULT:      -4.1      8.976     10.606
REMARK  10 active torsions:
REMARK  status: ('A' for Active; 'I' for Inactive)
REMARK    1  A    between atoms: C_2  and  N_3 
REMARK    2  A    between atoms: C_2  and  C_4 
REMARK    3  A    between atoms: C_4  and  N_5 
REMARK    4  A    between atoms: C_4  and  C_6 
REMARK    5  A    between atoms: C_6  and  C_7 
REMARK    6  A    between atoms: C_7  and  C_8 
REMARK    7  A    between atoms: C_8  and  C_9 
REMARK    8  A    between atoms: C_9  and  C_10 
REMARK    9  A    between atoms: C_10  and  C_11 
REMARK   10  A    between atoms: C_11  and  O_12 
ROOT
HETATM    1  C   UNK N   1      26.034  18.863   4.297  0.00  0.00     0.095 C 
ENDROOT
BRANCH   1   2
HETATM    2  C   UNK N   1      26.955  20.087   4.234  0.00  0.00     0.092 C 
HETATM    3  C   UNK N   1      26.807  20.932   5.486  0.00  0.00     0.033 C 
BRANCH   2   4
HETATM    4  N   UNK N   1      28.347  19.688   4.112  0.00  0.00    -0.424 N 
HETATM    5  H   UNK N   1      29.030  20.262   3.616  0.00  0.00     0.150 HD
HETATM    6  H   UNK N   1      28.650  18.811   4.533  0.00  0.00     0.150 HD
ENDBRANCH   2   4
ENDBRANCH   1   2
BRANCH   1   7
HETATM    7  N   UNK N   1      26.007  18.339   5.654  0.00  0.00    -0.424 N 
HETATM    8  H   UNK N   1      25.195  17.845   6.025  0.00  0.00     0.150 HD
HETATM    9  H   UNK N   1      26.824  18.468   6.250  0.00  0.00     0.150 HD
ENDBRANCH   1   7
BRANCH   1  10
HETATM   10  C   UNK N   1      24.609  19.217   3.896  0.00  0.00     0.026 C 
BRANCH  10  11
HETATM   11  C   UNK N   1      23.594  18.441   4.723  0.00  0.00     0.002 C 
BRANCH  11  12
HETATM   12  C   UNK N   1      22.410  18.018   3.872  0.00  0.00     0.001 C 
BRANCH  12  13
HETATM   13  C   UNK N   1      21.380  19.126   3.846  0.00  0.00     0.010 C 
BRANCH  13  14
HETATM   14  C   UNK N   1      20.801  19.290   2.453  0.00  0.00     0.110 C 
BRANCH  14  15
HETATM   15  C   UNK N   1      21.242  20.575   1.818  0.00  0.00     0.139 C 
HETATM   16  O   UNK N   1      21.329  20.681   0.603  0.00  0.00    -0.650 OA
BRANCH  15  17
HETATM   17  O   UNK N   1      21.544  21.628   2.599  0.00  0.00    -0.776 OA
HETATM   18  H   UNK N   1      21.272  21.644   3.495  0.00  0.00     0.167 HD
ENDBRANCH  15  17
ENDBRANCH  14  15
ENDBRANCH  13  14
ENDBRANCH  12  13
ENDBRANCH  11  12
ENDBRANCH  10  11
ENDBRANCH   1  10
TORSDOF 10
ENDMDL
