REMARK  30 active torsions:
REMARK  status: ('A' for Active; 'I' for Inactive)
REMARK    1  A    between atoms: C_6  and  C_1 
REMARK    2  A    between atoms: O_31  and  C_1 
REMARK    3  A    between atoms: C_7  and  C_2 
REMARK    4  A    between atoms: O_32  and  C_2 
REMARK    5  A    between atoms: C_8  and  C_3 
REMARK    6  A    between atoms: O_33  and  C_3 
REMARK    7  A    between atoms: C_9  and  C_4 
REMARK    8  A    between atoms: O_34  and  C_4 
REMARK    9  A    between atoms: C_10  and  C_5 
REMARK   10  A    between atoms: O_35  and  C_5 
REMARK   11  A    between atoms: C_11  and  O_36 
REMARK   12  A    between atoms: C_12  and  O_37 
REMARK   13  A    between atoms: C_13  and  O_38 
REMARK   14  A    between atoms: C_14  and  O_39 
REMARK   15  A    between atoms: C_15  and  O_40 
REMARK   16  A    between atoms: C_16  and  O_41 
REMARK   17  A    between atoms: C_17  and  O_42 
REMARK   18  A    between atoms: C_18  and  O_43 
REMARK   19  A    between atoms: C_19  and  O_44 
REMARK   20  A    between atoms: C_20  and  O_45 
REMARK   21  A    between atoms: C_21  and  O_46 
REMARK   22  A    between atoms: C_22  and  O_52 
REMARK   23  A    between atoms: C_23  and  O_53 
REMARK   24  A    between atoms: C_24  and  S_55 
REMARK   25  A    between atoms: C_25  and  S_56 
REMARK   26  A    between atoms: C_26  and  O_52 
REMARK   27  A    between atoms: C_27  and  O_53 
REMARK   28  A    between atoms: C_28  and  S_54 
REMARK   29  A    between atoms: C_29  and  S_55 
REMARK   30  A    between atoms: C_30  and  S_56 
ROOT
HETATM    1  C   UNK N   1       6.079 -11.034  -1.290  0.00  0.00     0.178 C 
HETATM    2  C   UNK N   1       4.836  -8.929  -0.733  0.00  0.00     0.181 C 
HETATM    3  C   UNK N   1       6.120  -8.113  -0.892  0.00  0.00     0.188 C 
HETATM    4  C   UNK N   1       5.105 -10.409  -0.225  0.00  0.00     0.187 C 
HETATM    5  C   UNK N   1       7.304  -9.062  -0.950  0.00  0.00     0.215 C 
HETATM    6  O   UNK N   1       7.060 -10.143  -1.819  0.00  0.00    -0.363 OA
ENDROOT
BRANCH   4   7
HETATM    7  O   UNK N   1       4.010 -11.325  -0.069  0.00  0.00    -0.348 OA
BRANCH   7   8
HETATM    8  C   UNK N   1       2.756 -10.679  -0.019  0.00  0.00     0.292 C 
HETATM    9  C   UNK N   1       1.576 -11.576  -0.342  0.00  0.00     0.203 C 
HETATM   10  C   UNK N   1       0.350 -10.622  -0.548  0.00  0.00     0.168 C 
HETATM   11  C   UNK N   1       0.537  -9.256   0.203  0.00  0.00     0.112 C 
HETATM   12  C   UNK N   1       1.265  -9.578   1.536  0.00  0.00     0.164 C 
HETATM   13  O   UNK N   1       2.581 -10.102   1.276  0.00  0.00    -0.350 OA
BRANCH   9  14
HETATM   14  O   UNK N   1       1.793 -12.348  -1.482  0.00  0.00    -0.388 OA
HETATM   15  H   UNK N   1       1.404 -12.748  -2.275  0.00  0.00     0.210 HD
ENDBRANCH   9  14
BRANCH  10  16
HETATM   16  O   UNK N   1      -0.805 -11.287  -0.132  0.00  0.00    -0.392 OA
HETATM   17  H   UNK N   1      -1.606 -10.823   0.157  0.00  0.00     0.210 HD
ENDBRANCH  10  16
BRANCH  11  18
HETATM   18  S   UNK N   1      -1.018  -8.267   0.187  0.00  0.00    -0.124 SA
BRANCH  18  19
HETATM   19  C   UNK N   1      -0.460  -6.641   0.887  0.00  0.00     0.215 C 
HETATM   20  C   UNK N   1      -1.367  -5.459   0.480  0.00  0.00     0.188 C 
HETATM   21  C   UNK N   1      -1.001  -4.946  -0.921  0.00  0.00     0.181 C 
HETATM   22  C   UNK N   1       0.494  -4.610  -0.972  0.00  0.00     0.180 C 
HETATM   23  C   UNK N   1       1.264  -5.883  -0.590  0.00  0.00     0.178 C 
HETATM   24  O   UNK N   1       0.926  -6.339   0.714  0.00  0.00    -0.363 OA
BRANCH  20  25
HETATM   25  O   UNK N   1      -1.208  -4.428   1.412  0.00  0.00    -0.389 OA
HETATM   26  H   UNK N   1      -0.534  -4.166   2.059  0.00  0.00     0.210 HD
ENDBRANCH  20  25
BRANCH  21  27
HETATM   27  O   UNK N   1      -1.761  -3.819  -1.243  0.00  0.00    -0.390 OA
HETATM   28  H   UNK N   1      -1.348  -2.971  -1.467  0.00  0.00     0.210 HD
ENDBRANCH  21  27
BRANCH  22  29
HETATM   29  O   UNK N   1       0.800  -3.562  -0.095  0.00  0.00    -0.390 OA
HETATM   30  H   UNK N   1       1.535  -3.382   0.512  0.00  0.00     0.210 HD
ENDBRANCH  22  29
BRANCH  23  31
HETATM   31  C   UNK N   1       2.774  -5.652  -0.659  0.00  0.00     0.198 C 
BRANCH  31  32
HETATM   32  O   UNK N   1       3.209  -4.805   0.364  0.00  0.00    -0.398 OA
HETATM   33  H   UNK N   1       3.870  -4.773   1.074  0.00  0.00     0.209 HD
ENDBRANCH  31  32
ENDBRANCH  23  31
ENDBRANCH  18  19
ENDBRANCH  11  18
BRANCH  12  34
HETATM   34  C   UNK N   1       1.446  -8.378   2.447  0.00  0.00     0.197 C 
BRANCH  34  35
HETATM   35  O   UNK N   1       2.076  -8.751   3.635  0.00  0.00    -0.398 OA
HETATM   36  H   UNK N   1       2.070  -9.260   4.461  0.00  0.00     0.209 HD
ENDBRANCH  34  35
ENDBRANCH  12  34
ENDBRANCH   7   8
ENDBRANCH   4   7
BRANCH   1  37
HETATM   37  C   UNK N   1       6.778 -12.290  -0.767  0.00  0.00     0.198 C 
BRANCH  37  38
HETATM   38  O   UNK N   1       5.863 -13.286  -0.429  0.00  0.00    -0.398 OA
HETATM   39  H   UNK N   1       4.945 -13.081  -0.194  0.00  0.00     0.209 HD
ENDBRANCH  37  38
ENDBRANCH   1  37
BRANCH   2  40
HETATM   40  O   UNK N   1       3.989  -8.208   0.113  0.00  0.00    -0.390 OA
HETATM   41  H   UNK N   1       4.128  -7.449   0.701  0.00  0.00     0.210 HD
ENDBRANCH   2  40
BRANCH   3  42
HETATM   42  O   UNK N   1       6.032  -7.316  -2.039  0.00  0.00    -0.389 OA
HETATM   43  H   UNK N   1       6.480  -6.986  -2.834  0.00  0.00     0.210 HD
ENDBRANCH   3  42
BRANCH   5  44
HETATM   44  S   UNK N   1       8.810  -8.196  -1.411  0.00  0.00    -0.124 SA
BRANCH  44  45
HETATM   45  C   UNK N   1       9.941  -9.115  -0.301  0.00  0.00     0.112 C 
HETATM   46  C   UNK N   1      10.133  -8.491   1.147  0.00  0.00     0.164 C 
HETATM   47  O   UNK N   1      10.858  -9.341   2.055  0.00  0.00    -0.350 OA
HETATM   48  C   UNK N   1      11.794 -10.168   1.386  0.00  0.00     0.292 C 
HETATM   49  C   UNK N   1      11.006 -11.269   0.627  0.00  0.00     0.203 C 
HETATM   50  C   UNK N   1       9.807 -10.658  -0.174  0.00  0.00     0.168 C 
BRANCH  46  51
HETATM   51  C   UNK N   1       8.818  -8.147   1.840  0.00  0.00     0.197 C 
BRANCH  51  52
HETATM   52  O   UNK N   1       8.310  -6.938   1.356  0.00  0.00    -0.398 OA
HETATM   53  H   UNK N   1       8.861  -6.214   1.019  0.00  0.00     0.209 HD
ENDBRANCH  51  52
ENDBRANCH  46  51
BRANCH  48  54
HETATM   54  O   UNK N   1      12.440  -9.392   0.416  0.00  0.00    -0.348 OA
BRANCH  54  55
HETATM   55  C   UNK N   1      13.796  -9.115   0.410  0.00  0.00     0.187 C 
HETATM   56  C   UNK N   1      14.571 -10.281  -0.280  0.00  0.00     0.178 C 
HETATM   57  O   UNK N   1      15.741  -9.893  -1.011  0.00  0.00    -0.363 OA
HETATM   58  C   UNK N   1      16.281  -8.672  -0.551  0.00  0.00     0.212 C 
HETATM   59  C   UNK N   1      15.318  -7.483  -0.783  0.00  0.00     0.188 C 
HETATM   60  C   UNK N   1      13.867  -7.909  -0.538  0.00  0.00     0.181 C 
BRANCH  56  61
HETATM   61  C   UNK N   1      14.886 -11.382   0.725  0.00  0.00     0.198 C 
BRANCH  61  62
HETATM   62  O   UNK N   1      15.421 -12.494   0.075  0.00  0.00    -0.398 OA
HETATM   63  H   UNK N   1      14.937 -13.203  -0.377  0.00  0.00     0.209 HD
ENDBRANCH  61  62
ENDBRANCH  56  61
BRANCH  58  64
HETATM   64  S   UNK N   1      17.891  -8.376  -1.344  0.00  0.00    -0.148 SA
HETATM   65  H   UNK N   1      18.685  -9.308  -1.936  0.00  0.00     0.104 HD
ENDBRANCH  58  64
BRANCH  59  66
HETATM   66  O   UNK N   1      15.426  -6.955  -2.076  0.00  0.00    -0.389 OA
HETATM   67  H   UNK N   1      15.779  -6.837  -2.972  0.00  0.00     0.210 HD
ENDBRANCH  59  66
BRANCH  60  68
HETATM   68  O   UNK N   1      13.275  -8.276  -1.760  0.00  0.00    -0.390 OA
HETATM   69  H   UNK N   1      12.852  -8.049  -2.602  0.00  0.00     0.210 HD
ENDBRANCH  60  68
ENDBRANCH  54  55
ENDBRANCH  48  54
BRANCH  49  70
HETATM   70  O   UNK N   1      11.879 -11.952  -0.223  0.00  0.00    -0.388 OA
HETATM   71  H   UNK N   1      11.771 -12.714  -0.813  0.00  0.00     0.210 HD
ENDBRANCH  49  70
BRANCH  50  72
HETATM   72  O   UNK N   1       9.689 -11.261  -1.431  0.00  0.00    -0.392 OA
HETATM   73  H   UNK N   1       9.286 -11.399  -2.303  0.00  0.00     0.210 HD
ENDBRANCH  50  72
ENDBRANCH  44  45
ENDBRANCH   5  44
TORSDOF 30
