REMARK  14 active torsions:
REMARK  status: ('A' for Active; 'I' for Inactive)
REMARK    1  A    between atoms: C_5  and  C_2 
REMARK    2  A    between atoms: O_27  and  C_2 
REMARK    3  A    between atoms: C_6  and  O_19 
REMARK    4  A    between atoms: N_11  and  C_8 
REMARK    5  A    between atoms: C_10  and  N_18 
REMARK    6  A    between atoms: P_31  and  O_20 
REMARK    7  A    between atoms: P_31  and  O_21 
REMARK    8  A    between atoms: P_32  and  O_23 
REMARK    9  A    between atoms: P_33  and  O_25 
REMARK   10  A    between atoms: P_32  and  O_27 
REMARK   11  A    between atoms: P_31  and  O_29 
REMARK   12  A    between atoms: P_33  and  O_29 
REMARK   13  A    between atoms: P_32  and  O_30 
REMARK   14  A    between atoms: P_33  and  O_30 
ROOT
HETATM    1  C   UNK N   1      -0.090  -0.334   1.333  0.00  0.00     0.070 C 
HETATM    2  C   UNK N   1       0.614  -1.262   0.362  0.00  0.00     0.151 C 
HETATM    3  C   UNK N   1      -1.074   0.266   0.392  0.00  0.00     0.169 C 
HETATM    4  C   UNK N   1      -0.166   0.514  -0.807  0.00  0.00     0.259 C 
HETATM    5  O   UNK N   1       0.651  -0.636  -0.909  0.00  0.00    -0.356 OA
ENDROOT
BRANCH   2   6
HETATM    6  C   UNK N   1       2.017  -1.593   0.856  0.00  0.00     0.212 C 
BRANCH   6   7
HETATM    7  O   UNK N   1       2.667  -2.457  -0.034  0.00  0.00    -0.294 OA
BRANCH   7   8
HETATM    8  P   UNK N   1       2.199  -4.066   0.443  0.00  0.00     0.401 P 
HETATM    9  O   UNK N   1       3.424  -4.979   0.177  0.00  0.00    -0.631 OA
BRANCH   8  10
HETATM   10  O   UNK N   1       1.876  -4.119   2.153  0.00  0.00    -0.307 OA
HETATM   11  H   UNK N   1       1.760  -3.978   3.105  0.00  0.00     0.222 HD
ENDBRANCH   8  10
BRANCH   8  12
HETATM   12  O   UNK N   1       0.892  -4.636  -0.573  0.00  0.00    -0.195 OA
BRANCH  12  13
HETATM   13  P   UNK N   1      -0.145  -5.710   0.342  0.00  0.00     0.410 P 
HETATM   14  O   UNK N   1       0.659  -6.345   1.514  0.00  0.00    -0.631 OA
BRANCH  13  15
HETATM   15  O   UNK N   1      -1.475  -4.831   1.031  0.00  0.00    -0.307 OA
HETATM   16  H   UNK N   1      -1.421  -3.943   1.415  0.00  0.00     0.222 HD
ENDBRANCH  13  15
BRANCH  13  17
HETATM   17  O   UNK N   1      -0.737  -6.979  -0.714  0.00  0.00    -0.195 OA
BRANCH  17  18
HETATM   18  P   UNK N   1      -0.501  -8.508   0.094  0.00  0.00     0.399 P 
HETATM   19  O   UNK N   1       0.547  -8.564  -1.051  0.00  0.00    -0.631 OA
BRANCH  18  20
HETATM   20  O   UNK N   1      -0.885  -9.996  -0.709  0.00  0.00    -0.307 OA
HETATM   21  H   UNK N   1      -1.714 -10.227  -1.158  0.00  0.00     0.222 HD
ENDBRANCH  18  20
BRANCH  18  22
HETATM   22  O   UNK N   1      -2.102  -8.432  -0.572  0.00  0.00    -0.307 OA
HETATM   23  H   UNK N   1      -2.512  -7.636  -0.944  0.00  0.00     0.222 HD
ENDBRANCH  18  22
ENDBRANCH  17  18
ENDBRANCH  13  17
ENDBRANCH  12  13
ENDBRANCH   8  12
ENDBRANCH   7   8
ENDBRANCH   6   7
ENDBRANCH   2   6
BRANCH   3  24
HETATM   24  O   UNK N   1      -1.678   1.417   0.900  0.00  0.00    -0.391 OA
HETATM   25  H   UNK N   1      -1.195   2.181   1.252  0.00  0.00     0.210 HD
ENDBRANCH   3  24
BRANCH   4  26
HETATM   26  N   UNK N   1       0.665   1.720  -0.626  0.00  0.00    -0.297 N 
HETATM   27  C   UNK N   1       0.197   2.992  -0.510  0.00  0.00     0.188 A 
HETATM   28  N   UNK N   1       1.210   3.885  -0.337  0.00  0.00    -0.346 N 
HETATM   29  C   UNK N   1       2.323   3.133  -0.356  0.00  0.00     0.122 A 
ATOM     30  HN  UNK N   1       1.140   4.896  -0.221  1.00  0.00     0.167 HD
HETATM   31  C   UNK N   1       3.649   3.508  -0.211  0.00  0.00     0.131 A 
HETATM   32  C   UNK N   1       2.001   1.838  -0.538  0.00  0.00     0.142 A 
HETATM   33  N   UNK N   1       4.601   2.530  -0.265  0.00  0.00    -0.337 N 
HETATM   34  C   UNK N   1       4.252   1.215  -0.460  0.00  0.00     0.183 A 
ATOM     35  HN  UNK N   1       5.584   2.779  -0.159  1.00  0.00     0.168 HD
HETATM   36  N   UNK N   1       2.937   0.861  -0.598  0.00  0.00    -0.336 N 
ATOM     37  HN  UNK N   1       2.669  -0.113  -0.743  1.00  0.00     0.168 HD
BRANCH  31  38
HETATM   38  N   UNK N   1       4.011   4.854  -0.005  0.00  0.00    -0.383 N 
HETATM   39  H   UNK N   1       4.952   5.105   0.139  0.00  0.00     0.157 HD
HETATM   40  H   UNK N   1       3.315   5.551  -0.005  0.00  0.00     0.157 HD
ENDBRANCH  31  38
ENDBRANCH   4  26
TORSDOF 14
