MODEL 1
REMARK VINA RESULT:      -7.3      0.000      0.000
REMARK WARNING: 32 MAX_TORS EXCEEDED!!!
REMARK  40 active torsions:
REMARK  status: ('A' for Active; 'I' for Inactive)
REMARK    1  A    between atoms: C_6  and  C_5 
REMARK    2  A    between atoms: C_9  and  C_5 
REMARK    3  A    between atoms: C_15  and  C_6 
REMARK    4  A    between atoms: C_26  and  C_9 
REMARK    5  A    between atoms: C_12  and  C_10 
REMARK    6  A    between atoms: C_22  and  C_10 
REMARK    7  A    between atoms: C_13  and  C_11 
REMARK    8  A    between atoms: C_27  and  C_11 
REMARK    9  A    between atoms: N_38  and  C_12 
REMARK   10  A    between atoms: N_42  and  C_13 
REMARK   11  A    between atoms: C_16  and  C_14 
REMARK   12  A    between atoms: N_40  and  C_14 
REMARK   13  A    between atoms: S_72  and  C_15 
REMARK   14  A    between atoms: S_72  and  C_16 
REMARK   15  A    between atoms: C_25  and  C_18 
REMARK   16  A    between atoms: O_64  and  C_18 
REMARK   17  A    between atoms: C_36  and  C_19 
REMARK   18  A    between atoms: O_65  and  C_19 
REMARK   19  A    between atoms: N_38  and  C_26 
REMARK   20  A    between atoms: O_52  and  C_26 
REMARK   21  A    between atoms: N_40  and  C_27 
REMARK   22  A    between atoms: O_53  and  C_27 
REMARK   23  A    between atoms: C_29  and  O_54 
REMARK   24  A    between atoms: C_30  and  O_67 
REMARK   25  A    between atoms: C_34  and  C_31 
REMARK   26  A    between atoms: C_36  and  C_31 
REMARK   27  A    between atoms: C_31  and  O_55 
REMARK   28  A    between atoms: N_37  and  C_32 
REMARK   29  A    between atoms: N_42  and  C_34 
REMARK   30  A    between atoms: O_56  and  C_34 
REMARK   31  A    between atoms: C_35  and  N_51 
REMARK   32  A    between atoms: P_69  and  O_57 
REMARK   33  A    between atoms: P_69  and  O_58 
REMARK   34  A    between atoms: P_70  and  O_60 
REMARK   35  A    between atoms: P_71  and  O_62 
REMARK   36  A    between atoms: P_70  and  O_64 
REMARK   37  A    between atoms: P_71  and  O_65 
REMARK   38  A    between atoms: P_69  and  O_67 
REMARK   39  A    between atoms: P_70  and  O_68 
REMARK   40  A    between atoms: P_71  and  O_68 
ROOT
HETATM    1  C   UNK N   1      26.293  13.526   2.992  0.00  0.00     0.192 C 
ENDROOT
BRANCH   1   2
HETATM    2  C   UNK N   1      25.255  14.556   2.492  0.00  0.00     0.008 C 
HETATM    3  C   UNK N   1      25.947  15.549   1.568  0.00  0.00     0.020 C 
HETATM    4  C   UNK N   1      24.229  13.808   1.654  0.00  0.00     0.020 C 
BRANCH   2   5
HETATM    5  C   UNK N   1      24.527  15.336   3.632  0.00  0.00     0.202 C 
BRANCH   5   6
HETATM    6  C   UNK N   1      25.272  16.578   4.037  0.00  0.00     0.141 C 
BRANCH   6   7
HETATM    7  N   UNK N   1      24.947  17.707   3.517  0.00  0.00    -0.372 N 
ATOM      8  HN  UNK N   1      25.217  17.901   2.552  1.00  0.00     0.161 HD
BRANCH   7   9
HETATM    9  C   UNK N   1      24.216  18.706   4.245  0.00  0.00     0.129 C 
BRANCH   9  10
HETATM   10  C   UNK N   1      24.141  19.944   3.372  0.00  0.00     0.103 C 
BRANCH  10  11
HETATM   11  C   UNK N   1      22.721  20.359   3.046  0.00  0.00     0.112 C 
BRANCH  11  12
HETATM   12  N   UNK N   1      21.764  19.495   3.039  0.00  0.00    -0.374 N 
ATOM     13  HN  UNK N   1      21.803  18.710   3.690  1.00  0.00     0.161 HD
BRANCH  12  14
HETATM   14  C   UNK N   1      20.636  19.600   2.143  0.00  0.00     0.131 C 
BRANCH  14  15
HETATM   15  C   UNK N   1      19.451  18.804   2.669  0.00  0.00     0.093 C 
BRANCH  15  16
HETATM   16  S   UNK N   1      20.019  17.252   3.437  0.00  0.00    -0.168 SA
BRANCH  16  17
HETATM   17  C   UNK N   1      20.115  16.383   1.848  0.00  0.00     0.074 C 
BRANCH  17  18
HETATM   18  C   UNK N   1      20.079  14.874   2.016  0.00  0.00     0.010 C 
BRANCH  18  19
HETATM   19  C   UNK N   1      19.398  14.501   3.326  0.00  0.00     0.009 C 
BRANCH  19  20
HETATM   20  C   UNK N   1      20.067  13.357   4.101  0.00  0.00     0.083 C 
BRANCH  20  21
HETATM   21  C   UNK N   1      20.289  13.565   5.587  0.00  0.00     0.111 C 
BRANCH  21  22
HETATM   22  N   UNK N   1      21.119  12.864   6.287  0.00  0.00    -0.374 N 
ATOM     23  HN  UNK N   1      20.742  12.089   6.831  1.00  0.00     0.161 HD
BRANCH  22  24
HETATM   24  C   UNK N   1      22.546  13.101   6.355  0.00  0.00     0.126 C 
BRANCH  24  25
HETATM   25  C   UNK N   1      22.929  14.132   7.413  0.00  0.00     0.060 C 
BRANCH  25  26
HETATM   26  C   UNK N   1      23.445  13.512   8.671  0.00  0.00    -0.029 A 
HETATM   27  C   UNK N   1      24.785  13.343   9.000  0.00  0.00     0.096 A 
HETATM   28  N   UNK N   1      24.882  12.753  10.217  0.00  0.00    -0.365 N 
HETATM   29  C   UNK N   1      23.620  12.560  10.640  0.00  0.00     0.042 A 
HETATM   30  H   UNK N   1      25.709  12.514  10.696  0.00  0.00     0.165 HD
HETATM   31  C   UNK N   1      23.221  11.982  11.840  0.00  0.00     0.030 A 
HETATM   32  C   UNK N   1      22.717  13.014   9.719  0.00  0.00    -0.002 A 
HETATM   33  C   UNK N   1      21.840  11.871  12.086  0.00  0.00     0.002 A 
HETATM   34  C   UNK N   1      20.905  12.338  11.134  0.00  0.00     0.001 A 
HETATM   35  C   UNK N   1      21.343  12.920   9.930  0.00  0.00     0.014 A 
ENDBRANCH  25  26
ENDBRANCH  24  25
ENDBRANCH  22  24
ENDBRANCH  21  22
BRANCH  21  36
HETATM   36  O   UNK N   1      19.554  14.504   6.213  0.00  0.00    -0.350 OA
HETATM   37  H   UNK N   1      19.307  15.372   5.962  0.00  0.00     0.219 HD
ENDBRANCH  21  36
ENDBRANCH  20  21
ENDBRANCH  19  20
ENDBRANCH  18  19
ENDBRANCH  17  18
ENDBRANCH  16  17
ENDBRANCH  15  16
ENDBRANCH  14  15
ENDBRANCH  12  14
ENDBRANCH  11  12
BRANCH  11  38
HETATM   38  O   UNK N   1      22.439  21.649   2.783  0.00  0.00    -0.350 OA
HETATM   39  H   UNK N   1      22.368  22.048   1.938  0.00  0.00     0.219 HD
ENDBRANCH  11  38
ENDBRANCH  10  11
ENDBRANCH   9  10
ENDBRANCH   7   9
ENDBRANCH   6   7
BRANCH   6  40
HETATM   40  O   UNK N   1      26.293  16.492   4.918  0.00  0.00    -0.348 OA
HETATM   41  H   UNK N   1      26.284  17.012   5.698  0.00  0.00     0.219 HD
ENDBRANCH   6  40
ENDBRANCH   5   6
BRANCH   5  42
HETATM   42  O   UNK N   1      23.229  15.685   3.250  0.00  0.00    -0.387 OA
HETATM   43  H   UNK N   1      22.492  16.054   3.763  0.00  0.00     0.210 HD
ENDBRANCH   5  42
ENDBRANCH   2   5
ENDBRANCH   1   2
BRANCH   1  44
HETATM   44  O   UNK N   1      27.580  13.908   2.608  0.00  0.00    -0.296 OA
BRANCH  44  45
HETATM   45  P   UNK N   1      28.623  13.931   4.012  0.00  0.00     0.401 P 
HETATM   46  O   UNK N   1      28.002  14.215   5.409  0.00  0.00    -0.631 OA
BRANCH  45  47
HETATM   47  O   UNK N   1      29.103  15.560   3.749  0.00  0.00    -0.307 OA
HETATM   48  H   UNK N   1      29.249  16.303   3.142  0.00  0.00     0.222 HD
ENDBRANCH  45  47
BRANCH  45  49
HETATM   49  O   UNK N   1      30.286  13.362   3.936  0.00  0.00    -0.195 OA
BRANCH  49  50
HETATM   50  P   UNK N   1      31.272  14.417   2.958  0.00  0.00     0.401 P 
HETATM   51  O   UNK N   1      32.330  13.407   2.418  0.00  0.00    -0.631 OA
BRANCH  50  52
HETATM   52  O   UNK N   1      30.176  13.422   2.046  0.00  0.00    -0.307 OA
HETATM   53  H   UNK N   1      29.587  12.726   1.716  0.00  0.00     0.222 HD
ENDBRANCH  50  52
BRANCH  50  54
HETATM   54  O   UNK N   1      31.830  14.122   4.598  0.00  0.00    -0.294 OA
BRANCH  54  55
HETATM   55  C   UNK N   1      32.260  15.294   5.218  0.00  0.00     0.215 C 
BRANCH  55  56
HETATM   56  C   UNK N   1      31.373  15.651   6.417  0.00  0.00     0.180 C 
HETATM   57  C   UNK N   1      31.962  15.909   7.847  0.00  0.00     0.197 C 
HETATM   58  C   UNK N   1      31.040  17.023   8.357  0.00  0.00     0.199 C 
HETATM   59  C   UNK N   1      29.844  16.803   7.458  0.00  0.00     0.262 C 
HETATM   60  O   UNK N   1      30.415  16.659   6.171  0.00  0.00    -0.353 OA
BRANCH  57  61
HETATM   61  O   UNK N   1      33.308  16.382   7.887  0.00  0.00    -0.286 OA
BRANCH  61  62
HETATM   62  P   UNK N   1      33.542  18.154   7.974  0.00  0.00     0.391 P 
HETATM   63  O   UNK N   1      34.220  17.918   6.596  0.00  0.00    -0.632 OA
BRANCH  62  64
HETATM   64  O   UNK N   1      35.189  18.688   8.105  0.00  0.00    -0.307 OA
HETATM   65  H   UNK N   1      36.079  18.621   7.726  0.00  0.00     0.222 HD
ENDBRANCH  62  64
BRANCH  62  66
HETATM   66  O   UNK N   1      34.341  17.650   9.432  0.00  0.00    -0.307 OA
HETATM   67  H   UNK N   1      34.144  16.788   9.833  0.00  0.00     0.222 HD
ENDBRANCH  62  66
ENDBRANCH  61  62
ENDBRANCH  57  61
BRANCH  58  68
HETATM   68  O   UNK N   1      30.758  16.877   9.716  0.00  0.00    -0.388 OA
HETATM   69  H   UNK N   1      31.413  17.120  10.388  0.00  0.00     0.210 HD
ENDBRANCH  58  68
BRANCH  59  70
HETATM   70  N   UNK N   1      28.744  17.765   7.491  0.00  0.00    -0.297 N 
HETATM   71  C   UNK N   1      28.209  18.323   8.611  0.00  0.00     0.188 A 
HETATM   72  N   UNK N   1      27.468  19.426   8.311  0.00  0.00    -0.346 N 
HETATM   73  C   UNK N   1      27.570  19.542   6.972  0.00  0.00     0.122 A 
ATOM     74  HN  UNK N   1      26.951  20.027   8.953  1.00  0.00     0.167 HD
HETATM   75  C   UNK N   1      27.115  20.542   6.128  0.00  0.00     0.131 A 
HETATM   76  C   UNK N   1      28.312  18.532   6.483  0.00  0.00     0.142 A 
HETATM   77  N   UNK N   1      27.401  20.436   4.795  0.00  0.00    -0.337 N 
HETATM   78  C   UNK N   1      28.129  19.378   4.312  0.00  0.00     0.183 A 
ATOM     79  HN  UNK N   1      27.068  21.154   4.151  1.00  0.00     0.168 HD
HETATM   80  N   UNK N   1      28.618  18.429   5.166  0.00  0.00    -0.336 N 
ATOM     81  HN  UNK N   1      29.198  17.663   4.821  1.00  0.00     0.168 HD
BRANCH  75  82
HETATM   82  N   UNK N   1      26.439  21.672   6.628  0.00  0.00    -0.383 N 
HETATM   83  H   UNK N   1      25.455  21.717   6.602  0.00  0.00     0.157 HD
HETATM   84  H   UNK N   1      26.952  22.422   7.004  0.00  0.00     0.157 HD
ENDBRANCH  75  82
ENDBRANCH  59  70
ENDBRANCH  55  56
ENDBRANCH  54  55
ENDBRANCH  50  54
ENDBRANCH  49  50
ENDBRANCH  45  49
ENDBRANCH  44  45
ENDBRANCH   1  44
TORSDOF 40
ENDMDL
MODEL 2
REMARK VINA RESULT:      -7.0      5.158     11.011
REMARK WARNING: 32 MAX_TORS EXCEEDED!!!
REMARK  40 active torsions:
REMARK  status: ('A' for Active; 'I' for Inactive)
REMARK    1  A    between atoms: C_6  and  C_5 
REMARK    2  A    between atoms: C_9  and  C_5 
REMARK    3  A    between atoms: C_15  and  C_6 
REMARK    4  A    between atoms: C_26  and  C_9 
REMARK    5  A    between atoms: C_12  and  C_10 
REMARK    6  A    between atoms: C_22  and  C_10 
REMARK    7  A    between atoms: C_13  and  C_11 
REMARK    8  A    between atoms: C_27  and  C_11 
REMARK    9  A    between atoms: N_38  and  C_12 
REMARK   10  A    between atoms: N_42  and  C_13 
REMARK   11  A    between atoms: C_16  and  C_14 
REMARK   12  A    between atoms: N_40  and  C_14 
REMARK   13  A    between atoms: S_72  and  C_15 
REMARK   14  A    between atoms: S_72  and  C_16 
REMARK   15  A    between atoms: C_25  and  C_18 
REMARK   16  A    between atoms: O_64  and  C_18 
REMARK   17  A    between atoms: C_36  and  C_19 
REMARK   18  A    between atoms: O_65  and  C_19 
REMARK   19  A    between atoms: N_38  and  C_26 
REMARK   20  A    between atoms: O_52  and  C_26 
REMARK   21  A    between atoms: N_40  and  C_27 
REMARK   22  A    between atoms: O_53  and  C_27 
REMARK   23  A    between atoms: C_29  and  O_54 
REMARK   24  A    between atoms: C_30  and  O_67 
REMARK   25  A    between atoms: C_34  and  C_31 
REMARK   26  A    between atoms: C_36  and  C_31 
REMARK   27  A    between atoms: C_31  and  O_55 
REMARK   28  A    between atoms: N_37  and  C_32 
REMARK   29  A    between atoms: N_42  and  C_34 
REMARK   30  A    between atoms: O_56  and  C_34 
REMARK   31  A    between atoms: C_35  and  N_51 
REMARK   32  A    between atoms: P_69  and  O_57 
REMARK   33  A    between atoms: P_69  and  O_58 
REMARK   34  A    between atoms: P_70  and  O_60 
REMARK   35  A    between atoms: P_71  and  O_62 
REMARK   36  A    between atoms: P_70  and  O_64 
REMARK   37  A    between atoms: P_71  and  O_65 
REMARK   38  A    between atoms: P_69  and  O_67 
REMARK   39  A    between atoms: P_70  and  O_68 
REMARK   40  A    between atoms: P_71  and  O_68 
ROOT
HETATM    1  C   UNK N   1      25.872  17.850   4.960  0.00  0.00     0.192 C 
ENDROOT
BRANCH   1   2
HETATM    2  C   UNK N   1      26.750  19.122   4.945  0.00  0.00     0.008 C 
HETATM    3  C   UNK N   1      26.785  19.683   3.530  0.00  0.00     0.020 C 
HETATM    4  C   UNK N   1      26.071  20.163   5.820  0.00  0.00     0.020 C 
BRANCH   2   5
HETATM    5  C   UNK N   1      28.212  18.895   5.443  0.00  0.00     0.202 C 
BRANCH   5   6
HETATM    6  C   UNK N   1      28.318  17.724   6.381  0.00  0.00     0.141 C 
BRANCH   6   7
HETATM    7  N   UNK N   1      27.867  17.831   7.580  0.00  0.00    -0.372 N 
ATOM      8  HN  UNK N   1      27.187  17.148   7.912  1.00  0.00     0.161 HD
BRANCH   7   9
HETATM    9  C   UNK N   1      28.288  18.878   8.468  0.00  0.00     0.129 C 
BRANCH   9  10
HETATM   10  C   UNK N   1      29.775  18.702   8.708  0.00  0.00     0.103 C 
BRANCH  10  11
HETATM   11  C   UNK N   1      30.136  17.324   9.223  0.00  0.00     0.112 C 
BRANCH  11  12
HETATM   12  N   UNK N   1      31.013  16.598   8.617  0.00  0.00    -0.374 N 
ATOM     13  HN  UNK N   1      30.792  15.623   8.417  1.00  0.00     0.161 HD
BRANCH  12  14
HETATM   14  C   UNK N   1      32.298  17.119   8.210  0.00  0.00     0.131 C 
BRANCH  14  15
HETATM   15  C   UNK N   1      32.377  17.239   6.696  0.00  0.00     0.093 C 
BRANCH  15  16
HETATM   16  S   UNK N   1      33.100  15.729   5.976  0.00  0.00    -0.168 SA
BRANCH  16  17
HETATM   17  C   UNK N   1      34.389  15.618   7.247  0.00  0.00     0.074 C 
BRANCH  17  18
HETATM   18  C   UNK N   1      34.521  14.215   7.810  0.00  0.00     0.010 C 
BRANCH  18  19
HETATM   19  C   UNK N   1      34.712  14.264   9.321  0.00  0.00     0.009 C 
BRANCH  19  20
HETATM   20  C   UNK N   1      35.933  15.068   9.793  0.00  0.00     0.083 C 
BRANCH  20  21
HETATM   21  C   UNK N   1      35.737  15.986  10.984  0.00  0.00     0.111 C 
BRANCH  21  22
HETATM   22  N   UNK N   1      36.163  15.709  12.172  0.00  0.00    -0.374 N 
ATOM     23  HN  UNK N   1      36.602  16.460  12.704  1.00  0.00     0.161 HD
BRANCH  22  24
HETATM   24  C   UNK N   1      36.065  14.409  12.803  0.00  0.00     0.126 C 
BRANCH  24  25
HETATM   25  C   UNK N   1      36.548  14.411  14.250  0.00  0.00     0.060 C 
BRANCH  25  26
HETATM   26  C   UNK N   1      36.518  13.054  14.876  0.00  0.00    -0.029 A 
HETATM   27  C   UNK N   1      36.981  11.882  14.291  0.00  0.00     0.096 A 
HETATM   28  N   UNK N   1      36.801  10.845  15.147  0.00  0.00    -0.365 N 
HETATM   29  C   UNK N   1      36.235  11.367  16.250  0.00  0.00     0.042 A 
HETATM   30  H   UNK N   1      37.037   9.902  14.993  0.00  0.00     0.165 HD
HETATM   31  C   UNK N   1      35.863  10.681  17.401  0.00  0.00     0.030 A 
HETATM   32  C   UNK N   1      36.049  12.715  16.118  0.00  0.00    -0.002 A 
HETATM   33  C   UNK N   1      35.279  11.422  18.445  0.00  0.00     0.002 A 
HETATM   34  C   UNK N   1      35.084  12.816  18.310  0.00  0.00     0.001 A 
HETATM   35  C   UNK N   1      35.473  13.479  17.131  0.00  0.00     0.014 A 
ENDBRANCH  25  26
ENDBRANCH  24  25
ENDBRANCH  22  24
ENDBRANCH  21  22
BRANCH  21  36
HETATM   36  O   UNK N   1      35.052  17.130  10.798  0.00  0.00    -0.350 OA
HETATM   37  H   UNK N   1      35.239  17.894  10.288  0.00  0.00     0.219 HD
ENDBRANCH  21  36
ENDBRANCH  20  21
ENDBRANCH  19  20
ENDBRANCH  18  19
ENDBRANCH  17  18
ENDBRANCH  16  17
ENDBRANCH  15  16
ENDBRANCH  14  15
ENDBRANCH  12  14
ENDBRANCH  11  12
BRANCH  11  38
HETATM   38  O   UNK N   1      29.556  16.850  10.343  0.00  0.00    -0.350 OA
HETATM   39  H   UNK N   1      29.465  15.951  10.592  0.00  0.00     0.219 HD
ENDBRANCH  11  38
ENDBRANCH  10  11
ENDBRANCH   9  10
ENDBRANCH   7   9
ENDBRANCH   6   7
BRANCH   6  40
HETATM   40  O   UNK N   1      28.913  16.583   5.967  0.00  0.00    -0.348 OA
HETATM   41  H   UNK N   1      29.806  16.411   6.192  0.00  0.00     0.219 HD
ENDBRANCH   6  40
ENDBRANCH   5   6
BRANCH   5  42
HETATM   42  O   UNK N   1      29.084  18.700   4.368  0.00  0.00    -0.387 OA
HETATM   43  H   UNK N   1      28.909  18.579   3.421  0.00  0.00     0.210 HD
ENDBRANCH   5  42
ENDBRANCH   2   5
ENDBRANCH   1   2
BRANCH   1  44
HETATM   44  O   UNK N   1      25.648  17.399   3.658  0.00  0.00    -0.296 OA
BRANCH  44  45
HETATM   45  P   UNK N   1      26.638  15.990   3.353  0.00  0.00     0.401 P 
HETATM   46  O   UNK N   1      28.129  16.186   2.955  0.00  0.00    -0.631 OA
BRANCH  45  47
HETATM   47  O   UNK N   1      26.091  15.835   1.731  0.00  0.00    -0.307 OA
HETATM   48  H   UNK N   1      25.967  15.291   0.937  0.00  0.00     0.222 HD
ENDBRANCH  45  47
BRANCH  45  49
HETATM   49  O   UNK N   1      26.088  14.369   3.760  0.00  0.00    -0.195 OA
BRANCH  49  50
HETATM   50  P   UNK N   1      26.104  14.109   5.485  0.00  0.00     0.401 P 
HETATM   51  O   UNK N   1      26.329  12.568   5.544  0.00  0.00    -0.631 OA
BRANCH  50  52
HETATM   52  O   UNK N   1      27.679  14.091   4.749  0.00  0.00    -0.307 OA
HETATM   53  H   UNK N   1      28.478  13.894   4.234  0.00  0.00     0.222 HD
ENDBRANCH  50  52
BRANCH  50  54
HETATM   54  O   UNK N   1      24.569  13.853   4.669  0.00  0.00    -0.294 OA
BRANCH  54  55
HETATM   55  C   UNK N   1      23.557  13.509   5.566  0.00  0.00     0.215 C 
BRANCH  55  56
HETATM   56  C   UNK N   1      22.235  14.200   5.208  0.00  0.00     0.180 C 
HETATM   57  C   UNK N   1      21.267  14.770   6.301  0.00  0.00     0.197 C 
HETATM   58  C   UNK N   1      20.729  16.025   5.603  0.00  0.00     0.199 C 
HETATM   59  C   UNK N   1      20.999  15.657   4.162  0.00  0.00     0.262 C 
HETATM   60  O   UNK N   1      22.327  15.168   4.184  0.00  0.00    -0.353 OA
BRANCH  57  61
HETATM   61  O   UNK N   1      21.880  15.163   7.529  0.00  0.00    -0.286 OA
BRANCH  61  62
HETATM   62  P   UNK N   1      20.933  14.906   9.025  0.00  0.00     0.391 P 
HETATM   63  O   UNK N   1      20.197  13.872   8.130  0.00  0.00    -0.632 OA
BRANCH  62  64
HETATM   64  O   UNK N   1      19.264  15.379   8.948  0.00  0.00    -0.307 OA
HETATM   65  H   UNK N   1      18.653  16.112   8.779  0.00  0.00     0.222 HD
ENDBRANCH  62  64
BRANCH  62  66
HETATM   66  O   UNK N   1      20.684  16.607   8.772  0.00  0.00    -0.307 OA
HETATM   67  H   UNK N   1      20.668  16.978   7.876  0.00  0.00     0.222 HD
ENDBRANCH  62  66
ENDBRANCH  61  62
ENDBRANCH  57  61
BRANCH  58  68
HETATM   68  O   UNK N   1      19.380  16.235   5.888  0.00  0.00    -0.388 OA
HETATM   69  H   UNK N   1      18.849  16.847   5.354  0.00  0.00     0.210 HD
ENDBRANCH  58  68
BRANCH  59  70
HETATM   70  N   UNK N   1      20.776  16.658   3.119  0.00  0.00    -0.297 N 
HETATM   71  C   UNK N   1      19.685  16.730   2.308  0.00  0.00     0.188 A 
HETATM   72  N   UNK N   1      19.596  17.949   1.705  0.00  0.00    -0.346 N 
HETATM   73  C   UNK N   1      20.656  18.634   2.178  0.00  0.00     0.122 A 
ATOM     74  HN  UNK N   1      18.887  18.271   1.045  1.00  0.00     0.167 HD
HETATM   75  C   UNK N   1      21.010  19.961   1.999  0.00  0.00     0.131 A 
HETATM   76  C   UNK N   1      21.374  17.849   3.002  0.00  0.00     0.142 A 
HETATM   77  N   UNK N   1      22.127  20.419   2.641  0.00  0.00    -0.337 N 
HETATM   78  C   UNK N   1      22.866  19.591   3.449  0.00  0.00     0.183 A 
ATOM     79  HN  UNK N   1      22.416  21.390   2.517  1.00  0.00     0.168 HD
HETATM   80  N   UNK N   1      22.471  18.299   3.658  0.00  0.00    -0.336 N 
ATOM     81  HN  UNK N   1      22.989  17.691   4.293  1.00  0.00     0.168 HD
BRANCH  75  82
HETATM   82  N   UNK N   1      20.212  20.837   1.238  0.00  0.00    -0.383 N 
HETATM   83  H   UNK N   1      20.620  21.420   0.558  0.00  0.00     0.157 HD
HETATM   84  H   UNK N   1      19.239  20.866   1.387  0.00  0.00     0.157 HD
ENDBRANCH  75  82
ENDBRANCH  59  70
ENDBRANCH  55  56
ENDBRANCH  54  55
ENDBRANCH  50  54
ENDBRANCH  49  50
ENDBRANCH  45  49
ENDBRANCH  44  45
ENDBRANCH   1  44
TORSDOF 40
ENDMDL
MODEL 3
REMARK VINA RESULT:      -6.9      1.679      2.207
REMARK WARNING: 32 MAX_TORS EXCEEDED!!!
REMARK  40 active torsions:
REMARK  status: ('A' for Active; 'I' for Inactive)
REMARK    1  A    between atoms: C_6  and  C_5 
REMARK    2  A    between atoms: C_9  and  C_5 
REMARK    3  A    between atoms: C_15  and  C_6 
REMARK    4  A    between atoms: C_26  and  C_9 
REMARK    5  A    between atoms: C_12  and  C_10 
REMARK    6  A    between atoms: C_22  and  C_10 
REMARK    7  A    between atoms: C_13  and  C_11 
REMARK    8  A    between atoms: C_27  and  C_11 
REMARK    9  A    between atoms: N_38  and  C_12 
REMARK   10  A    between atoms: N_42  and  C_13 
REMARK   11  A    between atoms: C_16  and  C_14 
REMARK   12  A    between atoms: N_40  and  C_14 
REMARK   13  A    between atoms: S_72  and  C_15 
REMARK   14  A    between atoms: S_72  and  C_16 
REMARK   15  A    between atoms: C_25  and  C_18 
REMARK   16  A    between atoms: O_64  and  C_18 
REMARK   17  A    between atoms: C_36  and  C_19 
REMARK   18  A    between atoms: O_65  and  C_19 
REMARK   19  A    between atoms: N_38  and  C_26 
REMARK   20  A    between atoms: O_52  and  C_26 
REMARK   21  A    between atoms: N_40  and  C_27 
REMARK   22  A    between atoms: O_53  and  C_27 
REMARK   23  A    between atoms: C_29  and  O_54 
REMARK   24  A    between atoms: C_30  and  O_67 
REMARK   25  A    between atoms: C_34  and  C_31 
REMARK   26  A    between atoms: C_36  and  C_31 
REMARK   27  A    between atoms: C_31  and  O_55 
REMARK   28  A    between atoms: N_37  and  C_32 
REMARK   29  A    between atoms: N_42  and  C_34 
REMARK   30  A    between atoms: O_56  and  C_34 
REMARK   31  A    between atoms: C_35  and  N_51 
REMARK   32  A    between atoms: P_69  and  O_57 
REMARK   33  A    between atoms: P_69  and  O_58 
REMARK   34  A    between atoms: P_70  and  O_60 
REMARK   35  A    between atoms: P_71  and  O_62 
REMARK   36  A    between atoms: P_70  and  O_64 
REMARK   37  A    between atoms: P_71  and  O_65 
REMARK   38  A    between atoms: P_69  and  O_67 
REMARK   39  A    between atoms: P_70  and  O_68 
REMARK   40  A    between atoms: P_71  and  O_68 
ROOT
HETATM    1  C   UNK N   1      27.667  13.405   3.375  0.00  0.00     0.192 C 
ENDROOT
BRANCH   1   2
HETATM    2  C   UNK N   1      27.259  14.704   2.643  0.00  0.00     0.008 C 
HETATM    3  C   UNK N   1      28.052  14.812   1.347  0.00  0.00     0.020 C 
HETATM    4  C   UNK N   1      25.793  14.578   2.259  0.00  0.00     0.020 C 
BRANCH   2   5
HETATM    5  C   UNK N   1      27.468  16.003   3.483  0.00  0.00     0.202 C 
BRANCH   5   6
HETATM    6  C   UNK N   1      26.523  16.085   4.649  0.00  0.00     0.141 C 
BRANCH   6   7
HETATM    7  N   UNK N   1      25.618  16.998   4.667  0.00  0.00    -0.372 N 
ATOM      8  HN  UNK N   1      25.021  17.082   5.490  1.00  0.00     0.161 HD
BRANCH   7   9
HETATM    9  C   UNK N   1      25.420  17.904   3.571  0.00  0.00     0.129 C 
BRANCH   9  10
HETATM   10  C   UNK N   1      24.702  19.125   4.112  0.00  0.00     0.103 C 
BRANCH  10  11
HETATM   11  C   UNK N   1      24.370  20.144   3.041  0.00  0.00     0.112 C 
BRANCH  11  12
HETATM   12  N   UNK N   1      23.146  20.435   2.759  0.00  0.00    -0.374 N 
ATOM     13  HN  UNK N   1      22.949  20.973   1.915  1.00  0.00     0.161 HD
BRANCH  12  14
HETATM   14  C   UNK N   1      22.043  20.026   3.598  0.00  0.00     0.131 C 
BRANCH  14  15
HETATM   15  C   UNK N   1      20.713  20.377   2.950  0.00  0.00     0.093 C 
BRANCH  15  16
HETATM   16  S   UNK N   1      20.631  19.700   1.260  0.00  0.00    -0.168 SA
BRANCH  16  17
HETATM   17  C   UNK N   1      20.339  18.008   1.842  0.00  0.00     0.074 C 
BRANCH  17  18
HETATM   18  C   UNK N   1      19.441  17.968   3.066  0.00  0.00     0.010 C 
BRANCH  18  19
HETATM   19  C   UNK N   1      19.779  16.764   3.935  0.00  0.00     0.009 C 
BRANCH  19  20
HETATM   20  C   UNK N   1      21.187  16.782   4.547  0.00  0.00     0.083 C 
BRANCH  20  21
HETATM   21  C   UNK N   1      21.301  17.177   6.007  0.00  0.00     0.111 C 
BRANCH  21  22
HETATM   22  N   UNK N   1      20.409  16.882   6.894  0.00  0.00    -0.374 N 
ATOM     23  HN  UNK N   1      19.791  17.629   7.209  1.00  0.00     0.161 HD
BRANCH  22  24
HETATM   24  C   UNK N   1      20.225  15.569   7.476  0.00  0.00     0.126 C 
BRANCH  24  25
HETATM   25  C   UNK N   1      21.541  14.845   7.742  0.00  0.00     0.060 C 
BRANCH  25  26
HETATM   26  C   UNK N   1      21.507  14.008   8.979  0.00  0.00    -0.029 A 
HETATM   27  C   UNK N   1      20.371  13.709   9.724  0.00  0.00     0.096 A 
HETATM   28  N   UNK N   1      20.712  12.922  10.775  0.00  0.00    -0.365 N 
HETATM   29  C   UNK N   1      22.041  12.733  10.683  0.00  0.00     0.042 A 
HETATM   30  H   UNK N   1      20.109  12.562  11.465  0.00  0.00     0.165 HD
HETATM   31  C   UNK N   1      22.839  11.991  11.547  0.00  0.00     0.030 A 
HETATM   32  C   UNK N   1      22.558  13.382   9.597  0.00  0.00    -0.002 A 
HETATM   33  C   UNK N   1      24.217  11.924  11.270  0.00  0.00     0.002 A 
HETATM   34  C   UNK N   1      24.754  12.596  10.148  0.00  0.00     0.001 A 
HETATM   35  C   UNK N   1      23.917  13.338   9.293  0.00  0.00     0.014 A 
ENDBRANCH  25  26
ENDBRANCH  24  25
ENDBRANCH  22  24
ENDBRANCH  21  22
BRANCH  21  36
HETATM   36  O   UNK N   1      22.370  17.902   6.386  0.00  0.00    -0.350 OA
HETATM   37  H   UNK N   1      22.872  18.555   5.939  0.00  0.00     0.219 HD
ENDBRANCH  21  36
ENDBRANCH  20  21
ENDBRANCH  19  20
ENDBRANCH  18  19
ENDBRANCH  17  18
ENDBRANCH  16  17
ENDBRANCH  15  16
ENDBRANCH  14  15
ENDBRANCH  12  14
ENDBRANCH  11  12
BRANCH  11  38
HETATM   38  O   UNK N   1      25.361  20.778   2.384  0.00  0.00    -0.350 OA
HETATM   39  H   UNK N   1      25.839  20.460   1.643  0.00  0.00     0.219 HD
ENDBRANCH  11  38
ENDBRANCH  10  11
ENDBRANCH   9  10
ENDBRANCH   7   9
ENDBRANCH   6   7
BRANCH   6  40
HETATM   40  O   UNK N   1      26.651  15.220   5.680  0.00  0.00    -0.348 OA
HETATM   41  H   UNK N   1      27.163  15.456   6.430  0.00  0.00     0.219 HD
ENDBRANCH   6  40
ENDBRANCH   5   6
BRANCH   5  42
HETATM   42  O   UNK N   1      28.782  16.091   3.952  0.00  0.00    -0.387 OA
HETATM   43  H   UNK N   1      29.368  16.857   4.061  0.00  0.00     0.210 HD
ENDBRANCH   5  42
ENDBRANCH   2   5
ENDBRANCH   1   2
BRANCH   1  44
HETATM   44  O   UNK N   1      28.884  12.932   2.883  0.00  0.00    -0.296 OA
BRANCH  44  45
HETATM   45  P   UNK N   1      29.953  12.574   4.220  0.00  0.00     0.401 P 
HETATM   46  O   UNK N   1      29.790  11.224   4.976  0.00  0.00    -0.631 OA
BRANCH  45  47
HETATM   47  O   UNK N   1      29.005  13.466   5.343  0.00  0.00    -0.307 OA
HETATM   48  H   UNK N   1      28.381  14.186   5.526  0.00  0.00     0.222 HD
ENDBRANCH  45  47
BRANCH  45  49
HETATM   49  O   UNK N   1      31.379  13.550   4.551  0.00  0.00    -0.195 OA
BRANCH  49  50
HETATM   50  P   UNK N   1      32.319  13.808   3.104  0.00  0.00     0.401 P 
HETATM   51  O   UNK N   1      33.717  14.119   3.718  0.00  0.00    -0.631 OA
BRANCH  50  52
HETATM   52  O   UNK N   1      32.576  12.260   3.852  0.00  0.00    -0.307 OA
HETATM   53  H   UNK N   1      32.707  11.320   4.054  0.00  0.00     0.222 HD
ENDBRANCH  50  52
BRANCH  50  54
HETATM   54  O   UNK N   1      31.662  15.242   3.877  0.00  0.00    -0.294 OA
BRANCH  54  55
HETATM   55  C   UNK N   1      32.416  15.625   4.986  0.00  0.00     0.215 C 
BRANCH  55  56
HETATM   56  C   UNK N   1      31.533  15.813   6.225  0.00  0.00     0.180 C 
HETATM   57  C   UNK N   1      32.132  15.943   7.668  0.00  0.00     0.197 C 
HETATM   58  C   UNK N   1      31.171  16.955   8.304  0.00  0.00     0.199 C 
HETATM   59  C   UNK N   1      29.973  16.780   7.400  0.00  0.00     0.262 C 
HETATM   60  O   UNK N   1      30.530  16.799   6.099  0.00  0.00    -0.353 OA
BRANCH  57  61
HETATM   61  O   UNK N   1      33.457  16.467   7.744  0.00  0.00    -0.286 OA
BRANCH  61  62
HETATM   62  P   UNK N   1      33.618  18.231   7.997  0.00  0.00     0.391 P 
HETATM   63  O   UNK N   1      34.533  18.112   6.747  0.00  0.00    -0.632 OA
BRANCH  62  64
HETATM   64  O   UNK N   1      35.199  18.783   8.455  0.00  0.00    -0.307 OA
HETATM   65  H   UNK N   1      35.949  18.638   9.053  0.00  0.00     0.222 HD
ENDBRANCH  62  64
BRANCH  62  66
HETATM   66  O   UNK N   1      34.164  17.633   9.534  0.00  0.00    -0.307 OA
HETATM   67  H   UNK N   1      34.035  18.153  10.343  0.00  0.00     0.222 HD
ENDBRANCH  62  66
ENDBRANCH  61  62
ENDBRANCH  57  61
BRANCH  58  68
HETATM   68  O   UNK N   1      30.916  16.653   9.642  0.00  0.00    -0.388 OA
HETATM   69  H   UNK N   1      30.868  17.355  10.310  0.00  0.00     0.210 HD
ENDBRANCH  58  68
BRANCH  59  70
HETATM   70  N   UNK N   1      28.833  17.685   7.546  0.00  0.00    -0.297 N 
HETATM   71  C   UNK N   1      28.231  18.019   8.720  0.00  0.00     0.188 A 
HETATM   72  N   UNK N   1      27.458  19.132   8.581  0.00  0.00    -0.346 N 
HETATM   73  C   UNK N   1      27.610  19.485   7.289  0.00  0.00     0.122 A 
ATOM     74  HN  UNK N   1      26.891  19.594   9.293  1.00  0.00     0.167 HD
HETATM   75  C   UNK N   1      27.150  20.603   6.612  0.00  0.00     0.131 A 
HETATM   76  C   UNK N   1      28.413  18.602   6.668  0.00  0.00     0.142 A 
HETATM   77  N   UNK N   1      27.495  20.742   5.296  0.00  0.00    -0.337 N 
HETATM   78  C   UNK N   1      28.286  19.810   4.672  0.00  0.00     0.183 A 
ATOM     79  HN  UNK N   1      27.161  21.551   4.771  1.00  0.00     0.168 HD
HETATM   80  N   UNK N   1      28.777  18.742   5.370  0.00  0.00    -0.336 N 
ATOM     81  HN  UNK N   1      29.402  18.069   4.925  1.00  0.00     0.168 HD
BRANCH  75  82
HETATM   82  N   UNK N   1      26.408  21.604   7.268  0.00  0.00    -0.383 N 
HETATM   83  H   UNK N   1      26.503  21.740   8.239  0.00  0.00     0.157 HD
HETATM   84  H   UNK N   1      25.792  22.173   6.753  0.00  0.00     0.157 HD
ENDBRANCH  75  82
ENDBRANCH  59  70
ENDBRANCH  55  56
ENDBRANCH  54  55
ENDBRANCH  50  54
ENDBRANCH  49  50
ENDBRANCH  45  49
ENDBRANCH  44  45
ENDBRANCH   1  44
TORSDOF 40
ENDMDL
MODEL 4
REMARK VINA RESULT:      -6.8      2.812      5.205
REMARK WARNING: 32 MAX_TORS EXCEEDED!!!
REMARK  40 active torsions:
REMARK  status: ('A' for Active; 'I' for Inactive)
REMARK    1  A    between atoms: C_6  and  C_5 
REMARK    2  A    between atoms: C_9  and  C_5 
REMARK    3  A    between atoms: C_15  and  C_6 
REMARK    4  A    between atoms: C_26  and  C_9 
REMARK    5  A    between atoms: C_12  and  C_10 
REMARK    6  A    between atoms: C_22  and  C_10 
REMARK    7  A    between atoms: C_13  and  C_11 
REMARK    8  A    between atoms: C_27  and  C_11 
REMARK    9  A    between atoms: N_38  and  C_12 
REMARK   10  A    between atoms: N_42  and  C_13 
REMARK   11  A    between atoms: C_16  and  C_14 
REMARK   12  A    between atoms: N_40  and  C_14 
REMARK   13  A    between atoms: S_72  and  C_15 
REMARK   14  A    between atoms: S_72  and  C_16 
REMARK   15  A    between atoms: C_25  and  C_18 
REMARK   16  A    between atoms: O_64  and  C_18 
REMARK   17  A    between atoms: C_36  and  C_19 
REMARK   18  A    between atoms: O_65  and  C_19 
REMARK   19  A    between atoms: N_38  and  C_26 
REMARK   20  A    between atoms: O_52  and  C_26 
REMARK   21  A    between atoms: N_40  and  C_27 
REMARK   22  A    between atoms: O_53  and  C_27 
REMARK   23  A    between atoms: C_29  and  O_54 
REMARK   24  A    between atoms: C_30  and  O_67 
REMARK   25  A    between atoms: C_34  and  C_31 
REMARK   26  A    between atoms: C_36  and  C_31 
REMARK   27  A    between atoms: C_31  and  O_55 
REMARK   28  A    between atoms: N_37  and  C_32 
REMARK   29  A    between atoms: N_42  and  C_34 
REMARK   30  A    between atoms: O_56  and  C_34 
REMARK   31  A    between atoms: C_35  and  N_51 
REMARK   32  A    between atoms: P_69  and  O_57 
REMARK   33  A    between atoms: P_69  and  O_58 
REMARK   34  A    between atoms: P_70  and  O_60 
REMARK   35  A    between atoms: P_71  and  O_62 
REMARK   36  A    between atoms: P_70  and  O_64 
REMARK   37  A    between atoms: P_71  and  O_65 
REMARK   38  A    between atoms: P_69  and  O_67 
REMARK   39  A    between atoms: P_70  and  O_68 
REMARK   40  A    between atoms: P_71  and  O_68 
ROOT
HETATM    1  C   UNK N   1      26.886  18.243   4.222  0.00  0.00     0.192 C 
ENDROOT
BRANCH   1   2
HETATM    2  C   UNK N   1      26.132  19.571   3.982  0.00  0.00     0.008 C 
HETATM    3  C   UNK N   1      25.584  20.076   5.310  0.00  0.00     0.020 C 
HETATM    4  C   UNK N   1      27.145  20.597   3.499  0.00  0.00     0.020 C 
BRANCH   2   5
HETATM    5  C   UNK N   1      24.964  19.466   2.951  0.00  0.00     0.202 C 
BRANCH   5   6
HETATM    6  C   UNK N   1      23.673  19.041   3.594  0.00  0.00     0.141 C 
BRANCH   6   7
HETATM    7  N   UNK N   1      22.632  19.785   3.474  0.00  0.00    -0.372 N 
ATOM      8  HN  UNK N   1      22.751  20.751   3.170  1.00  0.00     0.161 HD
BRANCH   7   9
HETATM    9  C   UNK N   1      21.308  19.303   3.751  0.00  0.00     0.129 C 
BRANCH   9  10
HETATM   10  C   UNK N   1      20.580  19.182   2.425  0.00  0.00     0.103 C 
BRANCH  10  11
HETATM   11  C   UNK N   1      19.605  18.023   2.386  0.00  0.00     0.112 C 
BRANCH  11  12
HETATM   12  N   UNK N   1      19.257  17.488   1.265  0.00  0.00    -0.374 N 
ATOM     13  HN  UNK N   1      18.318  17.659   0.908  1.00  0.00     0.161 HD
BRANCH  12  14
HETATM   14  C   UNK N   1      20.153  16.654   0.498  0.00  0.00     0.131 C 
BRANCH  14  15
HETATM   15  C   UNK N   1      19.984  15.190   0.874  0.00  0.00     0.093 C 
BRANCH  15  16
HETATM   16  S   UNK N   1      21.248  14.696   2.090  0.00  0.00    -0.168 SA
BRANCH  16  17
HETATM   17  C   UNK N   1      22.240  13.817   0.853  0.00  0.00     0.074 C 
BRANCH  17  18
HETATM   18  C   UNK N   1      23.715  14.163   0.947  0.00  0.00     0.010 C 
BRANCH  18  19
HETATM   19  C   UNK N   1      23.946  15.220   2.019  0.00  0.00     0.009 C 
BRANCH  19  20
HETATM   20  C   UNK N   1      25.350  15.217   2.640  0.00  0.00     0.083 C 
BRANCH  20  21
HETATM   21  C   UNK N   1      25.514  14.514   3.975  0.00  0.00     0.111 C 
BRANCH  21  22
HETATM   22  N   UNK N   1      24.518  14.153   4.715  0.00  0.00    -0.374 N 
ATOM     23  HN  UNK N   1      23.929  13.393   4.377  1.00  0.00     0.161 HD
BRANCH  22  24
HETATM   24  C   UNK N   1      24.177  14.752   5.989  0.00  0.00     0.126 C 
BRANCH  24  25
HETATM   25  C   UNK N   1      24.604  13.901   7.181  0.00  0.00     0.060 C 
BRANCH  25  26
HETATM   26  C   UNK N   1      23.475  13.587   8.108  0.00  0.00    -0.029 A 
HETATM   27  C   UNK N   1      22.129  13.829   7.856  0.00  0.00     0.096 A 
HETATM   28  N   UNK N   1      21.388  13.413   8.913  0.00  0.00    -0.365 N 
HETATM   29  C   UNK N   1      22.261  12.917   9.808  0.00  0.00     0.042 A 
HETATM   30  H   UNK N   1      20.409  13.463   9.006  0.00  0.00     0.165 HD
HETATM   31  C   UNK N   1      21.961  12.374  11.053  0.00  0.00     0.030 A 
HETATM   32  C   UNK N   1      23.544  13.007   9.347  0.00  0.00    -0.002 A 
HETATM   33  C   UNK N   1      23.032  11.913  11.841  0.00  0.00     0.002 A 
HETATM   34  C   UNK N   1      24.360  12.008  11.367  0.00  0.00     0.001 A 
HETATM   35  C   UNK N   1      24.628  12.562  10.101  0.00  0.00     0.014 A 
ENDBRANCH  25  26
ENDBRANCH  24  25
ENDBRANCH  22  24
ENDBRANCH  21  22
BRANCH  21  36
HETATM   36  O   UNK N   1      26.763  14.289   4.424  0.00  0.00    -0.350 OA
HETATM   37  H   UNK N   1      27.132  14.320   5.285  0.00  0.00     0.219 HD
ENDBRANCH  21  36
ENDBRANCH  20  21
ENDBRANCH  19  20
ENDBRANCH  18  19
ENDBRANCH  17  18
ENDBRANCH  16  17
ENDBRANCH  15  16
ENDBRANCH  14  15
ENDBRANCH  12  14
ENDBRANCH  11  12
BRANCH  11  38
HETATM   38  O   UNK N   1      19.107  17.522   3.532  0.00  0.00    -0.350 OA
HETATM   39  H   UNK N   1      18.329  17.799   3.977  0.00  0.00     0.219 HD
ENDBRANCH  11  38
ENDBRANCH  10  11
ENDBRANCH   9  10
ENDBRANCH   7   9
ENDBRANCH   6   7
BRANCH   6  40
HETATM   40  O   UNK N   1      23.626  17.899   4.316  0.00  0.00    -0.348 OA
HETATM   41  H   UNK N   1      23.108  17.177   4.019  0.00  0.00     0.219 HD
ENDBRANCH   6  40
ENDBRANCH   5   6
BRANCH   5  42
HETATM   42  O   UNK N   1      24.768  20.683   2.292  0.00  0.00    -0.387 OA
HETATM   43  H   UNK N   1      24.577  21.570   2.636  0.00  0.00     0.210 HD
ENDBRANCH   5  42
ENDBRANCH   2   5
ENDBRANCH   1   2
BRANCH   1  44
HETATM   44  O   UNK N   1      26.448  17.643   5.404  0.00  0.00    -0.296 OA
BRANCH  44  45
HETATM   45  P   UNK N   1      27.829  17.255   6.405  0.00  0.00     0.401 P 
HETATM   46  O   UNK N   1      28.670  15.989   6.074  0.00  0.00    -0.631 OA
BRANCH  45  47
HETATM   47  O   UNK N   1      26.869  16.466   7.593  0.00  0.00    -0.307 OA
HETATM   48  H   UNK N   1      26.059  15.988   7.833  0.00  0.00     0.222 HD
ENDBRANCH  45  47
BRANCH  45  49
HETATM   49  O   UNK N   1      28.465  18.396   7.585  0.00  0.00    -0.195 OA
BRANCH  49  50
HETATM   50  P   UNK N   1      28.877  17.597   9.079  0.00  0.00     0.401 P 
HETATM   51  O   UNK N   1      29.513  18.777   9.874  0.00  0.00    -0.631 OA
BRANCH  50  52
HETATM   52  O   UNK N   1      27.451  18.587   9.173  0.00  0.00    -0.307 OA
HETATM   53  H   UNK N   1      26.808  19.311   9.226  0.00  0.00     0.222 HD
ENDBRANCH  50  52
BRANCH  50  54
HETATM   54  O   UNK N   1      30.154  17.718   7.879  0.00  0.00    -0.294 OA
BRANCH  54  55
HETATM   55  C   UNK N   1      31.418  17.577   8.451  0.00  0.00     0.215 C 
BRANCH  55  56
HETATM   56  C   UNK N   1      32.451  17.112   7.417  0.00  0.00     0.180 C 
HETATM   57  C   UNK N   1      33.733  16.304   7.819  0.00  0.00     0.197 C 
HETATM   58  C   UNK N   1      33.878  15.353   6.625  0.00  0.00     0.199 C 
HETATM   59  C   UNK N   1      33.090  16.118   5.586  0.00  0.00     0.262 C 
HETATM   60  O   UNK N   1      31.909  16.491   6.270  0.00  0.00    -0.353 OA
BRANCH  57  61
HETATM   61  O   UNK N   1      33.625  15.523   9.009  0.00  0.00    -0.286 OA
BRANCH  61  62
HETATM   62  P   UNK N   1      34.800  15.868  10.314  0.00  0.00     0.391 P 
HETATM   63  O   UNK N   1      35.740  15.038   9.398  0.00  0.00    -0.632 OA
BRANCH  62  64
HETATM   64  O   UNK N   1      35.333  14.491  11.228  0.00  0.00    -0.307 OA
HETATM   65  H   UNK N   1      35.433  14.118  12.117  0.00  0.00     0.222 HD
ENDBRANCH  62  64
BRANCH  62  66
HETATM   66  O   UNK N   1      33.540  15.077  11.212  0.00  0.00    -0.307 OA
HETATM   67  H   UNK N   1      32.908  14.490  10.768  0.00  0.00     0.222 HD
ENDBRANCH  62  66
ENDBRANCH  61  62
ENDBRANCH  57  61
BRANCH  58  68
HETATM   68  O   UNK N   1      35.216  15.155   6.284  0.00  0.00    -0.388 OA
HETATM   69  H   UNK N   1      35.894  15.050   6.971  0.00  0.00     0.210 HD
ENDBRANCH  58  68
BRANCH  59  70
HETATM   70  N   UNK N   1      32.827  15.492   4.291  0.00  0.00    -0.297 N 
HETATM   71  C   UNK N   1      33.686  15.461   3.236  0.00  0.00     0.188 A 
HETATM   72  N   UNK N   1      33.316  14.518   2.324  0.00  0.00    -0.346 N 
HETATM   73  C   UNK N   1      32.210  13.958   2.853  0.00  0.00     0.122 A 
ATOM     74  HN  UNK N   1      33.772  14.288   1.440  1.00  0.00     0.167 HD
HETATM   75  C   UNK N   1      31.469  12.870   2.420  0.00  0.00     0.131 A 
HETATM   76  C   UNK N   1      31.906  14.562   4.016  0.00  0.00     0.142 A 
HETATM   77  N   UNK N   1      30.405  12.475   3.182  0.00  0.00    -0.337 N 
HETATM   78  C   UNK N   1      30.091  13.128   4.348  0.00  0.00     0.183 A 
ATOM     79  HN  UNK N   1      29.836  11.684   2.880  1.00  0.00     0.168 HD
HETATM   80  N   UNK N   1      30.865  14.165   4.789  0.00  0.00    -0.336 N 
ATOM     81  HN  UNK N   1      30.665  14.626   5.677  1.00  0.00     0.168 HD
BRANCH  75  82
HETATM   82  N   UNK N   1      31.835  12.145   1.270  0.00  0.00    -0.383 N 
HETATM   83  H   UNK N   1      31.561  11.204   1.166  0.00  0.00     0.157 HD
HETATM   84  H   UNK N   1      32.367  12.579   0.565  0.00  0.00     0.157 HD
ENDBRANCH  75  82
ENDBRANCH  59  70
ENDBRANCH  55  56
ENDBRANCH  54  55
ENDBRANCH  50  54
ENDBRANCH  49  50
ENDBRANCH  45  49
ENDBRANCH  44  45
ENDBRANCH   1  44
TORSDOF 40
ENDMDL
MODEL 5
REMARK VINA RESULT:      -6.7      3.647      6.109
REMARK WARNING: 32 MAX_TORS EXCEEDED!!!
REMARK  40 active torsions:
REMARK  status: ('A' for Active; 'I' for Inactive)
REMARK    1  A    between atoms: C_6  and  C_5 
REMARK    2  A    between atoms: C_9  and  C_5 
REMARK    3  A    between atoms: C_15  and  C_6 
REMARK    4  A    between atoms: C_26  and  C_9 
REMARK    5  A    between atoms: C_12  and  C_10 
REMARK    6  A    between atoms: C_22  and  C_10 
REMARK    7  A    between atoms: C_13  and  C_11 
REMARK    8  A    between atoms: C_27  and  C_11 
REMARK    9  A    between atoms: N_38  and  C_12 
REMARK   10  A    between atoms: N_42  and  C_13 
REMARK   11  A    between atoms: C_16  and  C_14 
REMARK   12  A    between atoms: N_40  and  C_14 
REMARK   13  A    between atoms: S_72  and  C_15 
REMARK   14  A    between atoms: S_72  and  C_16 
REMARK   15  A    between atoms: C_25  and  C_18 
REMARK   16  A    between atoms: O_64  and  C_18 
REMARK   17  A    between atoms: C_36  and  C_19 
REMARK   18  A    between atoms: O_65  and  C_19 
REMARK   19  A    between atoms: N_38  and  C_26 
REMARK   20  A    between atoms: O_52  and  C_26 
REMARK   21  A    between atoms: N_40  and  C_27 
REMARK   22  A    between atoms: O_53  and  C_27 
REMARK   23  A    between atoms: C_29  and  O_54 
REMARK   24  A    between atoms: C_30  and  O_67 
REMARK   25  A    between atoms: C_34  and  C_31 
REMARK   26  A    between atoms: C_36  and  C_31 
REMARK   27  A    between atoms: C_31  and  O_55 
REMARK   28  A    between atoms: N_37  and  C_32 
REMARK   29  A    between atoms: N_42  and  C_34 
REMARK   30  A    between atoms: O_56  and  C_34 
REMARK   31  A    between atoms: C_35  and  N_51 
REMARK   32  A    between atoms: P_69  and  O_57 
REMARK   33  A    between atoms: P_69  and  O_58 
REMARK   34  A    between atoms: P_70  and  O_60 
REMARK   35  A    between atoms: P_71  and  O_62 
REMARK   36  A    between atoms: P_70  and  O_64 
REMARK   37  A    between atoms: P_71  and  O_65 
REMARK   38  A    between atoms: P_69  and  O_67 
REMARK   39  A    between atoms: P_70  and  O_68 
REMARK   40  A    between atoms: P_71  and  O_68 
ROOT
HETATM    1  C   UNK N   1      25.925  16.810   3.746  0.00  0.00     0.192 C 
ENDROOT
BRANCH   1   2
HETATM    2  C   UNK N   1      24.579  16.892   4.502  0.00  0.00     0.008 C 
HETATM    3  C   UNK N   1      23.481  16.307   3.624  0.00  0.00     0.020 C 
HETATM    4  C   UNK N   1      24.686  16.003   5.731  0.00  0.00     0.020 C 
BRANCH   2   5
HETATM    5  C   UNK N   1      24.176  18.335   4.936  0.00  0.00     0.202 C 
BRANCH   5   6
HETATM    6  C   UNK N   1      23.909  19.231   3.758  0.00  0.00     0.141 C 
BRANCH   6   7
HETATM    7  N   UNK N   1      22.696  19.474   3.411  0.00  0.00    -0.372 N 
ATOM      8  HN  UNK N   1      21.965  18.817   3.683  1.00  0.00     0.161 HD
BRANCH   7   9
HETATM    9  C   UNK N   1      22.332  20.640   2.655  0.00  0.00     0.129 C 
BRANCH   9  10
HETATM   10  C   UNK N   1      20.825  20.622   2.485  0.00  0.00     0.103 C 
BRANCH  10  11
HETATM   11  C   UNK N   1      20.356  19.627   1.442  0.00  0.00     0.112 C 
BRANCH  11  12
HETATM   12  N   UNK N   1      19.596  18.637   1.766  0.00  0.00    -0.374 N 
ATOM     13  HN  UNK N   1      18.602  18.687   1.545  1.00  0.00     0.161 HD
BRANCH  12  14
HETATM   14  C   UNK N   1      20.105  17.459   2.429  0.00  0.00     0.131 C 
BRANCH  14  15
HETATM   15  C   UNK N   1      19.646  17.415   3.878  0.00  0.00     0.093 C 
BRANCH  15  16
HETATM   16  S   UNK N   1      19.880  15.744   4.569  0.00  0.00    -0.168 SA
BRANCH  16  17
HETATM   17  C   UNK N   1      20.125  16.365   6.255  0.00  0.00     0.074 C 
BRANCH  17  18
HETATM   18  C   UNK N   1      21.248  15.643   6.976  0.00  0.00     0.010 C 
BRANCH  18  19
HETATM   19  C   UNK N   1      21.008  15.655   8.481  0.00  0.00     0.009 C 
BRANCH  19  20
HETATM   20  C   UNK N   1      20.226  14.449   9.021  0.00  0.00     0.083 C 
BRANCH  20  21
HETATM   21  C   UNK N   1      20.939  13.550  10.014  0.00  0.00     0.111 C 
BRANCH  21  22
HETATM   22  N   UNK N   1      22.224  13.507  10.136  0.00  0.00    -0.374 N 
ATOM     23  HN  UNK N   1      22.624  13.784  11.033  1.00  0.00     0.161 HD
BRANCH  22  24
HETATM   24  C   UNK N   1      23.140  13.093   9.093  0.00  0.00     0.126 C 
BRANCH  24  25
HETATM   25  C   UNK N   1      22.709  11.805   8.398  0.00  0.00     0.060 C 
BRANCH  25  26
HETATM   26  C   UNK N   1      22.374  12.005   6.956  0.00  0.00    -0.029 A 
HETATM   27  C   UNK N   1      21.093  12.002   6.414  0.00  0.00     0.096 A 
HETATM   28  N   UNK N   1      21.166  12.219   5.077  0.00  0.00    -0.365 N 
HETATM   29  C   UNK N   1      22.473  12.357   4.792  0.00  0.00     0.042 A 
HETATM   30  H   UNK N   1      20.414  12.266   4.443  0.00  0.00     0.165 HD
HETATM   31  C   UNK N   1      23.035  12.593   3.542  0.00  0.00     0.030 A 
HETATM   32  C   UNK N   1      23.239  12.233   5.918  0.00  0.00    -0.002 A 
HETATM   33  C   UNK N   1      24.435  12.701   3.463  0.00  0.00     0.002 A 
HETATM   34  C   UNK N   1      25.228  12.571   4.625  0.00  0.00     0.001 A 
HETATM   35  C   UNK N   1      24.628  12.333   5.876  0.00  0.00     0.014 A 
ENDBRANCH  25  26
ENDBRANCH  24  25
ENDBRANCH  22  24
ENDBRANCH  21  22
BRANCH  21  36
HETATM   36  O   UNK N   1      20.192  12.732  10.779  0.00  0.00    -0.350 OA
HETATM   37  H   UNK N   1      20.399  12.230  11.543  0.00  0.00     0.219 HD
ENDBRANCH  21  36
ENDBRANCH  20  21
ENDBRANCH  19  20
ENDBRANCH  18  19
ENDBRANCH  17  18
ENDBRANCH  16  17
ENDBRANCH  15  16
ENDBRANCH  14  15
ENDBRANCH  12  14
ENDBRANCH  11  12
BRANCH  11  38
HETATM   38  O   UNK N   1      20.713  19.784   0.153  0.00  0.00    -0.350 OA
HETATM   39  H   UNK N   1      20.184  19.613  -0.602  0.00  0.00     0.219 HD
ENDBRANCH  11  38
ENDBRANCH  10  11
ENDBRANCH   9  10
ENDBRANCH   7   9
ENDBRANCH   6   7
BRANCH   6  40
HETATM   40  O   UNK N   1      24.944  19.746   3.058  0.00  0.00    -0.348 OA
HETATM   41  H   UNK N   1      25.815  19.692   3.400  0.00  0.00     0.219 HD
ENDBRANCH   6  40
ENDBRANCH   5   6
BRANCH   5  42
HETATM   42  O   UNK N   1      23.046  18.314   5.759  0.00  0.00    -0.387 OA
HETATM   43  H   UNK N   1      22.926  17.993   6.667  0.00  0.00     0.210 HD
ENDBRANCH   5  42
ENDBRANCH   2   5
ENDBRANCH   1   2
BRANCH   1  44
HETATM   44  O   UNK N   1      26.962  16.514   4.632  0.00  0.00    -0.296 OA
BRANCH  44  45
HETATM   45  P   UNK N   1      27.967  17.929   4.846  0.00  0.00     0.401 P 
HETATM   46  O   UNK N   1      27.569  19.253   4.132  0.00  0.00    -0.631 OA
BRANCH  45  47
HETATM   47  O   UNK N   1      29.073  17.449   3.620  0.00  0.00    -0.307 OA
HETATM   48  H   UNK N   1      29.300  16.865   2.879  0.00  0.00     0.222 HD
ENDBRANCH  45  47
BRANCH  45  49
HETATM   49  O   UNK N   1      29.239  17.984   6.061  0.00  0.00    -0.195 OA
BRANCH  49  50
HETATM   50  P   UNK N   1      28.658  17.433   7.610  0.00  0.00     0.401 P 
HETATM   51  O   UNK N   1      28.736  18.754   8.435  0.00  0.00    -0.631 OA
BRANCH  50  52
HETATM   52  O   UNK N   1      27.487  18.333   6.692  0.00  0.00    -0.307 OA
HETATM   53  H   UNK N   1      26.699  18.657   6.228  0.00  0.00     0.222 HD
ENDBRANCH  50  52
BRANCH  50  54
HETATM   54  O   UNK N   1      30.401  17.466   7.395  0.00  0.00    -0.294 OA
BRANCH  54  55
HETATM   55  C   UNK N   1      31.073  17.033   8.538  0.00  0.00     0.215 C 
BRANCH  55  56
HETATM   56  C   UNK N   1      31.816  15.715   8.284  0.00  0.00     0.180 C 
HETATM   57  C   UNK N   1      32.645  15.459   6.979  0.00  0.00     0.197 C 
HETATM   58  C   UNK N   1      33.814  14.628   7.521  0.00  0.00     0.199 C 
HETATM   59  C   UNK N   1      33.191  14.105   8.795  0.00  0.00     0.262 C 
HETATM   60  O   UNK N   1      32.591  15.250   9.370  0.00  0.00    -0.353 OA
BRANCH  57  61
HETATM   61  O   UNK N   1      33.174  16.622   6.343  0.00  0.00    -0.286 OA
BRANCH  61  62
HETATM   62  P   UNK N   1      32.958  16.746   4.571  0.00  0.00     0.391 P 
HETATM   63  O   UNK N   1      33.479  18.188   4.822  0.00  0.00    -0.632 OA
BRANCH  62  64
HETATM   64  O   UNK N   1      31.723  17.846   4.040  0.00  0.00    -0.307 OA
HETATM   65  H   UNK N   1      31.338  18.299   3.274  0.00  0.00     0.222 HD
ENDBRANCH  62  64
BRANCH  62  66
HETATM   66  O   UNK N   1      31.351  16.305   5.064  0.00  0.00    -0.307 OA
HETATM   67  H   UNK N   1      30.640  16.965   5.084  0.00  0.00     0.222 HD
ENDBRANCH  62  66
ENDBRANCH  61  62
ENDBRANCH  57  61
BRANCH  58  68
HETATM   68  O   UNK N   1      34.193  13.626   6.627  0.00  0.00    -0.388 OA
HETATM   69  H   UNK N   1      35.107  13.565   6.307  0.00  0.00     0.210 HD
ENDBRANCH  58  68
BRANCH  59  70
HETATM   70  N   UNK N   1      34.024  13.362   9.741  0.00  0.00    -0.297 N 
HETATM   71  C   UNK N   1      34.424  12.069   9.601  0.00  0.00     0.188 A 
HETATM   72  N   UNK N   1      35.462  11.777  10.434  0.00  0.00    -0.346 N 
HETATM   73  C   UNK N   1      35.702  12.933  11.084  0.00  0.00     0.122 A 
ATOM     74  HN  UNK N   1      35.948  10.887  10.542  1.00  0.00     0.167 HD
HETATM   75  C   UNK N   1      36.717  13.263  11.968  0.00  0.00     0.131 A 
HETATM   76  C   UNK N   1      34.823  13.870  10.685  0.00  0.00     0.142 A 
HETATM   77  N   UNK N   1      36.756  14.542  12.452  0.00  0.00    -0.337 N 
HETATM   78  C   UNK N   1      35.826  15.472  12.059  0.00  0.00     0.183 A 
ATOM     79  HN  UNK N   1      37.486  14.807  13.113  1.00  0.00     0.168 HD
HETATM   80  N   UNK N   1      34.866  15.146  11.144  0.00  0.00    -0.336 N 
ATOM     81  HN  UNK N   1      34.199  15.844  10.813  1.00  0.00     0.168 HD
BRANCH  75  82
HETATM   82  N   UNK N   1      37.721  12.337  12.310  0.00  0.00    -0.383 N 
HETATM   83  H   UNK N   1      38.387  12.054  11.642  0.00  0.00     0.157 HD
HETATM   84  H   UNK N   1      37.758  11.970  13.223  0.00  0.00     0.157 HD
ENDBRANCH  75  82
ENDBRANCH  59  70
ENDBRANCH  55  56
ENDBRANCH  54  55
ENDBRANCH  50  54
ENDBRANCH  49  50
ENDBRANCH  45  49
ENDBRANCH  44  45
ENDBRANCH   1  44
TORSDOF 40
ENDMDL
MODEL 6
REMARK VINA RESULT:      -6.7      4.059     10.772
REMARK WARNING: 32 MAX_TORS EXCEEDED!!!
REMARK  40 active torsions:
REMARK  status: ('A' for Active; 'I' for Inactive)
REMARK    1  A    between atoms: C_6  and  C_5 
REMARK    2  A    between atoms: C_9  and  C_5 
REMARK    3  A    between atoms: C_15  and  C_6 
REMARK    4  A    between atoms: C_26  and  C_9 
REMARK    5  A    between atoms: C_12  and  C_10 
REMARK    6  A    between atoms: C_22  and  C_10 
REMARK    7  A    between atoms: C_13  and  C_11 
REMARK    8  A    between atoms: C_27  and  C_11 
REMARK    9  A    between atoms: N_38  and  C_12 
REMARK   10  A    between atoms: N_42  and  C_13 
REMARK   11  A    between atoms: C_16  and  C_14 
REMARK   12  A    between atoms: N_40  and  C_14 
REMARK   13  A    between atoms: S_72  and  C_15 
REMARK   14  A    between atoms: S_72  and  C_16 
REMARK   15  A    between atoms: C_25  and  C_18 
REMARK   16  A    between atoms: O_64  and  C_18 
REMARK   17  A    between atoms: C_36  and  C_19 
REMARK   18  A    between atoms: O_65  and  C_19 
REMARK   19  A    between atoms: N_38  and  C_26 
REMARK   20  A    between atoms: O_52  and  C_26 
REMARK   21  A    between atoms: N_40  and  C_27 
REMARK   22  A    between atoms: O_53  and  C_27 
REMARK   23  A    between atoms: C_29  and  O_54 
REMARK   24  A    between atoms: C_30  and  O_67 
REMARK   25  A    between atoms: C_34  and  C_31 
REMARK   26  A    between atoms: C_36  and  C_31 
REMARK   27  A    between atoms: C_31  and  O_55 
REMARK   28  A    between atoms: N_37  and  C_32 
REMARK   29  A    between atoms: N_42  and  C_34 
REMARK   30  A    between atoms: O_56  and  C_34 
REMARK   31  A    between atoms: C_35  and  N_51 
REMARK   32  A    between atoms: P_69  and  O_57 
REMARK   33  A    between atoms: P_69  and  O_58 
REMARK   34  A    between atoms: P_70  and  O_60 
REMARK   35  A    between atoms: P_71  and  O_62 
REMARK   36  A    between atoms: P_70  and  O_64 
REMARK   37  A    between atoms: P_71  and  O_65 
REMARK   38  A    between atoms: P_69  and  O_67 
REMARK   39  A    between atoms: P_70  and  O_68 
REMARK   40  A    between atoms: P_71  and  O_68 
ROOT
HETATM    1  C   UNK N   1      24.491  15.342   6.054  0.00  0.00     0.192 C 
ENDROOT
BRANCH   1   2
HETATM    2  C   UNK N   1      25.118  16.047   4.830  0.00  0.00     0.008 C 
HETATM    3  C   UNK N   1      24.856  17.543   4.931  0.00  0.00     0.020 C 
HETATM    4  C   UNK N   1      26.624  15.852   4.906  0.00  0.00     0.020 C 
BRANCH   2   5
HETATM    5  C   UNK N   1      24.594  15.526   3.455  0.00  0.00     0.202 C 
BRANCH   5   6
HETATM    6  C   UNK N   1      24.954  14.085   3.217  0.00  0.00     0.141 C 
BRANCH   6   7
HETATM    7  N   UNK N   1      25.603  13.763   2.155  0.00  0.00    -0.372 N 
ATOM      8  HN  UNK N   1      25.083  13.430   1.343  1.00  0.00     0.161 HD
BRANCH   7   9
HETATM    9  C   UNK N   1      27.034  13.857   2.072  0.00  0.00     0.129 C 
BRANCH   9  10
HETATM   10  C   UNK N   1      27.601  12.494   2.422  0.00  0.00     0.103 C 
BRANCH  10  11
HETATM   11  C   UNK N   1      28.255  12.455   3.788  0.00  0.00     0.112 C 
BRANCH  11  12
HETATM   12  N   UNK N   1      29.538  12.508   3.910  0.00  0.00    -0.374 N 
ATOM     13  HN  UNK N   1      30.106  11.795   3.454  1.00  0.00     0.161 HD
BRANCH  12  14
HETATM   14  C   UNK N   1      30.198  13.544   4.671  0.00  0.00     0.131 C 
BRANCH  14  15
HETATM   15  C   UNK N   1      31.118  14.365   3.781  0.00  0.00     0.093 C 
BRANCH  15  16
HETATM   16  S   UNK N   1      30.226  15.799   3.096  0.00  0.00    -0.168 SA
BRANCH  16  17
HETATM   17  C   UNK N   1      31.725  16.816   3.007  0.00  0.00     0.074 C 
BRANCH  17  18
HETATM   18  C   UNK N   1      31.918  17.664   4.251  0.00  0.00     0.010 C 
BRANCH  18  19
HETATM   19  C   UNK N   1      33.277  17.385   4.879  0.00  0.00     0.009 C 
BRANCH  19  20
HETATM   20  C   UNK N   1      33.318  17.495   6.410  0.00  0.00     0.083 C 
BRANCH  20  21
HETATM   21  C   UNK N   1      32.654  16.384   7.202  0.00  0.00     0.111 C 
BRANCH  21  22
HETATM   22  N   UNK N   1      32.118  16.563   8.364  0.00  0.00    -0.374 N 
ATOM     23  HN  UNK N   1      32.635  16.233   9.179  1.00  0.00     0.161 HD
BRANCH  22  24
HETATM   24  C   UNK N   1      30.836  17.196   8.594  0.00  0.00     0.126 C 
BRANCH  24  25
HETATM   25  C   UNK N   1      29.927  17.163   7.368  0.00  0.00     0.060 C 
BRANCH  25  26
HETATM   26  C   UNK N   1      28.848  18.196   7.415  0.00  0.00    -0.029 A 
HETATM   27  C   UNK N   1      28.197  18.635   8.562  0.00  0.00     0.096 A 
HETATM   28  N   UNK N   1      27.282  19.580   8.231  0.00  0.00    -0.365 N 
HETATM   29  C   UNK N   1      27.364  19.726   6.896  0.00  0.00     0.042 A 
HETATM   30  H   UNK N   1      26.679  20.061   8.843  0.00  0.00     0.165 HD
HETATM   31  C   UNK N   1      26.613  20.588   6.104  0.00  0.00     0.030 A 
HETATM   32  C   UNK N   1      28.312  18.896   6.367  0.00  0.00    -0.002 A 
HETATM   33  C   UNK N   1      26.856  20.582   4.718  0.00  0.00     0.002 A 
HETATM   34  C   UNK N   1      27.835  19.722   4.168  0.00  0.00     0.001 A 
HETATM   35  C   UNK N   1      28.579  18.864   4.999  0.00  0.00     0.014 A 
ENDBRANCH  25  26
ENDBRANCH  24  25
ENDBRANCH  22  24
ENDBRANCH  21  22
BRANCH  21  36
HETATM   36  O   UNK N   1      32.657  15.143   6.679  0.00  0.00    -0.350 OA
HETATM   37  H   UNK N   1      32.293  14.798   5.888  0.00  0.00     0.219 HD
ENDBRANCH  21  36
ENDBRANCH  20  21
ENDBRANCH  19  20
ENDBRANCH  18  19
ENDBRANCH  17  18
ENDBRANCH  16  17
ENDBRANCH  15  16
ENDBRANCH  14  15
ENDBRANCH  12  14
ENDBRANCH  11  12
BRANCH  11  38
HETATM   38  O   UNK N   1      27.495  12.388   4.897  0.00  0.00    -0.350 OA
HETATM   39  H   UNK N   1      26.742  12.910   5.096  0.00  0.00     0.219 HD
ENDBRANCH  11  38
ENDBRANCH  10  11
ENDBRANCH   9  10
ENDBRANCH   7   9
ENDBRANCH   6   7
BRANCH   6  40
HETATM   40  O   UNK N   1      24.568  13.141   4.103  0.00  0.00    -0.348 OA
HETATM   41  H   UNK N   1      25.138  12.896   4.806  0.00  0.00     0.219 HD
ENDBRANCH   6  40
ENDBRANCH   5   6
BRANCH   5  42
HETATM   42  O   UNK N   1      23.207  15.672   3.358  0.00  0.00    -0.387 OA
HETATM   43  H   UNK N   1      22.640  15.876   2.598  0.00  0.00     0.210 HD
ENDBRANCH   5  42
ENDBRANCH   2   5
ENDBRANCH   1   2
BRANCH   1  44
HETATM   44  O   UNK N   1      23.221  15.861   6.315  0.00  0.00    -0.296 OA
BRANCH  44  45
HETATM   45  P   UNK N   1      22.163  14.572   6.842  0.00  0.00     0.401 P 
HETATM   46  O   UNK N   1      22.790  13.246   7.363  0.00  0.00    -0.631 OA
BRANCH  45  47
HETATM   47  O   UNK N   1      21.924  13.983   5.245  0.00  0.00    -0.307 OA
HETATM   48  H   UNK N   1      22.251  13.487   4.477  0.00  0.00     0.222 HD
ENDBRANCH  45  47
BRANCH  45  49
HETATM   49  O   UNK N   1      20.438  14.829   7.074  0.00  0.00    -0.195 OA
BRANCH  49  50
HETATM   50  P   UNK N   1      20.092  16.496   7.450  0.00  0.00     0.401 P 
HETATM   51  O   UNK N   1      18.555  16.424   7.703  0.00  0.00    -0.631 OA
BRANCH  50  52
HETATM   52  O   UNK N   1      20.149  15.453   8.839  0.00  0.00    -0.307 OA
HETATM   53  H   UNK N   1      20.398  14.942   9.626  0.00  0.00     0.222 HD
ENDBRANCH  50  52
BRANCH  50  54
HETATM   54  O   UNK N   1      19.840  16.001   5.784  0.00  0.00    -0.294 OA
BRANCH  54  55
HETATM   55  C   UNK N   1      19.955  17.074   4.901  0.00  0.00     0.215 C 
BRANCH  55  56
HETATM   56  C   UNK N   1      19.783  16.623   3.445  0.00  0.00     0.180 C 
HETATM   57  C   UNK N   1      20.093  17.567   2.233  0.00  0.00     0.197 C 
HETATM   58  C   UNK N   1      20.673  16.575   1.217  0.00  0.00     0.199 C 
HETATM   59  C   UNK N   1      20.091  15.287   1.752  0.00  0.00     0.262 C 
HETATM   60  O   UNK N   1      20.338  15.360   3.143  0.00  0.00    -0.353 OA
BRANCH  57  61
HETATM   61  O   UNK N   1      21.063  18.586   2.474  0.00  0.00    -0.286 OA
BRANCH  61  62
HETATM   62  P   UNK N   1      20.517  20.282   2.302  0.00  0.00     0.391 P 
HETATM   63  O   UNK N   1      21.575  20.284   1.165  0.00  0.00    -0.632 OA
BRANCH  62  64
HETATM   64  O   UNK N   1      21.697  21.494   2.693  0.00  0.00    -0.307 OA
HETATM   65  H   UNK N   1      22.286  22.175   2.333  0.00  0.00     0.222 HD
ENDBRANCH  62  64
BRANCH  62  66
HETATM   66  O   UNK N   1      21.026  20.272   3.964  0.00  0.00    -0.307 OA
HETATM   67  H   UNK N   1      21.932  20.020   4.203  0.00  0.00     0.222 HD
ENDBRANCH  62  66
ENDBRANCH  61  62
ENDBRANCH  57  61
BRANCH  58  68
HETATM   68  O   UNK N   1      20.271  16.877  -0.084  0.00  0.00    -0.388 OA
HETATM   69  H   UNK N   1      20.734  16.497  -0.848  0.00  0.00     0.210 HD
ENDBRANCH  58  68
BRANCH  59  70
HETATM   70  N   UNK N   1      20.516  14.017   1.162  0.00  0.00    -0.297 N 
HETATM   71  C   UNK N   1      21.744  13.757   0.637  0.00  0.00     0.188 A 
HETATM   72  N   UNK N   1      21.952  12.417   0.503  0.00  0.00    -0.346 N 
HETATM   73  C   UNK N   1      20.821  11.855   0.974  0.00  0.00     0.122 A 
ATOM     74  HN  UNK N   1      22.776  11.945   0.130  1.00  0.00     0.167 HD
HETATM   75  C   UNK N   1      20.512  10.521   1.188  0.00  0.00     0.131 A 
HETATM   76  C   UNK N   1      19.955  12.816   1.343  0.00  0.00     0.142 A 
HETATM   77  N   UNK N   1      19.292  10.224   1.730  0.00  0.00    -0.337 N 
HETATM   78  C   UNK N   1      18.409  11.220   2.065  0.00  0.00     0.183 A 
ATOM     79  HN  UNK N   1      19.036   9.250   1.887  1.00  0.00     0.168 HD
HETATM   80  N   UNK N   1      18.752  12.532   1.899  0.00  0.00    -0.336 N 
ATOM     81  HN  UNK N   1      18.118  13.279   2.188  1.00  0.00     0.168 HD
BRANCH  75  82
HETATM   82  N   UNK N   1      21.445   9.501   0.923  0.00  0.00    -0.383 N 
HETATM   83  H   UNK N   1      21.375   8.960   0.102  0.00  0.00     0.157 HD
HETATM   84  H   UNK N   1      22.173   9.326   1.561  0.00  0.00     0.157 HD
ENDBRANCH  75  82
ENDBRANCH  59  70
ENDBRANCH  55  56
ENDBRANCH  54  55
ENDBRANCH  50  54
ENDBRANCH  49  50
ENDBRANCH  45  49
ENDBRANCH  44  45
ENDBRANCH   1  44
TORSDOF 40
ENDMDL
MODEL 7
REMARK VINA RESULT:      -6.7      4.710     10.146
REMARK WARNING: 32 MAX_TORS EXCEEDED!!!
REMARK  40 active torsions:
REMARK  status: ('A' for Active; 'I' for Inactive)
REMARK    1  A    between atoms: C_6  and  C_5 
REMARK    2  A    between atoms: C_9  and  C_5 
REMARK    3  A    between atoms: C_15  and  C_6 
REMARK    4  A    between atoms: C_26  and  C_9 
REMARK    5  A    between atoms: C_12  and  C_10 
REMARK    6  A    between atoms: C_22  and  C_10 
REMARK    7  A    between atoms: C_13  and  C_11 
REMARK    8  A    between atoms: C_27  and  C_11 
REMARK    9  A    between atoms: N_38  and  C_12 
REMARK   10  A    between atoms: N_42  and  C_13 
REMARK   11  A    between atoms: C_16  and  C_14 
REMARK   12  A    between atoms: N_40  and  C_14 
REMARK   13  A    between atoms: S_72  and  C_15 
REMARK   14  A    between atoms: S_72  and  C_16 
REMARK   15  A    between atoms: C_25  and  C_18 
REMARK   16  A    between atoms: O_64  and  C_18 
REMARK   17  A    between atoms: C_36  and  C_19 
REMARK   18  A    between atoms: O_65  and  C_19 
REMARK   19  A    between atoms: N_38  and  C_26 
REMARK   20  A    between atoms: O_52  and  C_26 
REMARK   21  A    between atoms: N_40  and  C_27 
REMARK   22  A    between atoms: O_53  and  C_27 
REMARK   23  A    between atoms: C_29  and  O_54 
REMARK   24  A    between atoms: C_30  and  O_67 
REMARK   25  A    between atoms: C_34  and  C_31 
REMARK   26  A    between atoms: C_36  and  C_31 
REMARK   27  A    between atoms: C_31  and  O_55 
REMARK   28  A    between atoms: N_37  and  C_32 
REMARK   29  A    between atoms: N_42  and  C_34 
REMARK   30  A    between atoms: O_56  and  C_34 
REMARK   31  A    between atoms: C_35  and  N_51 
REMARK   32  A    between atoms: P_69  and  O_57 
REMARK   33  A    between atoms: P_69  and  O_58 
REMARK   34  A    between atoms: P_70  and  O_60 
REMARK   35  A    between atoms: P_71  and  O_62 
REMARK   36  A    between atoms: P_70  and  O_64 
REMARK   37  A    between atoms: P_71  and  O_65 
REMARK   38  A    between atoms: P_69  and  O_67 
REMARK   39  A    between atoms: P_70  and  O_68 
REMARK   40  A    between atoms: P_71  and  O_68 
ROOT
HETATM    1  C   UNK N   1      22.373  13.643   1.251  0.00  0.00     0.192 C 
ENDROOT
BRANCH   1   2
HETATM    2  C   UNK N   1      23.532  12.846   1.890  0.00  0.00     0.008 C 
HETATM    3  C   UNK N   1      22.970  11.588   2.540  0.00  0.00     0.020 C 
HETATM    4  C   UNK N   1      24.455  12.393   0.769  0.00  0.00     0.020 C 
BRANCH   2   5
HETATM    5  C   UNK N   1      24.353  13.648   2.948  0.00  0.00     0.202 C 
BRANCH   5   6
HETATM    6  C   UNK N   1      25.582  14.281   2.355  0.00  0.00     0.141 C 
BRANCH   6   7
HETATM    7  N   UNK N   1      26.743  13.852   2.701  0.00  0.00    -0.372 N 
ATOM      8  HN  UNK N   1      26.833  13.323   3.568  1.00  0.00     0.161 HD
BRANCH   7   9
HETATM    9  C   UNK N   1      27.916  14.090   1.908  0.00  0.00     0.129 C 
BRANCH   9  10
HETATM   10  C   UNK N   1      28.992  14.625   2.834  0.00  0.00     0.103 C 
BRANCH  10  11
HETATM   11  C   UNK N   1      28.925  16.127   3.019  0.00  0.00     0.112 C 
BRANCH  11  12
HETATM   12  N   UNK N   1      29.998  16.824   3.178  0.00  0.00    -0.374 N 
ATOM     13  HN  UNK N   1      30.553  17.067   2.359  1.00  0.00     0.161 HD
BRANCH  12  14
HETATM   14  C   UNK N   1      30.441  17.272   4.478  0.00  0.00     0.131 C 
BRANCH  14  15
HETATM   15  C   UNK N   1      31.946  17.108   4.623  0.00  0.00     0.093 C 
BRANCH  15  16
HETATM   16  S   UNK N   1      32.357  15.393   5.082  0.00  0.00    -0.168 SA
BRANCH  16  17
HETATM   17  C   UNK N   1      33.425  15.910   6.454  0.00  0.00     0.074 C 
BRANCH  17  18
HETATM   18  C   UNK N   1      32.728  16.879   7.392  0.00  0.00     0.010 C 
BRANCH  18  19
HETATM   19  C   UNK N   1      31.986  16.120   8.485  0.00  0.00     0.009 C 
BRANCH  19  20
HETATM   20  C   UNK N   1      32.635  14.794   8.906  0.00  0.00     0.083 C 
BRANCH  20  21
HETATM   21  C   UNK N   1      33.727  14.861   9.958  0.00  0.00     0.111 C 
BRANCH  21  22
HETATM   22  N   UNK N   1      34.986  14.770   9.681  0.00  0.00    -0.374 N 
ATOM     23  HN  UNK N   1      35.244  14.403   8.765  1.00  0.00     0.161 HD
BRANCH  22  24
HETATM   24  C   UNK N   1      36.058  15.150  10.577  0.00  0.00     0.126 C 
BRANCH  24  25
HETATM   25  C   UNK N   1      36.755  13.952  11.215  0.00  0.00     0.060 C 
BRANCH  25  26
HETATM   26  C   UNK N   1      36.152  13.555  12.523  0.00  0.00    -0.029 A 
HETATM   27  C   UNK N   1      36.315  14.230  13.728  0.00  0.00     0.096 A 
HETATM   28  N   UNK N   1      35.621  13.591  14.703  0.00  0.00    -0.365 N 
HETATM   29  C   UNK N   1      35.034  12.535  14.112  0.00  0.00     0.042 A 
HETATM   30  H   UNK N   1      35.559  13.848  15.652  0.00  0.00     0.165 HD
HETATM   31  C   UNK N   1      34.219  11.586  14.719  0.00  0.00     0.030 A 
HETATM   32  C   UNK N   1      35.337  12.484  12.780  0.00  0.00    -0.002 A 
HETATM   33  C   UNK N   1      33.706  10.552  13.914  0.00  0.00     0.002 A 
HETATM   34  C   UNK N   1      34.020  10.496  12.537  0.00  0.00     0.001 A 
HETATM   35  C   UNK N   1      34.847  11.474  11.954  0.00  0.00     0.014 A 
ENDBRANCH  25  26
ENDBRANCH  24  25
ENDBRANCH  22  24
ENDBRANCH  21  22
BRANCH  21  36
HETATM   36  O   UNK N   1      33.360  14.986  11.247  0.00  0.00    -0.350 OA
HETATM   37  H   UNK N   1      33.517  15.660  11.879  0.00  0.00     0.219 HD
ENDBRANCH  21  36
ENDBRANCH  20  21
ENDBRANCH  19  20
ENDBRANCH  18  19
ENDBRANCH  17  18
ENDBRANCH  16  17
ENDBRANCH  15  16
ENDBRANCH  14  15
ENDBRANCH  12  14
ENDBRANCH  11  12
BRANCH  11  38
HETATM   38  O   UNK N   1      27.734  16.757   2.995  0.00  0.00    -0.350 OA
HETATM   39  H   UNK N   1      27.568  17.654   3.206  0.00  0.00     0.219 HD
ENDBRANCH  11  38
ENDBRANCH  10  11
ENDBRANCH   9  10
ENDBRANCH   7   9
ENDBRANCH   6   7
BRANCH   6  40
HETATM   40  O   UNK N   1      25.455  15.312   1.490  0.00  0.00    -0.348 OA
HETATM   41  H   UNK N   1      24.616  15.705   1.348  0.00  0.00     0.219 HD
ENDBRANCH   6  40
ENDBRANCH   5   6
BRANCH   5  42
HETATM   42  O   UNK N   1      23.569  14.641   3.543  0.00  0.00    -0.387 OA
HETATM   43  H   UNK N   1      22.799  14.577   4.131  0.00  0.00     0.210 HD
ENDBRANCH   5  42
ENDBRANCH   2   5
ENDBRANCH   1   2
BRANCH   1  44
HETATM   44  O   UNK N   1      21.191  13.436   1.964  0.00  0.00    -0.296 OA
BRANCH  44  45
HETATM   45  P   UNK N   1      20.098  14.773   1.681  0.00  0.00     0.401 P 
HETATM   46  O   UNK N   1      19.117  14.703   0.476  0.00  0.00    -0.631 OA
BRANCH  45  47
HETATM   47  O   UNK N   1      21.281  15.686   0.832  0.00  0.00    -0.307 OA
HETATM   48  H   UNK N   1      21.954  16.386   0.826  0.00  0.00     0.222 HD
ENDBRANCH  45  47
BRANCH  45  49
HETATM   49  O   UNK N   1      19.873  16.050   2.870  0.00  0.00    -0.195 OA
BRANCH  49  50
HETATM   50  P   UNK N   1      19.820  15.405   4.489  0.00  0.00     0.401 P 
HETATM   51  O   UNK N   1      18.446  15.957   4.977  0.00  0.00    -0.631 OA
BRANCH  50  52
HETATM   52  O   UNK N   1      18.825  14.548   3.350  0.00  0.00    -0.307 OA
HETATM   53  H   UNK N   1      18.102  14.190   2.812  0.00  0.00     0.222 HD
ENDBRANCH  50  52
BRANCH  50  54
HETATM   54  O   UNK N   1      20.419  17.048   4.321  0.00  0.00    -0.294 OA
BRANCH  54  55
HETATM   55  C   UNK N   1      21.441  17.323   5.230  0.00  0.00     0.215 C 
BRANCH  55  56
HETATM   56  C   UNK N   1      22.672  17.909   4.528  0.00  0.00     0.180 C 
HETATM   57  C   UNK N   1      22.575  19.125   3.544  0.00  0.00     0.197 C 
HETATM   58  C   UNK N   1      23.880  19.868   3.851  0.00  0.00     0.199 C 
HETATM   59  C   UNK N   1      24.684  18.742   4.458  0.00  0.00     0.262 C 
HETATM   60  O   UNK N   1      23.784  18.139   5.368  0.00  0.00    -0.353 OA
BRANCH  57  61
HETATM   61  O   UNK N   1      21.483  20.017   3.766  0.00  0.00    -0.286 OA
BRANCH  61  62
HETATM   62  P   UNK N   1      20.527  20.501   2.333  0.00  0.00     0.391 P 
HETATM   63  O   UNK N   1      20.950  19.090   1.838  0.00  0.00    -0.632 OA
BRANCH  62  64
HETATM   64  O   UNK N   1      21.429  20.713   0.865  0.00  0.00    -0.307 OA
HETATM   65  H   UNK N   1      22.212  20.432   0.365  0.00  0.00     0.222 HD
ENDBRANCH  62  64
BRANCH  62  66
HETATM   66  O   UNK N   1      21.694  21.787   2.393  0.00  0.00    -0.307 OA
HETATM   67  H   UNK N   1      22.516  21.735   1.880  0.00  0.00     0.222 HD
ENDBRANCH  62  66
ENDBRANCH  61  62
ENDBRANCH  57  61
BRANCH  58  68
HETATM   68  O   UNK N   1      24.449  20.410   2.698  0.00  0.00    -0.388 OA
HETATM   69  H   UNK N   1      24.230  20.055   1.822  0.00  0.00     0.210 HD
ENDBRANCH  58  68
BRANCH  59  70
HETATM   70  N   UNK N   1      25.986  19.038   5.054  0.00  0.00    -0.297 N 
HETATM   71  C   UNK N   1      26.476  20.281   5.314  0.00  0.00     0.188 A 
HETATM   72  N   UNK N   1      27.525  20.229   6.182  0.00  0.00    -0.346 N 
HETATM   73  C   UNK N   1      27.662  18.918   6.462  0.00  0.00     0.122 A 
ATOM     74  HN  UNK N   1      28.081  21.006   6.539  1.00  0.00     0.167 HD
HETATM   75  C   UNK N   1      28.493  18.284   7.372  0.00  0.00     0.131 A 
HETATM   76  C   UNK N   1      26.757  18.207   5.765  0.00  0.00     0.142 A 
HETATM   77  N   UNK N   1      28.393  16.926   7.493  0.00  0.00    -0.337 N 
HETATM   78  C   UNK N   1      27.487  16.216   6.745  0.00  0.00     0.183 A 
ATOM     79  HN  UNK N   1      29.001  16.433   8.147  1.00  0.00     0.168 HD
HETATM   80  N   UNK N   1      26.637  16.863   5.892  0.00  0.00    -0.336 N 
ATOM     81  HN  UNK N   1      25.931  16.347   5.367  1.00  0.00     0.168 HD
BRANCH  75  82
HETATM   82  N   UNK N   1      29.365  19.015   8.201  0.00  0.00    -0.383 N 
HETATM   83  H   UNK N   1      29.554  18.709   9.118  0.00  0.00     0.157 HD
HETATM   84  H   UNK N   1      29.789  19.836   7.863  0.00  0.00     0.157 HD
ENDBRANCH  75  82
ENDBRANCH  59  70
ENDBRANCH  55  56
ENDBRANCH  54  55
ENDBRANCH  50  54
ENDBRANCH  49  50
ENDBRANCH  45  49
ENDBRANCH  44  45
ENDBRANCH   1  44
TORSDOF 40
ENDMDL
MODEL 8
REMARK VINA RESULT:      -6.6      3.968     10.622
REMARK WARNING: 32 MAX_TORS EXCEEDED!!!
REMARK  40 active torsions:
REMARK  status: ('A' for Active; 'I' for Inactive)
REMARK    1  A    between atoms: C_6  and  C_5 
REMARK    2  A    between atoms: C_9  and  C_5 
REMARK    3  A    between atoms: C_15  and  C_6 
REMARK    4  A    between atoms: C_26  and  C_9 
REMARK    5  A    between atoms: C_12  and  C_10 
REMARK    6  A    between atoms: C_22  and  C_10 
REMARK    7  A    between atoms: C_13  and  C_11 
REMARK    8  A    between atoms: C_27  and  C_11 
REMARK    9  A    between atoms: N_38  and  C_12 
REMARK   10  A    between atoms: N_42  and  C_13 
REMARK   11  A    between atoms: C_16  and  C_14 
REMARK   12  A    between atoms: N_40  and  C_14 
REMARK   13  A    between atoms: S_72  and  C_15 
REMARK   14  A    between atoms: S_72  and  C_16 
REMARK   15  A    between atoms: C_25  and  C_18 
REMARK   16  A    between atoms: O_64  and  C_18 
REMARK   17  A    between atoms: C_36  and  C_19 
REMARK   18  A    between atoms: O_65  and  C_19 
REMARK   19  A    between atoms: N_38  and  C_26 
REMARK   20  A    between atoms: O_52  and  C_26 
REMARK   21  A    between atoms: N_40  and  C_27 
REMARK   22  A    between atoms: O_53  and  C_27 
REMARK   23  A    between atoms: C_29  and  O_54 
REMARK   24  A    between atoms: C_30  and  O_67 
REMARK   25  A    between atoms: C_34  and  C_31 
REMARK   26  A    between atoms: C_36  and  C_31 
REMARK   27  A    between atoms: C_31  and  O_55 
REMARK   28  A    between atoms: N_37  and  C_32 
REMARK   29  A    between atoms: N_42  and  C_34 
REMARK   30  A    between atoms: O_56  and  C_34 
REMARK   31  A    between atoms: C_35  and  N_51 
REMARK   32  A    between atoms: P_69  and  O_57 
REMARK   33  A    between atoms: P_69  and  O_58 
REMARK   34  A    between atoms: P_70  and  O_60 
REMARK   35  A    between atoms: P_71  and  O_62 
REMARK   36  A    between atoms: P_70  and  O_64 
REMARK   37  A    between atoms: P_71  and  O_65 
REMARK   38  A    between atoms: P_69  and  O_67 
REMARK   39  A    between atoms: P_70  and  O_68 
REMARK   40  A    between atoms: P_71  and  O_68 
ROOT
HETATM    1  C   UNK N   1      25.225  14.440   6.795  0.00  0.00     0.192 C 
ENDROOT
BRANCH   1   2
HETATM    2  C   UNK N   1      25.549  15.276   5.536  0.00  0.00     0.008 C 
HETATM    3  C   UNK N   1      25.185  16.731   5.800  0.00  0.00     0.020 C 
HETATM    4  C   UNK N   1      27.054  15.225   5.322  0.00  0.00     0.020 C 
BRANCH   2   5
HETATM    5  C   UNK N   1      24.822  14.792   4.242  0.00  0.00     0.202 C 
BRANCH   5   6
HETATM    6  C   UNK N   1      25.337  13.462   3.764  0.00  0.00     0.141 C 
BRANCH   6   7
HETATM    7  N   UNK N   1      25.837  13.366   2.584  0.00  0.00    -0.372 N 
ATOM      8  HN  UNK N   1      25.275  12.943   1.845  1.00  0.00     0.161 HD
BRANCH   7   9
HETATM    9  C   UNK N   1      27.158  13.833   2.269  0.00  0.00     0.129 C 
BRANCH   9  10
HETATM   10  C   UNK N   1      28.001  12.620   1.926  0.00  0.00     0.103 C 
BRANCH  10  11
HETATM   11  C   UNK N   1      28.654  11.986   3.138  0.00  0.00     0.112 C 
BRANCH  11  12
HETATM   12  N   UNK N   1      29.912  12.143   3.370  0.00  0.00    -0.374 N 
ATOM     13  HN  UNK N   1      30.572  11.469   2.984  1.00  0.00     0.161 HD
BRANCH  12  14
HETATM   14  C   UNK N   1      30.420  13.242   4.159  0.00  0.00     0.131 C 
BRANCH  14  15
HETATM   15  C   UNK N   1      31.173  14.232   3.285  0.00  0.00     0.093 C 
BRANCH  15  16
HETATM   16  S   UNK N   1      30.223  15.778   3.111  0.00  0.00    -0.168 SA
BRANCH  16  17
HETATM   17  C   UNK N   1      31.715  16.807   3.050  0.00  0.00     0.074 C 
BRANCH  17  18
HETATM   18  C   UNK N   1      31.891  17.639   4.307  0.00  0.00     0.010 C 
BRANCH  18  19
HETATM   19  C   UNK N   1      33.338  17.591   4.779  0.00  0.00     0.009 C 
BRANCH  19  20
HETATM   20  C   UNK N   1      33.522  17.316   6.278  0.00  0.00     0.083 C 
BRANCH  20  21
HETATM   21  C   UNK N   1      32.774  16.131   6.860  0.00  0.00     0.111 C 
BRANCH  21  22
HETATM   22  N   UNK N   1      31.996  16.217   7.888  0.00  0.00    -0.374 N 
ATOM     23  HN  UNK N   1      32.108  15.521   8.626  1.00  0.00     0.161 HD
BRANCH  22  24
HETATM   24  C   UNK N   1      30.976  17.229   8.070  0.00  0.00     0.126 C 
BRANCH  24  25
HETATM   25  C   UNK N   1      29.741  16.991   7.207  0.00  0.00     0.060 C 
BRANCH  25  26
HETATM   26  C   UNK N   1      28.751  18.107   7.285  0.00  0.00    -0.029 A 
HETATM   27  C   UNK N   1      28.214  18.633   8.455  0.00  0.00     0.096 A 
HETATM   28  N   UNK N   1      27.355  19.637   8.149  0.00  0.00    -0.365 N 
HETATM   29  C   UNK N   1      27.360  19.735   6.807  0.00  0.00     0.042 A 
HETATM   30  H   UNK N   1      26.834  20.184   8.780  0.00  0.00     0.165 HD
HETATM   31  C   UNK N   1      26.627  20.629   6.033  0.00  0.00     0.030 A 
HETATM   32  C   UNK N   1      28.203  18.816   6.249  0.00  0.00    -0.002 A 
HETATM   33  C   UNK N   1      26.777  20.560   4.636  0.00  0.00     0.002 A 
HETATM   34  C   UNK N   1      27.646  19.609   4.056  0.00  0.00     0.001 A 
HETATM   35  C   UNK N   1      28.374  18.719   4.869  0.00  0.00     0.014 A 
ENDBRANCH  25  26
ENDBRANCH  24  25
ENDBRANCH  22  24
ENDBRANCH  21  22
BRANCH  21  36
HETATM   36  O   UNK N   1      32.962  14.923   6.296  0.00  0.00    -0.350 OA
HETATM   37  H   UNK N   1      33.568  14.624   5.647  0.00  0.00     0.219 HD
ENDBRANCH  21  36
ENDBRANCH  20  21
ENDBRANCH  19  20
ENDBRANCH  18  19
ENDBRANCH  17  18
ENDBRANCH  16  17
ENDBRANCH  15  16
ENDBRANCH  14  15
ENDBRANCH  12  14
ENDBRANCH  11  12
BRANCH  11  38
HETATM   38  O   UNK N   1      27.913  11.267   4.003  0.00  0.00    -0.350 OA
HETATM   39  H   UNK N   1      26.978  11.225   4.043  0.00  0.00     0.219 HD
ENDBRANCH  11  38
ENDBRANCH  10  11
ENDBRANCH   9  10
ENDBRANCH   7   9
ENDBRANCH   6   7
BRANCH   6  40
HETATM   40  O   UNK N   1      25.242  12.378   4.565  0.00  0.00    -0.348 OA
HETATM   41  H   UNK N   1      25.596  12.403   5.432  0.00  0.00     0.219 HD
ENDBRANCH   6  40
ENDBRANCH   5   6
BRANCH   5  42
HETATM   42  O   UNK N   1      23.442  14.701   4.446  0.00  0.00    -0.387 OA
HETATM   43  H   UNK N   1      22.784  15.383   4.656  0.00  0.00     0.210 HD
ENDBRANCH   5  42
ENDBRANCH   2   5
ENDBRANCH   1   2
BRANCH   1  44
HETATM   44  O   UNK N   1      23.871  14.553   7.117  0.00  0.00    -0.296 OA
BRANCH  44  45
HETATM   45  P   UNK N   1      23.310  13.047   7.806  0.00  0.00     0.401 P 
HETATM   46  O   UNK N   1      24.346  11.935   8.138  0.00  0.00    -0.631 OA
BRANCH  45  47
HETATM   47  O   UNK N   1      22.899  12.386   6.272  0.00  0.00    -0.307 OA
HETATM   48  H   UNK N   1      23.173  11.977   5.436  0.00  0.00     0.222 HD
ENDBRANCH  45  47
BRANCH  45  49
HETATM   49  O   UNK N   1      21.664  12.859   8.398  0.00  0.00    -0.195 OA
BRANCH  49  50
HETATM   50  P   UNK N   1      21.056  14.353   9.062  0.00  0.00     0.401 P 
HETATM   51  O   UNK N   1      19.827  13.833   9.869  0.00  0.00    -0.631 OA
BRANCH  50  52
HETATM   52  O   UNK N   1      21.939  13.378  10.199  0.00  0.00    -0.307 OA
HETATM   53  H   UNK N   1      22.341  12.978  10.986  0.00  0.00     0.222 HD
ENDBRANCH  50  52
BRANCH  50  54
HETATM   54  O   UNK N   1      20.310  13.798   7.572  0.00  0.00    -0.294 OA
BRANCH  54  55
HETATM   55  C   UNK N   1      20.278  14.801   6.603  0.00  0.00     0.215 C 
BRANCH  55  56
HETATM   56  C   UNK N   1      19.904  14.237   5.226  0.00  0.00     0.180 C 
HETATM   57  C   UNK N   1      19.048  15.049   4.194  0.00  0.00     0.197 C 
HETATM   58  C   UNK N   1      19.688  14.622   2.868  0.00  0.00     0.199 C 
HETATM   59  C   UNK N   1      20.328  13.321   3.296  0.00  0.00     0.262 C 
HETATM   60  O   UNK N   1      20.971  13.649   4.513  0.00  0.00    -0.353 OA
BRANCH  57  61
HETATM   61  O   UNK N   1      19.132  16.470   4.300  0.00  0.00    -0.286 OA
BRANCH  61  62
HETATM   62  P   UNK N   1      20.254  17.302   3.181  0.00  0.00     0.391 P 
HETATM   63  O   UNK N   1      20.980  17.653   4.509  0.00  0.00    -0.632 OA
BRANCH  62  64
HETATM   64  O   UNK N   1      20.295  19.033   3.309  0.00  0.00    -0.307 OA
HETATM   65  H   UNK N   1      20.817  19.796   3.601  0.00  0.00     0.222 HD
ENDBRANCH  62  64
BRANCH  62  66
HETATM   66  O   UNK N   1      18.755  18.082   2.777  0.00  0.00    -0.307 OA
HETATM   67  H   UNK N   1      18.525  18.943   3.162  0.00  0.00     0.222 HD
ENDBRANCH  62  66
ENDBRANCH  61  62
ENDBRANCH  57  61
BRANCH  58  68
HETATM   68  O   UNK N   1      18.735  14.476   1.859  0.00  0.00    -0.388 OA
HETATM   69  H   UNK N   1      18.420  13.597   1.597  0.00  0.00     0.210 HD
ENDBRANCH  58  68
BRANCH  59  70
HETATM   70  N   UNK N   1      21.204  12.618   2.358  0.00  0.00    -0.297 N 
HETATM   71  C   UNK N   1      21.633  13.098   1.160  0.00  0.00     0.188 A 
HETATM   72  N   UNK N   1      22.699  12.390   0.694  0.00  0.00    -0.346 N 
HETATM   73  C   UNK N   1      22.927  11.464   1.647  0.00  0.00     0.122 A 
ATOM     74  HN  UNK N   1      23.210  12.527  -0.178  1.00  0.00     0.167 HD
HETATM   75  C   UNK N   1      23.954  10.543   1.766  0.00  0.00     0.131 A 
HETATM   76  C   UNK N   1      22.014  11.588   2.628  0.00  0.00     0.142 A 
HETATM   77  N   UNK N   1      23.973   9.743   2.876  0.00  0.00    -0.337 N 
HETATM   78  C   UNK N   1      23.011   9.862   3.847  0.00  0.00     0.183 A 
ATOM     79  HN  UNK N   1      24.713   9.049   2.982  1.00  0.00     0.168 HD
HETATM   80  N   UNK N   1      22.036  10.813   3.740  0.00  0.00    -0.336 N 
ATOM     81  HN  UNK N   1      21.343  10.938   4.480  1.00  0.00     0.168 HD
BRANCH  75  82
HETATM   82  N   UNK N   1      24.990  10.473   0.815  0.00  0.00    -0.383 N 
HETATM   83  H   UNK N   1      25.702   9.797   0.902  0.00  0.00     0.157 HD
HETATM   84  H   UNK N   1      25.004  11.103   0.060  0.00  0.00     0.157 HD
ENDBRANCH  75  82
ENDBRANCH  59  70
ENDBRANCH  55  56
ENDBRANCH  54  55
ENDBRANCH  50  54
ENDBRANCH  49  50
ENDBRANCH  45  49
ENDBRANCH  44  45
ENDBRANCH   1  44
TORSDOF 40
ENDMDL
MODEL 9
REMARK VINA RESULT:      -6.6      7.614     13.089
REMARK WARNING: 32 MAX_TORS EXCEEDED!!!
REMARK  40 active torsions:
REMARK  status: ('A' for Active; 'I' for Inactive)
REMARK    1  A    between atoms: C_6  and  C_5 
REMARK    2  A    between atoms: C_9  and  C_5 
REMARK    3  A    between atoms: C_15  and  C_6 
REMARK    4  A    between atoms: C_26  and  C_9 
REMARK    5  A    between atoms: C_12  and  C_10 
REMARK    6  A    between atoms: C_22  and  C_10 
REMARK    7  A    between atoms: C_13  and  C_11 
REMARK    8  A    between atoms: C_27  and  C_11 
REMARK    9  A    between atoms: N_38  and  C_12 
REMARK   10  A    between atoms: N_42  and  C_13 
REMARK   11  A    between atoms: C_16  and  C_14 
REMARK   12  A    between atoms: N_40  and  C_14 
REMARK   13  A    between atoms: S_72  and  C_15 
REMARK   14  A    between atoms: S_72  and  C_16 
REMARK   15  A    between atoms: C_25  and  C_18 
REMARK   16  A    between atoms: O_64  and  C_18 
REMARK   17  A    between atoms: C_36  and  C_19 
REMARK   18  A    between atoms: O_65  and  C_19 
REMARK   19  A    between atoms: N_38  and  C_26 
REMARK   20  A    between atoms: O_52  and  C_26 
REMARK   21  A    between atoms: N_40  and  C_27 
REMARK   22  A    between atoms: O_53  and  C_27 
REMARK   23  A    between atoms: C_29  and  O_54 
REMARK   24  A    between atoms: C_30  and  O_67 
REMARK   25  A    between atoms: C_34  and  C_31 
REMARK   26  A    between atoms: C_36  and  C_31 
REMARK   27  A    between atoms: C_31  and  O_55 
REMARK   28  A    between atoms: N_37  and  C_32 
REMARK   29  A    between atoms: N_42  and  C_34 
REMARK   30  A    between atoms: O_56  and  C_34 
REMARK   31  A    between atoms: C_35  and  N_51 
REMARK   32  A    between atoms: P_69  and  O_57 
REMARK   33  A    between atoms: P_69  and  O_58 
REMARK   34  A    between atoms: P_70  and  O_60 
REMARK   35  A    between atoms: P_71  and  O_62 
REMARK   36  A    between atoms: P_70  and  O_64 
REMARK   37  A    between atoms: P_71  and  O_65 
REMARK   38  A    between atoms: P_69  and  O_67 
REMARK   39  A    between atoms: P_70  and  O_68 
REMARK   40  A    between atoms: P_71  and  O_68 
ROOT
HETATM    1  C   UNK N   1      31.024  17.026   6.477  0.00  0.00     0.192 C 
ENDROOT
BRANCH   1   2
HETATM    2  C   UNK N   1      32.111  17.051   7.575  0.00  0.00     0.008 C 
HETATM    3  C   UNK N   1      31.684  18.013   8.675  0.00  0.00     0.020 C 
HETATM    4  C   UNK N   1      32.173  15.664   8.196  0.00  0.00     0.020 C 
BRANCH   2   5
HETATM    5  C   UNK N   1      33.529  17.454   7.061  0.00  0.00     0.202 C 
BRANCH   5   6
HETATM    6  C   UNK N   1      34.471  17.781   8.187  0.00  0.00     0.141 C 
BRANCH   6   7
HETATM    7  N   UNK N   1      34.797  16.862   9.025  0.00  0.00    -0.372 N 
ATOM      8  HN  UNK N   1      34.803  15.892   8.712  1.00  0.00     0.161 HD
BRANCH   7   9
HETATM    9  C   UNK N   1      35.156  17.155  10.384  0.00  0.00     0.129 C 
BRANCH   9  10
HETATM   10  C   UNK N   1      35.943  15.971  10.913  0.00  0.00     0.103 C 
BRANCH  10  11
HETATM   11  C   UNK N   1      35.097  14.727  11.093  0.00  0.00     0.112 C 
BRANCH  11  12
HETATM   12  N   UNK N   1      35.628  13.553  11.043  0.00  0.00    -0.374 N 
ATOM     13  HN  UNK N   1      36.625  13.470  10.847  1.00  0.00     0.161 HD
BRANCH  12  14
HETATM   14  C   UNK N   1      34.858  12.349  11.257  0.00  0.00     0.131 C 
BRANCH  14  15
HETATM   15  C   UNK N   1      35.244  11.686  12.569  0.00  0.00     0.093 C 
BRANCH  15  16
HETATM   16  S   UNK N   1      34.040  10.390  13.007  0.00  0.00    -0.168 SA
BRANCH  16  17
HETATM   17  C   UNK N   1      33.826  11.017  14.695  0.00  0.00     0.074 C 
BRANCH  17  18
HETATM   18  C   UNK N   1      34.994  11.878  15.141  0.00  0.00     0.010 C 
BRANCH  18  19
HETATM   19  C   UNK N   1      34.528  12.932  16.136  0.00  0.00     0.009 C 
BRANCH  19  20
HETATM   20  C   UNK N   1      35.634  13.515  17.027  0.00  0.00     0.083 C 
BRANCH  20  21
HETATM   21  C   UNK N   1      35.272  13.824  18.468  0.00  0.00     0.111 C 
BRANCH  21  22
HETATM   22  N   UNK N   1      35.063  12.911  19.359  0.00  0.00    -0.374 N 
ATOM     23  HN  UNK N   1      34.375  13.108  20.085  1.00  0.00     0.161 HD
BRANCH  22  24
HETATM   24  C   UNK N   1      35.736  11.630  19.402  0.00  0.00     0.126 C 
BRANCH  24  25
HETATM   25  C   UNK N   1      34.803  10.456  19.122  0.00  0.00     0.060 C 
BRANCH  25  26
HETATM   26  C   UNK N   1      34.361   9.753  20.363  0.00  0.00    -0.029 A 
HETATM   27  C   UNK N   1      35.007   9.798  21.594  0.00  0.00     0.096 A 
HETATM   28  N   UNK N   1      34.324   9.047  22.493  0.00  0.00    -0.365 N 
HETATM   29  C   UNK N   1      33.266   8.544  21.832  0.00  0.00     0.042 A 
HETATM   30  H   UNK N   1      34.554   8.901  23.439  0.00  0.00     0.165 HD
HETATM   31  C   UNK N   1      32.280   7.710  22.347  0.00  0.00     0.030 A 
HETATM   32  C   UNK N   1      33.258   8.956  20.528  0.00  0.00    -0.002 A 
HETATM   33  C   UNK N   1      31.256   7.291  21.476  0.00  0.00     0.002 A 
HETATM   34  C   UNK N   1      31.247   7.715  20.128  0.00  0.00     0.001 A 
HETATM   35  C   UNK N   1      32.261   8.561  19.639  0.00  0.00     0.014 A 
ENDBRANCH  25  26
ENDBRANCH  24  25
ENDBRANCH  22  24
ENDBRANCH  21  22
BRANCH  21  36
HETATM   36  O   UNK N   1      35.125  15.114  18.823  0.00  0.00    -0.350 OA
HETATM   37  H   UNK N   1      34.376  15.676  18.836  0.00  0.00     0.219 HD
ENDBRANCH  21  36
ENDBRANCH  20  21
ENDBRANCH  19  20
ENDBRANCH  18  19
ENDBRANCH  17  18
ENDBRANCH  16  17
ENDBRANCH  15  16
ENDBRANCH  14  15
ENDBRANCH  12  14
ENDBRANCH  11  12
BRANCH  11  38
HETATM   38  O   UNK N   1      33.777  14.839  11.333  0.00  0.00    -0.350 OA
HETATM   39  H   UNK N   1      33.155  15.335  10.838  0.00  0.00     0.219 HD
ENDBRANCH  11  38
ENDBRANCH  10  11
ENDBRANCH   9  10
ENDBRANCH   7   9
ENDBRANCH   6   7
BRANCH   6  40
HETATM   40  O   UNK N   1      34.941  19.041   8.326  0.00  0.00    -0.348 OA
HETATM   41  H   UNK N   1      34.627  19.723   7.765  0.00  0.00     0.219 HD
ENDBRANCH   6  40
ENDBRANCH   5   6
BRANCH   5  42
HETATM   42  O   UNK N   1      34.086  16.438   6.279  0.00  0.00    -0.387 OA
HETATM   43  H   UNK N   1      34.400  16.442   5.360  0.00  0.00     0.210 HD
ENDBRANCH   5  42
ENDBRANCH   2   5
ENDBRANCH   1   2
BRANCH   1  44
HETATM   44  O   UNK N   1      29.899  17.741   6.893  0.00  0.00    -0.296 OA
BRANCH  44  45
HETATM   45  P   UNK N   1      28.561  17.395   5.820  0.00  0.00     0.401 P 
HETATM   46  O   UNK N   1      28.583  16.083   4.984  0.00  0.00    -0.631 OA
BRANCH  45  47
HETATM   47  O   UNK N   1      29.198  18.367   4.553  0.00  0.00    -0.307 OA
HETATM   48  H   UNK N   1      29.149  18.687   3.639  0.00  0.00     0.222 HD
ENDBRANCH  45  47
BRANCH  45  49
HETATM   49  O   UNK N   1      27.070  18.328   5.872  0.00  0.00    -0.195 OA
BRANCH  49  50
HETATM   50  P   UNK N   1      27.179  19.751   4.870  0.00  0.00     0.401 P 
HETATM   51  O   UNK N   1      26.026  20.615   5.466  0.00  0.00    -0.631 OA
BRANCH  50  52
HETATM   52  O   UNK N   1      27.856  19.948   6.459  0.00  0.00    -0.307 OA
HETATM   53  H   UNK N   1      28.324  20.247   7.255  0.00  0.00     0.222 HD
ENDBRANCH  50  52
BRANCH  50  54
HETATM   54  O   UNK N   1      26.011  18.535   4.377  0.00  0.00    -0.294 OA
BRANCH  54  55
HETATM   55  C   UNK N   1      24.774  19.100   4.068  0.00  0.00     0.215 C 
BRANCH  55  56
HETATM   56  C   UNK N   1      23.643  18.445   4.869  0.00  0.00     0.180 C 
HETATM   57  C   UNK N   1      22.145  18.512   4.413  0.00  0.00     0.197 C 
HETATM   58  C   UNK N   1      21.635  17.131   4.843  0.00  0.00     0.199 C 
HETATM   59  C   UNK N   1      22.664  16.791   5.897  0.00  0.00     0.262 C 
HETATM   60  O   UNK N   1      23.895  17.117   5.280  0.00  0.00    -0.353 OA
BRANCH  57  61
HETATM   61  O   UNK N   1      21.931  18.656   3.009  0.00  0.00    -0.286 OA
BRANCH  61  62
HETATM   62  P   UNK N   1      20.764  19.910   2.492  0.00  0.00     0.391 P 
HETATM   63  O   UNK N   1      21.990  20.413   1.680  0.00  0.00    -0.632 OA
BRANCH  62  64
HETATM   64  O   UNK N   1      21.114  21.526   3.024  0.00  0.00    -0.307 OA
HETATM   65  H   UNK N   1      20.881  22.462   2.928  0.00  0.00     0.222 HD
ENDBRANCH  62  64
BRANCH  62  66
HETATM   66  O   UNK N   1      20.720  20.118   4.216  0.00  0.00    -0.307 OA
HETATM   67  H   UNK N   1      20.189  20.824   4.617  0.00  0.00     0.222 HD
ENDBRANCH  62  66
ENDBRANCH  61  62
ENDBRANCH  57  61
BRANCH  58  68
HETATM   68  O   UNK N   1      20.329  17.193   5.330  0.00  0.00    -0.388 OA
HETATM   69  H   UNK N   1      19.591  16.821   4.821  0.00  0.00     0.210 HD
ENDBRANCH  58  68
BRANCH  59  70
HETATM   70  N   UNK N   1      22.659  15.454   6.491  0.00  0.00    -0.297 N 
HETATM   71  C   UNK N   1      23.654  14.533   6.380  0.00  0.00     0.188 A 
HETATM   72  N   UNK N   1      23.528  13.551   7.317  0.00  0.00    -0.346 N 
HETATM   73  C   UNK N   1      22.432  13.901   8.020  0.00  0.00     0.122 A 
ATOM     74  HN  UNK N   1      24.126  12.736   7.455  1.00  0.00     0.167 HD
HETATM   75  C   UNK N   1      21.891  13.336   9.164  0.00  0.00     0.131 A 
HETATM   76  C   UNK N   1      21.901  15.025   7.506  0.00  0.00     0.142 A 
HETATM   77  N   UNK N   1      20.785  13.928   9.709  0.00  0.00    -0.337 N 
HETATM   78  C   UNK N   1      20.238  15.054   9.147  0.00  0.00     0.183 A 
ATOM     79  HN  UNK N   1      20.361  13.526  10.545  1.00  0.00     0.168 HD
HETATM   80  N   UNK N   1      20.817  15.629   8.051  0.00  0.00    -0.336 N 
ATOM     81  HN  UNK N   1      20.442  16.492   7.654  1.00  0.00     0.168 HD
BRANCH  75  82
HETATM   82  N   UNK N   1      22.496  12.231   9.793  0.00  0.00    -0.383 N 
HETATM   83  H   UNK N   1      22.942  11.535   9.257  0.00  0.00     0.157 HD
HETATM   84  H   UNK N   1      22.474  12.153  10.773  0.00  0.00     0.157 HD
ENDBRANCH  75  82
ENDBRANCH  59  70
ENDBRANCH  55  56
ENDBRANCH  54  55
ENDBRANCH  50  54
ENDBRANCH  49  50
ENDBRANCH  45  49
ENDBRANCH  44  45
ENDBRANCH   1  44
TORSDOF 40
ENDMDL
