MODEL 1
REMARK VINA RESULT:      -7.1      0.000      0.000
REMARK  5 active torsions:
REMARK  status: ('A' for Active; 'I' for Inactive)
REMARK    1  A    between atoms: C_2  and  N_1 
REMARK    2  A    between atoms: C_2  and  C_3 
REMARK    3  A    between atoms: C_2  and  C_20 
REMARK    4  A    between atoms: C_3  and  C_4 
REMARK    5  A    between atoms: C_20  and  O_21 
ROOT
HETATM    1  C   UNK N   1      34.138  16.755   8.798  0.00  0.00     0.012 A 
HETATM    2  C   UNK N   1      34.602  16.784   7.475  0.00  0.00     0.026 A 
HETATM    3  C   UNK N   1      33.692  16.916   6.426  0.00  0.00     0.016 A 
HETATM    4  C   UNK N   1      32.332  17.050   6.702  0.00  0.00    -0.007 A 
HETATM    5  C   UNK N   1      31.413  17.238   5.667  0.00  0.00     0.014 A 
HETATM    6  C   UNK N   1      30.055  17.410   5.956  0.00  0.00     0.014 A 
HETATM    7  C   UNK N   1      29.613  17.385   7.283  0.00  0.00    -0.007 A 
HETATM    8  C   UNK N   1      30.531  17.181   8.336  0.00  0.00     0.070 A 
HETATM    9  N   UNK N   1      30.088  17.161   9.625  0.00  0.00    -0.363 N 
ATOM     10  HN  UNK N   1      30.757  17.013  10.381  1.00  0.00     0.165 HD
HETATM   11  C   UNK N   1      28.772  17.336   9.926  0.00  0.00     0.088 A 
HETATM   12  C   UNK N   1      27.837  17.547   8.908  0.00  0.00     0.018 A 
HETATM   13  C   UNK N   1      28.263  17.570   7.579  0.00  0.00     0.015 A 
HETATM   14  C   UNK N   1      31.896  17.019   8.047  0.00  0.00     0.070 A 
HETATM   15  N   UNK N   1      32.804  16.867   9.048  0.00  0.00    -0.357 N 
ATOM     16  HN  UNK N   1      32.477  16.835  10.014  1.00  0.00     0.166 HD
ENDROOT
BRANCH   1  17
HETATM   17  C   UNK N   1      35.093  16.748   9.952  0.00  0.00     0.092 C 
BRANCH  17  18
HETATM   18  C   UNK N   1      35.570  15.371  10.397  0.00  0.00     0.178 C 
BRANCH  18  19
HETATM   19  N   UNK N   1      36.896  15.487  10.989  0.00  0.00    -0.417 N 
HETATM   20  H   UNK N   1      37.132  16.189  11.690  0.00  0.00     0.150 HD
HETATM   21  H   UNK N   1      37.621  14.836  10.687  0.00  0.00     0.150 HD
ENDBRANCH  18  19
BRANCH  18  22
HETATM   22  C   UNK N   1      34.600  14.827  11.408  0.00  0.00     0.163 C 
HETATM   23  O   UNK N   1      35.019  14.308  12.430  0.00  0.00    -0.648 OA
BRANCH  22  24
HETATM   24  O   UNK N   1      33.270  14.901  11.199  0.00  0.00    -0.775 OA
HETATM   25  H   UNK N   1      32.775  14.287  10.695  0.00  0.00     0.167 HD
ENDBRANCH  22  24
ENDBRANCH  18  22
ENDBRANCH  17  18
ENDBRANCH   1  17
TORSDOF 5
ENDMDL
MODEL 2
REMARK VINA RESULT:      -7.0      5.375      7.767
REMARK  5 active torsions:
REMARK  status: ('A' for Active; 'I' for Inactive)
REMARK    1  A    between atoms: C_2  and  N_1 
REMARK    2  A    between atoms: C_2  and  C_3 
REMARK    3  A    between atoms: C_2  and  C_20 
REMARK    4  A    between atoms: C_3  and  C_4 
REMARK    5  A    between atoms: C_20  and  O_21 
ROOT
HETATM    1  C   UNK N   1      27.454  18.454   5.781  0.00  0.00     0.012 A 
HETATM    2  C   UNK N   1      28.163  19.271   4.889  0.00  0.00     0.026 A 
HETATM    3  C   UNK N   1      27.482  19.933   3.867  0.00  0.00     0.016 A 
HETATM    4  C   UNK N   1      26.098  19.802   3.761  0.00  0.00    -0.007 A 
HETATM    5  C   UNK N   1      25.393  20.501   2.777  0.00  0.00     0.014 A 
HETATM    6  C   UNK N   1      24.001  20.394   2.702  0.00  0.00     0.014 A 
HETATM    7  C   UNK N   1      23.311  19.579   3.605  0.00  0.00    -0.007 A 
HETATM    8  C   UNK N   1      24.015  18.857   4.593  0.00  0.00     0.070 A 
HETATM    9  N   UNK N   1      23.330  18.067   5.469  0.00  0.00    -0.363 N 
ATOM     10  HN  UNK N   1      23.846  17.548   6.180  1.00  0.00     0.165 HD
HETATM   11  C   UNK N   1      21.975  17.958   5.416  0.00  0.00     0.088 A 
HETATM   12  C   UNK N   1      21.247  18.664   4.455  0.00  0.00     0.018 A 
HETATM   13  C   UNK N   1      21.922  19.479   3.544  0.00  0.00     0.015 A 
HETATM   14  C   UNK N   1      25.412  18.972   4.676  0.00  0.00     0.070 A 
HETATM   15  N   UNK N   1      26.106  18.321   5.649  0.00  0.00    -0.357 N 
ATOM     16  HN  UNK N   1      25.602  17.717   6.298  1.00  0.00     0.166 HD
ENDROOT
BRANCH   1  17
HETATM   17  C   UNK N   1      28.130  17.835   6.966  0.00  0.00     0.092 C 
BRANCH  17  18
HETATM   18  C   UNK N   1      28.390  18.776   8.136  0.00  0.00     0.178 C 
BRANCH  18  19
HETATM   19  N   UNK N   1      27.242  19.655   8.313  0.00  0.00    -0.417 N 
HETATM   20  H   UNK N   1      26.885  19.926   9.229  0.00  0.00     0.150 HD
HETATM   21  H   UNK N   1      26.774  20.015   7.481  0.00  0.00     0.150 HD
ENDBRANCH  18  19
BRANCH  18  22
HETATM   22  C   UNK N   1      28.606  17.955   9.377  0.00  0.00     0.163 C 
HETATM   23  O   UNK N   1      27.800  17.090   9.678  0.00  0.00    -0.648 OA
BRANCH  22  24
HETATM   24  O   UNK N   1      29.679  18.166  10.166  0.00  0.00    -0.775 OA
HETATM   25  H   UNK N   1      30.569  18.072   9.891  0.00  0.00     0.167 HD
ENDBRANCH  22  24
ENDBRANCH  18  22
ENDBRANCH  17  18
ENDBRANCH   1  17
TORSDOF 5
ENDMDL
MODEL 3
REMARK VINA RESULT:      -6.6      5.798      9.763
REMARK  5 active torsions:
REMARK  status: ('A' for Active; 'I' for Inactive)
REMARK    1  A    between atoms: C_2  and  N_1 
REMARK    2  A    between atoms: C_2  and  C_3 
REMARK    3  A    between atoms: C_2  and  C_20 
REMARK    4  A    between atoms: C_3  and  C_4 
REMARK    5  A    between atoms: C_20  and  O_21 
ROOT
HETATM    1  C   UNK N   1      35.089  12.313  13.329  0.00  0.00     0.012 A 
HETATM    2  C   UNK N   1      34.995  10.978  12.911  0.00  0.00     0.026 A 
HETATM    3  C   UNK N   1      34.998   9.954  13.858  0.00  0.00     0.016 A 
HETATM    4  C   UNK N   1      35.063  10.268  15.215  0.00  0.00    -0.007 A 
HETATM    5  C   UNK N   1      35.013   9.258  16.180  0.00  0.00     0.014 A 
HETATM    6  C   UNK N   1      35.041   9.585  17.540  0.00  0.00     0.014 A 
HETATM    7  C   UNK N   1      35.128  10.923  17.938  0.00  0.00    -0.007 A 
HETATM    8  C   UNK N   1      35.195  11.950  16.971  0.00  0.00     0.070 A 
HETATM    9  N   UNK N   1      35.278  13.251  17.371  0.00  0.00    -0.363 N 
ATOM     10  HN  UNK N   1      35.326  13.987  16.667  1.00  0.00     0.165 HD
HETATM   11  C   UNK N   1      35.297  13.587  18.689  0.00  0.00     0.088 A 
HETATM   12  C   UNK N   1      35.226  12.597  19.673  0.00  0.00     0.018 A 
HETATM   13  C   UNK N   1      35.142  11.256  19.291  0.00  0.00     0.015 A 
HETATM   14  C   UNK N   1      35.157  11.623  15.606  0.00  0.00     0.070 A 
HETATM   15  N   UNK N   1      35.174  12.600  14.657  0.00  0.00    -0.357 N 
ATOM     16  HN  UNK N   1      35.252  13.574  14.950  1.00  0.00     0.166 HD
ENDROOT
BRANCH   1  17
HETATM   17  C   UNK N   1      34.956  13.441  12.352  0.00  0.00     0.092 C 
BRANCH  17  18
HETATM   18  C   UNK N   1      36.135  14.404  12.301  0.00  0.00     0.178 C 
BRANCH  18  19
HETATM   19  N   UNK N   1      37.331  13.682  11.887  0.00  0.00    -0.417 N 
HETATM   20  H   UNK N   1      37.540  12.731  12.192  0.00  0.00     0.150 HD
HETATM   21  H   UNK N   1      37.989  14.149  11.263  0.00  0.00     0.150 HD
ENDBRANCH  18  19
BRANCH  18  22
HETATM   22  C   UNK N   1      35.826  15.495  11.314  0.00  0.00     0.163 C 
HETATM   23  O   UNK N   1      34.669  15.700  10.983  0.00  0.00    -0.648 OA
BRANCH  22  24
HETATM   24  O   UNK N   1      36.811  16.248  10.786  0.00  0.00    -0.775 OA
HETATM   25  H   UNK N   1      36.735  17.160  10.584  0.00  0.00     0.167 HD
ENDBRANCH  22  24
ENDBRANCH  18  22
ENDBRANCH  17  18
ENDBRANCH   1  17
TORSDOF 5
ENDMDL
MODEL 4
REMARK VINA RESULT:      -6.6     14.597     16.647
REMARK  5 active torsions:
REMARK  status: ('A' for Active; 'I' for Inactive)
REMARK    1  A    between atoms: C_2  and  N_1 
REMARK    2  A    between atoms: C_2  and  C_3 
REMARK    3  A    between atoms: C_2  and  C_20 
REMARK    4  A    between atoms: C_3  and  C_4 
REMARK    5  A    between atoms: C_20  and  O_21 
ROOT
HETATM    1  C   UNK N   1      28.372  23.898  -5.006  0.00  0.00     0.012 A 
HETATM    2  C   UNK N   1      27.290  23.403  -5.748  0.00  0.00     0.026 A 
HETATM    3  C   UNK N   1      26.166  24.204  -5.949  0.00  0.00     0.016 A 
HETATM    4  C   UNK N   1      26.141  25.501  -5.439  0.00  0.00    -0.007 A 
HETATM    5  C   UNK N   1      25.046  26.337  -5.678  0.00  0.00     0.014 A 
HETATM    6  C   UNK N   1      25.046  27.649  -5.196  0.00  0.00     0.014 A 
HETATM    7  C   UNK N   1      26.138  28.127  -4.464  0.00  0.00    -0.007 A 
HETATM    8  C   UNK N   1      27.243  27.287  -4.204  0.00  0.00     0.070 A 
HETATM    9  N   UNK N   1      28.303  27.765  -3.491  0.00  0.00    -0.363 N 
ATOM     10  HN  UNK N   1      29.098  27.152  -3.307  1.00  0.00     0.165 HD
HETATM   11  C   UNK N   1      28.324  29.042  -3.022  0.00  0.00     0.088 A 
HETATM   12  C   UNK N   1      27.251  29.902  -3.267  0.00  0.00     0.018 A 
HETATM   13  C   UNK N   1      26.151  29.439  -3.992  0.00  0.00     0.015 A 
HETATM   14  C   UNK N   1      27.248  25.972  -4.697  0.00  0.00     0.070 A 
HETATM   15  N   UNK N   1      28.322  25.160  -4.498  0.00  0.00    -0.357 N 
ATOM     16  HN  UNK N   1      29.111  25.506  -3.952  1.00  0.00     0.166 HD
ENDROOT
BRANCH   1  17
HETATM   17  C   UNK N   1      29.645  23.118  -4.882  0.00  0.00     0.092 C 
BRANCH  17  18
HETATM   18  C   UNK N   1      29.823  22.362  -3.570  0.00  0.00     0.178 C 
BRANCH  18  19
HETATM   19  N   UNK N   1      30.711  21.227  -3.784  0.00  0.00    -0.417 N 
HETATM   20  H   UNK N   1      30.508  20.480  -4.448  0.00  0.00     0.150 HD
HETATM   21  H   UNK N   1      31.575  21.178  -3.244  0.00  0.00     0.150 HD
ENDBRANCH  18  19
BRANCH  18  22
HETATM   22  C   UNK N   1      30.417  23.295  -2.552  0.00  0.00     0.163 C 
HETATM   23  O   UNK N   1      30.474  22.956  -1.382  0.00  0.00    -0.648 OA
BRANCH  22  24
HETATM   24  O   UNK N   1      30.884  24.507  -2.915  0.00  0.00    -0.775 OA
HETATM   25  H   UNK N   1      30.701  24.925  -3.733  0.00  0.00     0.167 HD
ENDBRANCH  22  24
ENDBRANCH  18  22
ENDBRANCH  17  18
ENDBRANCH   1  17
TORSDOF 5
ENDMDL
MODEL 5
REMARK VINA RESULT:      -6.4     14.274     16.253
REMARK  5 active torsions:
REMARK  status: ('A' for Active; 'I' for Inactive)
REMARK    1  A    between atoms: C_2  and  N_1 
REMARK    2  A    between atoms: C_2  and  C_3 
REMARK    3  A    between atoms: C_2  and  C_20 
REMARK    4  A    between atoms: C_3  and  C_4 
REMARK    5  A    between atoms: C_20  and  O_21 
ROOT
HETATM    1  C   UNK N   1      29.388  23.049  -5.398  0.00  0.00     0.012 A 
HETATM    2  C   UNK N   1      28.941  22.448  -6.584  0.00  0.00     0.026 A 
HETATM    3  C   UNK N   1      27.804  22.942  -7.224  0.00  0.00     0.016 A 
HETATM    4  C   UNK N   1      27.140  24.048  -6.697  0.00  0.00    -0.007 A 
HETATM    5  C   UNK N   1      26.031  24.589  -7.353  0.00  0.00     0.014 A 
HETATM    6  C   UNK N   1      25.394  25.723  -6.838  0.00  0.00     0.014 A 
HETATM    7  C   UNK N   1      25.859  26.312  -5.657  0.00  0.00    -0.007 A 
HETATM    8  C   UNK N   1      26.969  25.764  -4.977  0.00  0.00     0.070 A 
HETATM    9  N   UNK N   1      27.414  26.348  -3.828  0.00  0.00    -0.363 N 
ATOM     10  HN  UNK N   1      28.216  25.947  -3.342  1.00  0.00     0.165 HD
HETATM   11  C   UNK N   1      26.812  27.456  -3.317  0.00  0.00     0.088 A 
HETATM   12  C   UNK N   1      25.715  28.028  -3.968  0.00  0.00     0.018 A 
HETATM   13  C   UNK N   1      25.237  27.449  -5.145  0.00  0.00     0.015 A 
HETATM   14  C   UNK N   1      27.615  24.632  -5.500  0.00  0.00     0.070 A 
HETATM   15  N   UNK N   1      28.715  24.115  -4.886  0.00  0.00    -0.357 N 
ATOM     16  HN  UNK N   1      29.043  24.538  -4.018  1.00  0.00     0.166 HD
ENDROOT
BRANCH   1  17
HETATM   17  C   UNK N   1      30.676  22.630  -4.758  0.00  0.00     0.092 C 
BRANCH  17  18
HETATM   18  C   UNK N   1      30.554  21.554  -3.687  0.00  0.00     0.178 C 
BRANCH  18  19
HETATM   19  N   UNK N   1      31.149  20.317  -4.176  0.00  0.00    -0.417 N 
HETATM   20  H   UNK N   1      31.343  19.517  -3.574  0.00  0.00     0.150 HD
HETATM   21  H   UNK N   1      31.382  20.249  -5.167  0.00  0.00     0.150 HD
ENDBRANCH  18  19
BRANCH  18  22
HETATM   22  C   UNK N   1      31.274  22.017  -2.451  0.00  0.00     0.163 C 
HETATM   23  O   UNK N   1      30.824  22.948  -1.802  0.00  0.00    -0.648 OA
BRANCH  22  24
HETATM   24  O   UNK N   1      32.415  21.420  -2.051  0.00  0.00    -0.775 OA
HETATM   25  H   UNK N   1      33.267  21.803  -2.114  0.00  0.00     0.167 HD
ENDBRANCH  22  24
ENDBRANCH  18  22
ENDBRANCH  17  18
ENDBRANCH   1  17
TORSDOF 5
ENDMDL
MODEL 6
REMARK VINA RESULT:      -6.4      2.973      4.456
REMARK  5 active torsions:
REMARK  status: ('A' for Active; 'I' for Inactive)
REMARK    1  A    between atoms: C_2  and  N_1 
REMARK    2  A    between atoms: C_2  and  C_3 
REMARK    3  A    between atoms: C_2  and  C_20 
REMARK    4  A    between atoms: C_3  and  C_4 
REMARK    5  A    between atoms: C_20  and  O_21 
ROOT
HETATM    1  C   UNK N   1      31.507  17.142   7.828  0.00  0.00     0.012 A 
HETATM    2  C   UNK N   1      30.700  17.946   8.646  0.00  0.00     0.026 A 
HETATM    3  C   UNK N   1      29.429  18.321   8.208  0.00  0.00     0.016 A 
HETATM    4  C   UNK N   1      28.960  17.868   6.976  0.00  0.00    -0.007 A 
HETATM    5  C   UNK N   1      27.670  18.189   6.547  0.00  0.00     0.014 A 
HETATM    6  C   UNK N   1      27.193  17.698   5.327  0.00  0.00     0.014 A 
HETATM    7  C   UNK N   1      28.011  16.892   4.529  0.00  0.00    -0.007 A 
HETATM    8  C   UNK N   1      29.322  16.574   4.946  0.00  0.00     0.070 A 
HETATM    9  N   UNK N   1      30.109  15.785   4.160  0.00  0.00    -0.363 N 
ATOM     10  HN  UNK N   1      31.056  15.560   4.467  1.00  0.00     0.165 HD
HETATM   11  C   UNK N   1      29.659  15.291   2.974  0.00  0.00     0.088 A 
HETATM   12  C   UNK N   1      28.365  15.581   2.534  0.00  0.00     0.018 A 
HETATM   13  C   UNK N   1      27.538  16.387   3.318  0.00  0.00     0.015 A 
HETATM   14  C   UNK N   1      29.797  17.058   6.175  0.00  0.00     0.070 A 
HETATM   15  N   UNK N   1      31.041  16.726   6.619  0.00  0.00    -0.357 N 
ATOM     16  HN  UNK N   1      31.641  16.150   6.028  1.00  0.00     0.166 HD
ENDROOT
BRANCH   1  17
HETATM   17  C   UNK N   1      32.820  16.613   8.318  0.00  0.00     0.092 C 
BRANCH  17  18
HETATM   18  C   UNK N   1      33.688  17.613   9.072  0.00  0.00     0.178 C 
BRANCH  18  19
HETATM   19  N   UNK N   1      34.502  16.905  10.051  0.00  0.00    -0.417 N 
HETATM   20  H   UNK N   1      34.742  17.296  10.961  0.00  0.00     0.150 HD
HETATM   21  H   UNK N   1      34.848  15.975   9.813  0.00  0.00     0.150 HD
ENDBRANCH  18  19
BRANCH  18  22
HETATM   22  C   UNK N   1      34.571  18.326   8.086  0.00  0.00     0.163 C 
HETATM   23  O   UNK N   1      35.290  19.236   8.466  0.00  0.00    -0.648 OA
BRANCH  22  24
HETATM   24  O   UNK N   1      34.577  17.974   6.785  0.00  0.00    -0.775 OA
HETATM   25  H   UNK N   1      34.289  18.523   6.083  0.00  0.00     0.167 HD
ENDBRANCH  22  24
ENDBRANCH  18  22
ENDBRANCH  17  18
ENDBRANCH   1  17
TORSDOF 5
ENDMDL
MODEL 7
REMARK VINA RESULT:      -6.3      7.823     11.159
REMARK  5 active torsions:
REMARK  status: ('A' for Active; 'I' for Inactive)
REMARK    1  A    between atoms: C_2  and  N_1 
REMARK    2  A    between atoms: C_2  and  C_3 
REMARK    3  A    between atoms: C_2  and  C_20 
REMARK    4  A    between atoms: C_3  and  C_4 
REMARK    5  A    between atoms: C_20  and  O_21 
ROOT
HETATM    1  C   UNK N   1      22.186  17.632   5.557  0.00  0.00     0.012 A 
HETATM    2  C   UNK N   1      21.362  18.232   4.593  0.00  0.00     0.026 A 
HETATM    3  C   UNK N   1      21.905  19.148   3.692  0.00  0.00     0.016 A 
HETATM    4  C   UNK N   1      23.268  19.436   3.737  0.00  0.00    -0.007 A 
HETATM    5  C   UNK N   1      23.840  20.310   2.807  0.00  0.00     0.014 A 
HETATM    6  C   UNK N   1      25.215  20.563   2.835  0.00  0.00     0.014 A 
HETATM    7  C   UNK N   1      26.021  19.950   3.800  0.00  0.00    -0.007 A 
HETATM    8  C   UNK N   1      25.452  19.077   4.753  0.00  0.00     0.070 A 
HETATM    9  N   UNK N   1      26.249  18.484   5.687  0.00  0.00    -0.363 N 
ATOM     10  HN  UNK N   1      25.830  17.855   6.373  1.00  0.00     0.165 HD
HETATM   11  C   UNK N   1      27.590  18.712   5.724  0.00  0.00     0.088 A 
HETATM   12  C   UNK N   1      28.187  19.564   4.791  0.00  0.00     0.018 A 
HETATM   13  C   UNK N   1      27.395  20.187   3.825  0.00  0.00     0.015 A 
HETATM   14  C   UNK N   1      24.073  18.814   4.719  0.00  0.00     0.070 A 
HETATM   15  N   UNK N   1      23.510  17.941   5.599  0.00  0.00    -0.357 N 
ATOM     16  HN  UNK N   1      24.098  17.506   6.310  1.00  0.00     0.166 HD
ENDROOT
BRANCH   1  17
HETATM   17  C   UNK N   1      21.666  16.549   6.452  0.00  0.00     0.092 C 
BRANCH  17  18
HETATM   18  C   UNK N   1      20.163  16.572   6.701  0.00  0.00     0.178 C 
BRANCH  18  19
HETATM   19  N   UNK N   1      19.560  15.379   6.124  0.00  0.00    -0.417 N 
HETATM   20  H   UNK N   1      18.755  15.409   5.498  0.00  0.00     0.150 HD
HETATM   21  H   UNK N   1      19.960  14.470   6.358  0.00  0.00     0.150 HD
ENDBRANCH  18  19
BRANCH  18  22
HETATM   22  C   UNK N   1      19.920  16.606   8.185  0.00  0.00     0.163 C 
HETATM   23  O   UNK N   1      20.314  17.557   8.840  0.00  0.00    -0.648 OA
BRANCH  22  24
HETATM   24  O   UNK N   1      19.275  15.596   8.802  0.00  0.00    -0.775 OA
HETATM   25  H   UNK N   1      18.723  15.696   9.552  0.00  0.00     0.167 HD
ENDBRANCH  22  24
ENDBRANCH  18  22
ENDBRANCH  17  18
ENDBRANCH   1  17
TORSDOF 5
ENDMDL
MODEL 8
REMARK VINA RESULT:      -6.2      8.707     11.930
REMARK  5 active torsions:
REMARK  status: ('A' for Active; 'I' for Inactive)
REMARK    1  A    between atoms: C_2  and  N_1 
REMARK    2  A    between atoms: C_2  and  C_3 
REMARK    3  A    between atoms: C_2  and  C_20 
REMARK    4  A    between atoms: C_3  and  C_4 
REMARK    5  A    between atoms: C_20  and  O_21 
ROOT
HETATM    1  C   UNK N   1      22.224  17.895   3.623  0.00  0.00     0.012 A 
HETATM    2  C   UNK N   1      22.290  16.506   3.440  0.00  0.00     0.026 A 
HETATM    3  C   UNK N   1      23.521  15.856   3.528  0.00  0.00     0.016 A 
HETATM    4  C   UNK N   1      24.669  16.587   3.829  0.00  0.00    -0.007 A 
HETATM    5  C   UNK N   1      25.902  15.943   3.974  0.00  0.00     0.014 A 
HETATM    6  C   UNK N   1      27.041  16.679   4.314  0.00  0.00     0.014 A 
HETATM    7  C   UNK N   1      26.954  18.062   4.499  0.00  0.00    -0.007 A 
HETATM    8  C   UNK N   1      25.717  18.725   4.339  0.00  0.00     0.070 A 
HETATM    9  N   UNK N   1      25.643  20.074   4.525  0.00  0.00    -0.363 N 
ATOM     10  HN  UNK N   1      24.746  20.545   4.407  1.00  0.00     0.165 HD
HETATM   11  C   UNK N   1      26.740  20.804   4.864  0.00  0.00     0.088 A 
HETATM   12  C   UNK N   1      27.978  20.180   5.037  0.00  0.00     0.018 A 
HETATM   13  C   UNK N   1      28.083  18.800   4.851  0.00  0.00     0.015 A 
HETATM   14  C   UNK N   1      24.570  17.985   4.009  0.00  0.00     0.070 A 
HETATM   15  N   UNK N   1      23.358  18.596   3.895  0.00  0.00    -0.357 N 
ATOM     16  HN  UNK N   1      23.299  19.607   4.017  1.00  0.00     0.166 HD
ENDROOT
BRANCH   1  17
HETATM   17  C   UNK N   1      20.906  18.607   3.667  0.00  0.00     0.092 C 
BRANCH  17  18
HETATM   18  C   UNK N   1      20.319  18.980   2.311  0.00  0.00     0.178 C 
BRANCH  18  19
HETATM   19  N   UNK N   1      18.866  18.994   2.401  0.00  0.00    -0.417 N 
HETATM   20  H   UNK N   1      18.364  19.175   3.270  0.00  0.00     0.150 HD
HETATM   21  H   UNK N   1      18.325  18.813   1.555  0.00  0.00     0.150 HD
ENDBRANCH  18  19
BRANCH  18  22
HETATM   22  C   UNK N   1      20.824  20.343   1.925  0.00  0.00     0.163 C 
HETATM   23  O   UNK N   1      21.156  20.560   0.771  0.00  0.00    -0.648 OA
BRANCH  22  24
HETATM   24  O   UNK N   1      20.918  21.329   2.839  0.00  0.00    -0.775 OA
HETATM   25  H   UNK N   1      20.721  22.229   2.674  0.00  0.00     0.167 HD
ENDBRANCH  22  24
ENDBRANCH  18  22
ENDBRANCH  17  18
ENDBRANCH   1  17
TORSDOF 5
ENDMDL
MODEL 9
REMARK VINA RESULT:      -6.0     14.403     17.021
REMARK  5 active torsions:
REMARK  status: ('A' for Active; 'I' for Inactive)
REMARK    1  A    between atoms: C_2  and  N_1 
REMARK    2  A    between atoms: C_2  and  C_3 
REMARK    3  A    between atoms: C_2  and  C_20 
REMARK    4  A    between atoms: C_3  and  C_4 
REMARK    5  A    between atoms: C_20  and  O_21 
ROOT
HETATM    1  C   UNK N   1      26.650  24.194  -6.022  0.00  0.00     0.012 A 
HETATM    2  C   UNK N   1      26.426  23.533  -7.239  0.00  0.00     0.026 A 
HETATM    3  C   UNK N   1      27.290  22.515  -7.642  0.00  0.00     0.016 A 
HETATM    4  C   UNK N   1      28.350  22.141  -6.818  0.00  0.00    -0.007 A 
HETATM    5  C   UNK N   1      29.193  21.087  -7.181  0.00  0.00     0.014 A 
HETATM    6  C   UNK N   1      30.231  20.693  -6.330  0.00  0.00     0.014 A 
HETATM    7  C   UNK N   1      30.434  21.360  -5.117  0.00  0.00    -0.007 A 
HETATM    8  C   UNK N   1      29.598  22.436  -4.748  0.00  0.00     0.070 A 
HETATM    9  N   UNK N   1      29.804  23.077  -3.562  0.00  0.00    -0.363 N 
ATOM     10  HN  UNK N   1      29.196  23.853  -3.302  1.00  0.00     0.165 HD
HETATM   11  C   UNK N   1      30.803  22.701  -2.718  0.00  0.00     0.088 A 
HETATM   12  C   UNK N   1      31.645  21.636  -3.049  0.00  0.00     0.018 A 
HETATM   13  C   UNK N   1      31.458  20.964  -4.258  0.00  0.00     0.015 A 
HETATM   14  C   UNK N   1      28.549  22.825  -5.597  0.00  0.00     0.070 A 
HETATM   15  N   UNK N   1      27.702  23.829  -5.240  0.00  0.00    -0.357 N 
ATOM     16  HN  UNK N   1      27.861  24.323  -4.361  1.00  0.00     0.166 HD
ENDROOT
BRANCH   1  17
HETATM   17  C   UNK N   1      25.671  25.198  -5.496  0.00  0.00     0.092 C 
BRANCH  17  18
HETATM   18  C   UNK N   1      26.277  26.507  -5.005  0.00  0.00     0.178 C 
BRANCH  18  19
HETATM   19  N   UNK N   1      25.530  27.625  -5.566  0.00  0.00    -0.417 N 
HETATM   20  H   UNK N   1      24.943  28.240  -5.003  0.00  0.00     0.150 HD
HETATM   21  H   UNK N   1      25.597  27.799  -6.569  0.00  0.00     0.150 HD
ENDBRANCH  18  19
BRANCH  18  22
HETATM   22  C   UNK N   1      26.203  26.541  -3.504  0.00  0.00     0.163 C 
HETATM   23  O   UNK N   1      26.467  25.536  -2.863  0.00  0.00    -0.648 OA
BRANCH  22  24
HETATM   24  O   UNK N   1      25.846  27.667  -2.855  0.00  0.00    -0.775 OA
HETATM   25  H   UNK N   1      25.018  28.095  -2.948  0.00  0.00     0.167 HD
ENDBRANCH  22  24
ENDBRANCH  18  22
ENDBRANCH  17  18
ENDBRANCH   1  17
TORSDOF 5
ENDMDL
