MODEL 1
REMARK VINA RESULT:      -6.1      0.000      0.000
REMARK  13 active torsions:
REMARK  status: ('A' for Active; 'I' for Inactive)
REMARK    1  A    between atoms: C_4  and  C_3 
REMARK    2  A    between atoms: C_14  and  C_4 
REMARK    3  A    between atoms: C_9  and  C_6 
REMARK    4  A    between atoms: O_17  and  C_6 
REMARK    5  A    between atoms: O_18  and  C_7 
REMARK    6  A    between atoms: C_8  and  O_19 
REMARK    7  A    between atoms: C_11  and  C_9 
REMARK    8  A    between atoms: C_9  and  O_20 
REMARK    9  A    between atoms: C_10  and  N_15 
REMARK   10  A    between atoms: C_12  and  C_11 
REMARK   11  A    between atoms: C_11  and  O_21 
REMARK   12  A    between atoms: C_14  and  C_13 
REMARK   13  A    between atoms: O_23  and  C_13 
ROOT
HETATM    1  C   UNK N   1      36.329  11.809  14.709  0.00  0.00     0.083 C 
HETATM    2  C   UNK N   1      36.887  11.529  13.308  0.00  0.00     0.146 C 
HETATM    3  C   UNK N   1      36.625  12.722  12.329  0.00  0.00     0.143 C 
HETATM    4  C   UNK N   1      35.782  13.818  13.055  0.00  0.00     0.179 C 
HETATM    5  C   UNK N   1      34.857  12.291  14.630  0.00  0.00     0.151 C 
HETATM    6  O   UNK N   1      34.615  13.150  13.514  0.00  0.00    -0.359 OA
ENDROOT
BRANCH   4   7
HETATM    7  C   UNK N   1      35.312  15.068  12.256  0.00  0.00     0.180 C 
BRANCH   7   8
HETATM    8  C   UNK N   1      34.510  14.758  10.962  0.00  0.00     0.173 C 
BRANCH   8   9
HETATM    9  C   UNK N   1      34.828  15.741   9.835  0.00  0.00     0.198 C 
BRANCH   9  10
HETATM   10  O   UNK N   1      34.527  17.054  10.206  0.00  0.00    -0.398 OA
HETATM   11  H   UNK N   1      33.894  17.223  10.920  0.00  0.00     0.209 HD
ENDBRANCH   9  10
ENDBRANCH   8   9
BRANCH   8  12
HETATM   12  O   UNK N   1      33.141  14.832  11.186  0.00  0.00    -0.391 OA
HETATM   13  H   UNK N   1      32.594  14.031  11.184  0.00  0.00     0.210 HD
ENDBRANCH   8  12
ENDBRANCH   7   8
BRANCH   7  14
HETATM   14  O   UNK N   1      36.469  15.760  11.875  0.00  0.00    -0.390 OA
HETATM   15  H   UNK N   1      36.421  16.563  11.334  0.00  0.00     0.210 HD
ENDBRANCH   7  14
ENDBRANCH   4   7
BRANCH   3  16
HETATM   16  N   UNK N   1      37.882  13.217  11.789  0.00  0.00    -0.365 N 
HETATM   17  C   UNK N   1      38.190  13.222  10.528  0.00  0.00     0.107 C 
HETATM   18  C   UNK N   1      37.274  12.677   9.474  0.00  0.00     0.097 C 
ATOM     19  HN  UNK N   1      38.569  13.584  12.446  1.00  0.00     0.161 HD
BRANCH  17  20
HETATM   20  O   UNK N   1      39.381  13.718  10.146  0.00  0.00    -0.350 OA
HETATM   21  H   UNK N   1      39.794  14.547  10.284  0.00  0.00     0.219 HD
ENDBRANCH  17  20
ENDBRANCH   3  16
BRANCH   2  22
HETATM   22  O   UNK N   1      38.250  11.242  13.425  0.00  0.00    -0.393 OA
HETATM   23  H   UNK N   1      39.141  11.626  13.430  0.00  0.00     0.210 HD
ENDBRANCH   2  22
BRANCH   5  24
HETATM   24  C   UNK N   1      34.489  13.094  15.888  0.00  0.00     0.076 C 
BRANCH  24  25
HETATM   25  C   UNK N   1      35.415  12.929  17.049  0.00  0.00    -0.033 C 
HETATM   26  C   UNK N   1      35.205  13.630  18.159  0.00  0.00     0.007 C 
ENDBRANCH  24  25
ENDBRANCH   5  24
BRANCH   5  27
HETATM   27  C   UNK N   1      33.975  11.066  14.488  0.00  0.00     0.176 C 
HETATM   28  O   UNK N   1      33.785  10.327  15.442  0.00  0.00    -0.648 OA
BRANCH  27  29
HETATM   29  O   UNK N   1      33.370  10.796  13.314  0.00  0.00    -0.774 OA
HETATM   30  H   UNK N   1      33.724  10.206  12.679  0.00  0.00     0.167 HD
ENDBRANCH  27  29
ENDBRANCH   5  27
TORSDOF 13
ENDMDL
MODEL 2
REMARK VINA RESULT:      -5.8      3.328      7.102
REMARK  13 active torsions:
REMARK  status: ('A' for Active; 'I' for Inactive)
REMARK    1  A    between atoms: C_4  and  C_3 
REMARK    2  A    between atoms: C_14  and  C_4 
REMARK    3  A    between atoms: C_9  and  C_6 
REMARK    4  A    between atoms: O_17  and  C_6 
REMARK    5  A    between atoms: O_18  and  C_7 
REMARK    6  A    between atoms: C_8  and  O_19 
REMARK    7  A    between atoms: C_11  and  C_9 
REMARK    8  A    between atoms: C_9  and  O_20 
REMARK    9  A    between atoms: C_10  and  N_15 
REMARK   10  A    between atoms: C_12  and  C_11 
REMARK   11  A    between atoms: C_11  and  O_21 
REMARK   12  A    between atoms: C_14  and  C_13 
REMARK   13  A    between atoms: O_23  and  C_13 
ROOT
HETATM    1  C   UNK N   1      32.502  15.449   7.357  0.00  0.00     0.083 C 
HETATM    2  C   UNK N   1      33.229  14.099   7.402  0.00  0.00     0.146 C 
HETATM    3  C   UNK N   1      33.984  13.891   8.757  0.00  0.00     0.143 C 
HETATM    4  C   UNK N   1      33.847  15.175   9.635  0.00  0.00     0.179 C 
HETATM    5  C   UNK N   1      33.454  16.602   7.770  0.00  0.00     0.151 C 
HETATM    6  O   UNK N   1      34.341  16.235   8.828  0.00  0.00    -0.359 OA
ENDROOT
BRANCH   4   7
HETATM    7  C   UNK N   1      34.594  15.247  10.997  0.00  0.00     0.180 C 
BRANCH   7   8
HETATM    8  C   UNK N   1      36.112  14.921  10.933  0.00  0.00     0.173 C 
BRANCH   8   9
HETATM    9  C   UNK N   1      36.583  14.118  12.146  0.00  0.00     0.198 C 
BRANCH   9  10
HETATM   10  O   UNK N   1      36.538  14.885  13.312  0.00  0.00    -0.398 OA
HETATM   11  H   UNK N   1      36.353  14.462  14.165  0.00  0.00     0.209 HD
ENDBRANCH   9  10
ENDBRANCH   8   9
BRANCH   8  12
HETATM   12  O   UNK N   1      36.877  16.079  10.897  0.00  0.00    -0.391 OA
HETATM   13  H   UNK N   1      37.781  16.087  11.249  0.00  0.00     0.210 HD
ENDBRANCH   8  12
ENDBRANCH   7   8
BRANCH   7  14
HETATM   14  O   UNK N   1      33.997  14.296  11.834  0.00  0.00    -0.390 OA
HETATM   15  H   UNK N   1      34.035  14.380  12.800  0.00  0.00     0.210 HD
ENDBRANCH   7  14
ENDBRANCH   4   7
BRANCH   3  16
HETATM   16  N   UNK N   1      33.514  12.682   9.416  0.00  0.00    -0.365 N 
HETATM   17  C   UNK N   1      34.256  11.650   9.676  0.00  0.00     0.107 C 
HETATM   18  C   UNK N   1      35.702  11.579   9.287  0.00  0.00     0.097 C 
ATOM     19  HN  UNK N   1      32.533  12.643   9.691  1.00  0.00     0.161 HD
BRANCH  17  20
HETATM   20  O   UNK N   1      33.710  10.591  10.302  0.00  0.00    -0.350 OA
HETATM   21  H   UNK N   1      32.935  10.092  10.140  0.00  0.00     0.219 HD
ENDBRANCH  17  20
ENDBRANCH   3  16
BRANCH   2  22
HETATM   22  O   UNK N   1      32.294  13.087   7.167  0.00  0.00    -0.393 OA
HETATM   23  H   UNK N   1      31.348  12.870   7.161  0.00  0.00     0.210 HD
ENDBRANCH   2  22
BRANCH   5  24
HETATM   24  C   UNK N   1      32.646  17.808   8.275  0.00  0.00     0.076 C 
BRANCH  24  25
HETATM   25  C   UNK N   1      31.165  17.615   8.320  0.00  0.00    -0.033 C 
HETATM   26  C   UNK N   1      30.415  18.463   9.018  0.00  0.00     0.007 C 
ENDBRANCH  24  25
ENDBRANCH   5  24
BRANCH   5  27
HETATM   27  C   UNK N   1      34.285  16.973   6.558  0.00  0.00     0.176 C 
HETATM   28  O   UNK N   1      34.093  18.029   5.976  0.00  0.00    -0.648 OA
BRANCH  27  29
HETATM   29  O   UNK N   1      35.265  16.151   6.127  0.00  0.00    -0.774 OA
HETATM   30  H   UNK N   1      35.900  16.404   5.487  0.00  0.00     0.167 HD
ENDBRANCH  27  29
ENDBRANCH   5  27
TORSDOF 13
ENDMDL
MODEL 3
REMARK VINA RESULT:      -5.4      6.072      9.723
REMARK  13 active torsions:
REMARK  status: ('A' for Active; 'I' for Inactive)
REMARK    1  A    between atoms: C_4  and  C_3 
REMARK    2  A    between atoms: C_14  and  C_4 
REMARK    3  A    between atoms: C_9  and  C_6 
REMARK    4  A    between atoms: O_17  and  C_6 
REMARK    5  A    between atoms: O_18  and  C_7 
REMARK    6  A    between atoms: C_8  and  O_19 
REMARK    7  A    between atoms: C_11  and  C_9 
REMARK    8  A    between atoms: C_9  and  O_20 
REMARK    9  A    between atoms: C_10  and  N_15 
REMARK   10  A    between atoms: C_12  and  C_11 
REMARK   11  A    between atoms: C_11  and  O_21 
REMARK   12  A    between atoms: C_14  and  C_13 
REMARK   13  A    between atoms: O_23  and  C_13 
ROOT
HETATM    1  C   UNK N   1      29.161  18.142   7.735  0.00  0.00     0.083 C 
HETATM    2  C   UNK N   1      30.058  17.309   8.659  0.00  0.00     0.146 C 
HETATM    3  C   UNK N   1      31.401  16.912   7.960  0.00  0.00     0.143 C 
HETATM    4  C   UNK N   1      31.389  17.411   6.481  0.00  0.00     0.179 C 
HETATM    5  C   UNK N   1      29.013  17.462   6.350  0.00  0.00     0.151 C 
HETATM    6  O   UNK N   1      30.221  16.844   5.904  0.00  0.00    -0.359 OA
ENDROOT
BRANCH   4   7
HETATM    7  C   UNK N   1      32.583  17.054   5.549  0.00  0.00     0.180 C 
BRANCH   7   8
HETATM    8  C   UNK N   1      33.047  15.574   5.613  0.00  0.00     0.173 C 
BRANCH   8   9
HETATM    9  C   UNK N   1      34.487  15.398   5.130  0.00  0.00     0.198 C 
BRANCH   9  10
HETATM   10  O   UNK N   1      35.403  15.688   6.143  0.00  0.00    -0.398 OA
HETATM   11  H   UNK N   1      35.126  15.652   7.072  0.00  0.00     0.209 HD
ENDBRANCH   9  10
ENDBRANCH   8   9
BRANCH   8  12
HETATM   12  O   UNK N   1      32.254  14.759   4.815  0.00  0.00    -0.391 OA
HETATM   13  H   UNK N   1      32.027  15.022   3.910  0.00  0.00     0.210 HD
ENDBRANCH   8  12
ENDBRANCH   7   8
BRANCH   7  14
HETATM   14  O   UNK N   1      33.661  17.850   5.955  0.00  0.00    -0.390 OA
HETATM   15  H   UNK N   1      33.666  18.808   5.804  0.00  0.00     0.210 HD
ENDBRANCH   7  14
ENDBRANCH   4   7
BRANCH   3  16
HETATM   16  N   UNK N   1      32.535  17.401   8.731  0.00  0.00    -0.365 N 
HETATM   17  C   UNK N   1      33.445  16.644   9.262  0.00  0.00     0.107 C 
HETATM   18  C   UNK N   1      33.407  15.149   9.163  0.00  0.00     0.097 C 
ATOM     19  HN  UNK N   1      32.618  18.408   8.864  1.00  0.00     0.161 HD
BRANCH  17  20
HETATM   20  O   UNK N   1      34.455  17.214   9.945  0.00  0.00    -0.350 OA
HETATM   21  H   UNK N   1      35.371  17.293   9.769  0.00  0.00     0.219 HD
ENDBRANCH  17  20
ENDBRANCH   3  16
BRANCH   2  22
HETATM   22  O   UNK N   1      30.277  18.034   9.834  0.00  0.00    -0.393 OA
HETATM   23  H   UNK N   1      30.538  17.969  10.766  0.00  0.00     0.210 HD
ENDBRANCH   2  22
BRANCH   5  24
HETATM   24  C   UNK N   1      28.632  18.500   5.282  0.00  0.00     0.076 C 
BRANCH  24  25
HETATM   25  C   UNK N   1      27.816  19.653   5.770  0.00  0.00    -0.033 C 
HETATM   26  C   UNK N   1      27.217  20.450   4.889  0.00  0.00     0.007 C 
ENDBRANCH  24  25
ENDBRANCH   5  24
BRANCH   5  27
HETATM   27  C   UNK N   1      27.947  16.391   6.471  0.00  0.00     0.176 C 
HETATM   28  O   UNK N   1      28.040  15.350   5.840  0.00  0.00    -0.648 OA
BRANCH  27  29
HETATM   29  O   UNK N   1      26.897  16.567   7.300  0.00  0.00    -0.774 OA
HETATM   30  H   UNK N   1      26.206  17.175   7.129  0.00  0.00     0.167 HD
ENDBRANCH  27  29
ENDBRANCH   5  27
TORSDOF 13
ENDMDL
MODEL 4
REMARK VINA RESULT:      -5.3     13.757     16.562
REMARK  13 active torsions:
REMARK  status: ('A' for Active; 'I' for Inactive)
REMARK    1  A    between atoms: C_4  and  C_3 
REMARK    2  A    between atoms: C_14  and  C_4 
REMARK    3  A    between atoms: C_9  and  C_6 
REMARK    4  A    between atoms: O_17  and  C_6 
REMARK    5  A    between atoms: O_18  and  C_7 
REMARK    6  A    between atoms: C_8  and  O_19 
REMARK    7  A    between atoms: C_11  and  C_9 
REMARK    8  A    between atoms: C_9  and  O_20 
REMARK    9  A    between atoms: C_10  and  N_15 
REMARK   10  A    between atoms: C_12  and  C_11 
REMARK   11  A    between atoms: C_11  and  O_21 
REMARK   12  A    between atoms: C_14  and  C_13 
REMARK   13  A    between atoms: O_23  and  C_13 
ROOT
HETATM    1  C   UNK N   1      22.225  16.681   6.447  0.00  0.00     0.083 C 
HETATM    2  C   UNK N   1      20.831  17.253   6.730  0.00  0.00     0.146 C 
HETATM    3  C   UNK N   1      20.168  16.578   7.977  0.00  0.00     0.143 C 
HETATM    4  C   UNK N   1      21.098  15.445   8.514  0.00  0.00     0.179 C 
HETATM    5  C   UNK N   1      22.191  15.131   6.423  0.00  0.00     0.151 C 
HETATM    6  O   UNK N   1      21.314  14.581   7.407  0.00  0.00    -0.359 OA
ENDROOT
BRANCH   4   7
HETATM    7  C   UNK N   1      20.612  14.561   9.699  0.00  0.00     0.180 C 
BRANCH   7   8
HETATM    8  C   UNK N   1      21.257  13.151   9.774  0.00  0.00     0.173 C 
BRANCH   8   9
HETATM    9  C   UNK N   1      20.784  12.363  10.996  0.00  0.00     0.198 C 
BRANCH   9  10
HETATM   10  O   UNK N   1      21.862  11.819  11.700  0.00  0.00    -0.398 OA
HETATM   11  H   UNK N   1      22.752  11.843  11.317  0.00  0.00     0.209 HD
ENDBRANCH   9  10
ENDBRANCH   8   9
BRANCH   8  12
HETATM   12  O   UNK N   1      22.641  13.231   9.860  0.00  0.00    -0.391 OA
HETATM   13  H   UNK N   1      23.197  13.042   9.088  0.00  0.00     0.210 HD
ENDBRANCH   8  12
ENDBRANCH   7   8
BRANCH   7  14
HETATM   14  O   UNK N   1      19.234  14.383   9.529  0.00  0.00    -0.390 OA
HETATM   15  H   UNK N   1      18.591  14.926  10.012  0.00  0.00     0.210 HD
ENDBRANCH   7  14
ENDBRANCH   4   7
BRANCH   3  16
HETATM   16  N   UNK N   1      19.835  17.581   8.977  0.00  0.00    -0.365 N 
HETATM   17  C   UNK N   1      18.630  17.861   9.366  0.00  0.00     0.107 C 
HETATM   18  C   UNK N   1      17.421  17.185   8.791  0.00  0.00     0.097 C 
ATOM     19  HN  UNK N   1      20.603  18.103   9.399  1.00  0.00     0.161 HD
BRANCH  17  20
HETATM   20  O   UNK N   1      18.447  18.803  10.310  0.00  0.00    -0.350 OA
HETATM   21  H   UNK N   1      18.692  18.850  11.212  0.00  0.00     0.219 HD
ENDBRANCH  17  20
ENDBRANCH   3  16
BRANCH   2  22
HETATM   22  O   UNK N   1      20.945  18.637   6.887  0.00  0.00    -0.393 OA
HETATM   23  H   UNK N   1      21.375  19.343   7.396  0.00  0.00     0.210 HD
ENDBRANCH   2  22
BRANCH   5  24
HETATM   24  C   UNK N   1      23.588  14.560   6.714  0.00  0.00     0.076 C 
BRANCH  24  25
HETATM   25  C   UNK N   1      24.733  15.455   6.365  0.00  0.00    -0.033 C 
HETATM   26  C   UNK N   1      25.905  15.285   6.970  0.00  0.00     0.007 C 
ENDBRANCH  24  25
ENDBRANCH   5  24
BRANCH   5  27
HETATM   27  C   UNK N   1      21.702  14.700   5.054  0.00  0.00     0.176 C 
HETATM   28  O   UNK N   1      22.094  15.272   4.049  0.00  0.00    -0.648 OA
BRANCH  27  29
HETATM   29  O   UNK N   1      20.849  13.662   4.932  0.00  0.00    -0.774 OA
HETATM   30  H   UNK N   1      21.133  12.776   4.823  0.00  0.00     0.167 HD
ENDBRANCH  27  29
ENDBRANCH   5  27
TORSDOF 13
ENDMDL
MODEL 5
REMARK VINA RESULT:      -5.3      2.985      6.769
REMARK  13 active torsions:
REMARK  status: ('A' for Active; 'I' for Inactive)
REMARK    1  A    between atoms: C_4  and  C_3 
REMARK    2  A    between atoms: C_14  and  C_4 
REMARK    3  A    between atoms: C_9  and  C_6 
REMARK    4  A    between atoms: O_17  and  C_6 
REMARK    5  A    between atoms: O_18  and  C_7 
REMARK    6  A    between atoms: C_8  and  O_19 
REMARK    7  A    between atoms: C_11  and  C_9 
REMARK    8  A    between atoms: C_9  and  O_20 
REMARK    9  A    between atoms: C_10  and  N_15 
REMARK   10  A    between atoms: C_12  and  C_11 
REMARK   11  A    between atoms: C_11  and  O_21 
REMARK   12  A    between atoms: C_14  and  C_13 
REMARK   13  A    between atoms: O_23  and  C_13 
ROOT
HETATM    1  C   UNK N   1      33.963  15.356   7.056  0.00  0.00     0.083 C 
HETATM    2  C   UNK N   1      35.367  14.873   6.671  0.00  0.00     0.146 C 
HETATM    3  C   UNK N   1      36.234  14.544   7.931  0.00  0.00     0.143 C 
HETATM    4  C   UNK N   1      35.433  14.897   9.223  0.00  0.00     0.179 C 
HETATM    5  C   UNK N   1      34.040  16.481   8.120  0.00  0.00     0.151 C 
HETATM    6  O   UNK N   1      35.075  16.265   9.081  0.00  0.00    -0.359 OA
ENDROOT
BRANCH   4   7
HETATM    7  C   UNK N   1      36.122  14.745  10.610  0.00  0.00     0.180 C 
BRANCH   7   8
HETATM    8  C   UNK N   1      35.197  14.985  11.834  0.00  0.00     0.173 C 
BRANCH   8   9
HETATM    9  C   UNK N   1      35.569  14.099  13.023  0.00  0.00     0.198 C 
BRANCH   9  10
HETATM   10  O   UNK N   1      36.874  14.349  13.455  0.00  0.00    -0.398 OA
HETATM   11  H   UNK N   1      37.627  14.082  12.904  0.00  0.00     0.209 HD
ENDBRANCH   9  10
ENDBRANCH   8   9
BRANCH   8  12
HETATM   12  O   UNK N   1      33.870  14.709  11.528  0.00  0.00    -0.391 OA
HETATM   13  H   UNK N   1      33.503  14.945  10.662  0.00  0.00     0.210 HD
ENDBRANCH   8  12
ENDBRANCH   7   8
BRANCH   7  14
HETATM   14  O   UNK N   1      37.141  15.705  10.661  0.00  0.00    -0.390 OA
HETATM   15  H   UNK N   1      37.501  16.101   9.852  0.00  0.00     0.210 HD
ENDBRANCH   7  14
ENDBRANCH   4   7
BRANCH   3  16
HETATM   16  N   UNK N   1      36.687  13.162   7.886  0.00  0.00    -0.365 N 
HETATM   17  C   UNK N   1      37.924  12.789   8.005  0.00  0.00     0.107 C 
HETATM   18  C   UNK N   1      39.047  13.767   8.174  0.00  0.00     0.097 C 
ATOM     19  HN  UNK N   1      35.983  12.437   7.749  1.00  0.00     0.161 HD
BRANCH  17  20
HETATM   20  O   UNK N   1      38.220  11.476   7.958  0.00  0.00    -0.350 OA
HETATM   21  H   UNK N   1      39.027  11.014   7.850  0.00  0.00     0.219 HD
ENDBRANCH  17  20
ENDBRANCH   3  16
BRANCH   2  22
HETATM   22  O   UNK N   1      35.237  13.767   5.826  0.00  0.00    -0.393 OA
HETATM   23  H   UNK N   1      35.140  12.802   5.796  0.00  0.00     0.210 HD
ENDBRANCH   2  22
BRANCH   5  24
HETATM   24  C   UNK N   1      32.722  16.564   8.908  0.00  0.00     0.076 C 
BRANCH  24  25
HETATM   25  C   UNK N   1      31.503  16.847   8.091  0.00  0.00    -0.033 C 
HETATM   26  C   UNK N   1      30.682  17.826   8.459  0.00  0.00     0.007 C 
ENDBRANCH  24  25
ENDBRANCH   5  24
BRANCH   5  27
HETATM   27  C   UNK N   1      34.325  17.783   7.398  0.00  0.00     0.176 C 
HETATM   28  O   UNK N   1      34.787  18.738   8.003  0.00  0.00    -0.648 OA
BRANCH  27  29
HETATM   29  O   UNK N   1      34.095  17.891   6.073  0.00  0.00    -0.774 OA
HETATM   30  H   UNK N   1      34.565  18.481   5.519  0.00  0.00     0.167 HD
ENDBRANCH  27  29
ENDBRANCH   5  27
TORSDOF 13
ENDMDL
MODEL 6
REMARK VINA RESULT:      -5.3      7.916     10.223
REMARK  13 active torsions:
REMARK  status: ('A' for Active; 'I' for Inactive)
REMARK    1  A    between atoms: C_4  and  C_3 
REMARK    2  A    between atoms: C_14  and  C_4 
REMARK    3  A    between atoms: C_9  and  C_6 
REMARK    4  A    between atoms: O_17  and  C_6 
REMARK    5  A    between atoms: O_18  and  C_7 
REMARK    6  A    between atoms: C_8  and  O_19 
REMARK    7  A    between atoms: C_11  and  C_9 
REMARK    8  A    between atoms: C_9  and  O_20 
REMARK    9  A    between atoms: C_10  and  N_15 
REMARK   10  A    between atoms: C_12  and  C_11 
REMARK   11  A    between atoms: C_11  and  O_21 
REMARK   12  A    between atoms: C_14  and  C_13 
REMARK   13  A    between atoms: O_23  and  C_13 
ROOT
HETATM    1  C   UNK N   1      32.545  16.653   4.952  0.00  0.00     0.083 C 
HETATM    2  C   UNK N   1      31.263  16.694   4.109  0.00  0.00     0.146 C 
HETATM    3  C   UNK N   1      30.017  17.092   4.967  0.00  0.00     0.143 C 
HETATM    4  C   UNK N   1      30.437  17.242   6.462  0.00  0.00     0.179 C 
HETATM    5  C   UNK N   1      32.331  15.817   6.240  0.00  0.00     0.151 C 
HETATM    6  O   UNK N   1      31.034  16.001   6.810  0.00  0.00    -0.359 OA
ENDROOT
BRANCH   4   7
HETATM    7  C   UNK N   1      29.348  17.544   7.532  0.00  0.00     0.180 C 
BRANCH   7   8
HETATM    8  C   UNK N   1      29.748  17.202   8.993  0.00  0.00     0.173 C 
BRANCH   8   9
HETATM    9  C   UNK N   1      28.649  17.561   9.993  0.00  0.00     0.198 C 
BRANCH   9  10
HETATM   10  O   UNK N   1      27.601  18.246   9.373  0.00  0.00    -0.398 OA
HETATM   11  H   UNK N   1      27.790  18.997   8.789  0.00  0.00     0.209 HD
ENDBRANCH   9  10
ENDBRANCH   8   9
BRANCH   8  12
HETATM   12  O   UNK N   1      30.887  17.897   9.382  0.00  0.00    -0.391 OA
HETATM   13  H   UNK N   1      31.545  18.176   8.726  0.00  0.00     0.210 HD
ENDBRANCH   8  12
ENDBRANCH   7   8
BRANCH   7  14
HETATM   14  O   UNK N   1      28.237  16.756   7.207  0.00  0.00    -0.390 OA
HETATM   15  H   UNK N   1      27.579  17.054   6.559  0.00  0.00     0.210 HD
ENDBRANCH   7  14
ENDBRANCH   4   7
BRANCH   3  16
HETATM   16  N   UNK N   1      29.385  18.281   4.417  0.00  0.00    -0.365 N 
HETATM   17  C   UNK N   1      28.155  18.340   4.009  0.00  0.00     0.107 C 
HETATM   18  C   UNK N   1      27.241  17.151   4.033  0.00  0.00     0.097 C 
ATOM     19  HN  UNK N   1      29.949  19.128   4.346  1.00  0.00     0.161 HD
BRANCH  17  20
HETATM   20  O   UNK N   1      27.677  19.504   3.530  0.00  0.00    -0.350 OA
HETATM   21  H   UNK N   1      27.056  20.118   3.866  0.00  0.00     0.219 HD
ENDBRANCH  17  20
ENDBRANCH   3  16
BRANCH   2  22
HETATM   22  O   UNK N   1      31.464  17.575   3.043  0.00  0.00    -0.393 OA
HETATM   23  H   UNK N   1      31.349  17.699   2.087  0.00  0.00     0.210 HD
ENDBRANCH   2  22
BRANCH   5  24
HETATM   24  C   UNK N   1      33.346  16.227   7.319  0.00  0.00     0.076 C 
BRANCH  24  25
HETATM   25  C   UNK N   1      34.050  17.523   7.078  0.00  0.00    -0.033 C 
HETATM   26  C   UNK N   1      34.285  18.340   8.100  0.00  0.00     0.007 C 
ENDBRANCH  24  25
ENDBRANCH   5  24
BRANCH   5  27
HETATM   27  C   UNK N   1      32.487  14.354   5.874  0.00  0.00     0.176 C 
HETATM   28  O   UNK N   1      31.570  13.569   6.056  0.00  0.00    -0.648 OA
BRANCH  27  29
HETATM   29  O   UNK N   1      33.633  13.911   5.317  0.00  0.00    -0.774 OA
HETATM   30  H   UNK N   1      33.656  13.294   4.613  0.00  0.00     0.167 HD
ENDBRANCH  27  29
ENDBRANCH   5  27
TORSDOF 13
ENDMDL
MODEL 7
REMARK VINA RESULT:      -5.1      3.303      7.310
REMARK  13 active torsions:
REMARK  status: ('A' for Active; 'I' for Inactive)
REMARK    1  A    between atoms: C_4  and  C_3 
REMARK    2  A    between atoms: C_14  and  C_4 
REMARK    3  A    between atoms: C_9  and  C_6 
REMARK    4  A    between atoms: O_17  and  C_6 
REMARK    5  A    between atoms: O_18  and  C_7 
REMARK    6  A    between atoms: C_8  and  O_19 
REMARK    7  A    between atoms: C_11  and  C_9 
REMARK    8  A    between atoms: C_9  and  O_20 
REMARK    9  A    between atoms: C_10  and  N_15 
REMARK   10  A    between atoms: C_12  and  C_11 
REMARK   11  A    between atoms: C_11  and  O_21 
REMARK   12  A    between atoms: C_14  and  C_13 
REMARK   13  A    between atoms: O_23  and  C_13 
ROOT
HETATM    1  C   UNK N   1      34.513  17.602   8.638  0.00  0.00     0.083 C 
HETATM    2  C   UNK N   1      34.791  16.890   9.968  0.00  0.00     0.146 C 
HETATM    3  C   UNK N   1      34.873  15.338   9.790  0.00  0.00     0.143 C 
HETATM    4  C   UNK N   1      34.552  14.964   8.309  0.00  0.00     0.179 C 
HETATM    5  C   UNK N   1      33.309  16.954   7.907  0.00  0.00     0.151 C 
HETATM    6  O   UNK N   1      33.277  15.533   8.046  0.00  0.00    -0.359 OA
ENDROOT
BRANCH   4   7
HETATM    7  C   UNK N   1      34.479  13.463   7.902  0.00  0.00     0.180 C 
BRANCH   7   8
HETATM    8  C   UNK N   1      33.659  12.561   8.865  0.00  0.00     0.173 C 
BRANCH   8   9
HETATM    9  C   UNK N   1      33.480  11.145   8.318  0.00  0.00     0.198 C 
BRANCH   9  10
HETATM   10  O   UNK N   1      32.331  10.541   8.835  0.00  0.00    -0.398 OA
HETATM   11  H   UNK N   1      32.061  10.716   9.750  0.00  0.00     0.209 HD
ENDBRANCH   9  10
ENDBRANCH   8   9
BRANCH   8  12
HETATM   12  O   UNK N   1      32.385  13.073   9.076  0.00  0.00    -0.391 OA
HETATM   13  H   UNK N   1      31.602  12.606   8.745  0.00  0.00     0.210 HD
ENDBRANCH   8  12
ENDBRANCH   7   8
BRANCH   7  14
HETATM   14  O   UNK N   1      35.795  12.984   7.898  0.00  0.00    -0.390 OA
HETATM   15  H   UNK N   1      36.092  12.322   8.542  0.00  0.00     0.210 HD
ENDBRANCH   7  14
ENDBRANCH   4   7
BRANCH   3  16
HETATM   16  N   UNK N   1      36.162  14.844  10.249  0.00  0.00    -0.365 N 
HETATM   17  C   UNK N   1      36.332  14.088  11.290  0.00  0.00     0.107 C 
HETATM   18  C   UNK N   1      35.195  13.659  12.168  0.00  0.00     0.097 C 
ATOM     19  HN  UNK N   1      36.989  15.113   9.717  1.00  0.00     0.161 HD
BRANCH  17  20
HETATM   20  O   UNK N   1      37.575  13.684  11.611  0.00  0.00    -0.350 OA
HETATM   21  H   UNK N   1      38.400  14.127  11.622  0.00  0.00     0.219 HD
ENDBRANCH  17  20
ENDBRANCH   3  16
BRANCH   2  22
HETATM   22  O   UNK N   1      35.967  17.414  10.511  0.00  0.00    -0.393 OA
HETATM   23  H   UNK N   1      36.511  18.214  10.598  0.00  0.00     0.210 HD
ENDBRANCH   2  22
BRANCH   5  24
HETATM   24  C   UNK N   1      33.379  17.244   6.399  0.00  0.00     0.076 C 
BRANCH  24  25
HETATM   25  C   UNK N   1      32.139  16.930   5.626  0.00  0.00    -0.033 C 
HETATM   26  C   UNK N   1      31.987  17.427   4.402  0.00  0.00     0.007 C 
ENDBRANCH  24  25
ENDBRANCH   5  24
BRANCH   5  27
HETATM   27  C   UNK N   1      32.040  17.521   8.511  0.00  0.00     0.176 C 
HETATM   28  O   UNK N   1      31.813  18.719   8.461  0.00  0.00    -0.648 OA
BRANCH  27  29
HETATM   29  O   UNK N   1      31.136  16.702   9.088  0.00  0.00    -0.774 OA
HETATM   30  H   UNK N   1      30.341  17.009   9.474  0.00  0.00     0.167 HD
ENDBRANCH  27  29
ENDBRANCH   5  27
TORSDOF 13
ENDMDL
MODEL 8
REMARK VINA RESULT:      -5.1      7.592     10.453
REMARK  13 active torsions:
REMARK  status: ('A' for Active; 'I' for Inactive)
REMARK    1  A    between atoms: C_4  and  C_3 
REMARK    2  A    between atoms: C_14  and  C_4 
REMARK    3  A    between atoms: C_9  and  C_6 
REMARK    4  A    between atoms: O_17  and  C_6 
REMARK    5  A    between atoms: O_18  and  C_7 
REMARK    6  A    between atoms: C_8  and  O_19 
REMARK    7  A    between atoms: C_11  and  C_9 
REMARK    8  A    between atoms: C_9  and  O_20 
REMARK    9  A    between atoms: C_10  and  N_15 
REMARK   10  A    between atoms: C_12  and  C_11 
REMARK   11  A    between atoms: C_11  and  O_21 
REMARK   12  A    between atoms: C_14  and  C_13 
REMARK   13  A    between atoms: O_23  and  C_13 
ROOT
HETATM    1  C   UNK N   1      32.401  16.296   7.443  0.00  0.00     0.083 C 
HETATM    2  C   UNK N   1      31.528  17.460   7.927  0.00  0.00     0.146 C 
HETATM    3  C   UNK N   1      30.106  17.431   7.274  0.00  0.00     0.143 C 
HETATM    4  C   UNK N   1      30.029  16.263   6.241  0.00  0.00     0.179 C 
HETATM    5  C   UNK N   1      32.384  16.201   5.895  0.00  0.00     0.151 C 
HETATM    6  O   UNK N   1      31.101  16.491   5.337  0.00  0.00    -0.359 OA
ENDROOT
BRANCH   4   7
HETATM    7  C   UNK N   1      28.739  16.086   5.390  0.00  0.00     0.180 C 
BRANCH   7   8
HETATM    8  C   UNK N   1      28.211  17.384   4.719  0.00  0.00     0.173 C 
BRANCH   8   9
HETATM    9  C   UNK N   1      26.711  17.316   4.429  0.00  0.00     0.198 C 
BRANCH   9  10
HETATM   10  O   UNK N   1      25.960  17.717   5.537  0.00  0.00    -0.398 OA
HETATM   11  H   UNK N   1      25.247  18.366   5.430  0.00  0.00     0.209 HD
ENDBRANCH   9  10
ENDBRANCH   8   9
BRANCH   8  12
HETATM   12  O   UNK N   1      28.844  17.620   3.505  0.00  0.00    -0.391 OA
HETATM   13  H   UNK N   1      29.142  18.512   3.268  0.00  0.00     0.210 HD
ENDBRANCH   8  12
ENDBRANCH   7   8
BRANCH   7  14
HETATM   14  O   UNK N   1      27.742  15.629   6.261  0.00  0.00    -0.390 OA
HETATM   15  H   UNK N   1      27.651  14.687   6.472  0.00  0.00     0.210 HD
ENDBRANCH   7  14
ENDBRANCH   4   7
BRANCH   3  16
HETATM   16  N   UNK N   1      29.080  17.368   8.303  0.00  0.00    -0.365 N 
HETATM   17  C   UNK N   1      28.163  18.267   8.485  0.00  0.00     0.107 C 
HETATM   18  C   UNK N   1      28.081  19.513   7.654  0.00  0.00     0.097 C 
ATOM     19  HN  UNK N   1      29.082  16.560   8.926  1.00  0.00     0.161 HD
BRANCH  17  20
HETATM   20  O   UNK N   1      27.257  18.092   9.465  0.00  0.00    -0.350 OA
HETATM   21  H   UNK N   1      26.343  18.287   9.522  0.00  0.00     0.219 HD
ENDBRANCH  17  20
ENDBRANCH   3  16
BRANCH   2  22
HETATM   22  O   UNK N   1      31.461  17.411   9.323  0.00  0.00    -0.393 OA
HETATM   23  H   UNK N   1      31.737  17.848  10.144  0.00  0.00     0.210 HD
ENDBRANCH   2  22
BRANCH   5  24
HETATM   24  C   UNK N   1      32.745  14.777   5.443  0.00  0.00     0.076 C 
BRANCH  24  25
HETATM   25  C   UNK N   1      32.755  13.743   6.522  0.00  0.00    -0.033 C 
HETATM   26  C   UNK N   1      33.740  12.850   6.564  0.00  0.00     0.007 C 
ENDBRANCH  24  25
ENDBRANCH   5  24
BRANCH   5  27
HETATM   27  C   UNK N   1      33.378  17.211   5.358  0.00  0.00     0.176 C 
HETATM   28  O   UNK N   1      34.406  17.453   5.970  0.00  0.00    -0.648 OA
BRANCH  27  29
HETATM   29  O   UNK N   1      33.148  17.833   4.183  0.00  0.00    -0.774 OA
HETATM   30  H   UNK N   1      33.477  17.519   3.365  0.00  0.00     0.167 HD
ENDBRANCH  27  29
ENDBRANCH   5  27
TORSDOF 13
ENDMDL
MODEL 9
REMARK VINA RESULT:      -5.1     19.635     23.207
REMARK  13 active torsions:
REMARK  status: ('A' for Active; 'I' for Inactive)
REMARK    1  A    between atoms: C_4  and  C_3 
REMARK    2  A    between atoms: C_14  and  C_4 
REMARK    3  A    between atoms: C_9  and  C_6 
REMARK    4  A    between atoms: O_17  and  C_6 
REMARK    5  A    between atoms: O_18  and  C_7 
REMARK    6  A    between atoms: C_8  and  O_19 
REMARK    7  A    between atoms: C_11  and  C_9 
REMARK    8  A    between atoms: C_9  and  O_20 
REMARK    9  A    between atoms: C_10  and  N_15 
REMARK   10  A    between atoms: C_12  and  C_11 
REMARK   11  A    between atoms: C_11  and  O_21 
REMARK   12  A    between atoms: C_14  and  C_13 
REMARK   13  A    between atoms: O_23  and  C_13 
ROOT
HETATM    1  C   UNK N   1      27.915  22.238  -6.908  0.00  0.00     0.083 C 
HETATM    2  C   UNK N   1      29.149  22.662  -6.102  0.00  0.00     0.146 C 
HETATM    3  C   UNK N   1      28.779  23.658  -4.953  0.00  0.00     0.143 C 
HETATM    4  C   UNK N   1      27.257  23.998  -5.026  0.00  0.00     0.179 C 
HETATM    5  C   UNK N   1      27.088  23.476  -7.342  0.00  0.00     0.151 C 
HETATM    6  O   UNK N   1      27.047  24.493  -6.341  0.00  0.00    -0.359 OA
ENDROOT
BRANCH   4   7
HETATM    7  C   UNK N   1      26.665  25.045  -4.039  0.00  0.00     0.180 C 
BRANCH   7   8
HETATM    8  C   UNK N   1      27.464  26.372  -3.931  0.00  0.00     0.173 C 
BRANCH   8   9
HETATM    9  C   UNK N   1      26.612  27.518  -3.385  0.00  0.00     0.198 C 
BRANCH   9  10
HETATM   10  O   UNK N   1      25.891  27.122  -2.255  0.00  0.00    -0.398 OA
HETATM   11  H   UNK N   1      26.359  26.798  -1.471  0.00  0.00     0.209 HD
ENDBRANCH   9  10
ENDBRANCH   8   9
BRANCH   8  12
HETATM   12  O   UNK N   1      27.938  26.780  -5.171  0.00  0.00    -0.391 OA
HETATM   13  H   UNK N   1      28.156  26.129  -5.857  0.00  0.00     0.210 HD
ENDBRANCH   8  12
ENDBRANCH   7   8
BRANCH   7  14
HETATM   14  O   UNK N   1      26.668  24.450  -2.772  0.00  0.00    -0.390 OA
HETATM   15  H   UNK N   1      26.171  24.834  -2.033  0.00  0.00     0.210 HD
ENDBRANCH   7  14
ENDBRANCH   4   7
BRANCH   3  16
HETATM   16  N   UNK N   1      29.194  23.120  -3.666  0.00  0.00    -0.365 N 
HETATM   17  C   UNK N   1      30.121  23.634  -2.918  0.00  0.00     0.107 C 
HETATM   18  C   UNK N   1      30.902  24.848  -3.324  0.00  0.00     0.097 C 
ATOM     19  HN  UNK N   1      28.726  22.279  -3.330  1.00  0.00     0.161 HD
BRANCH  17  20
HETATM   20  O   UNK N   1      30.410  23.052  -1.739  0.00  0.00    -0.350 OA
HETATM   21  H   UNK N   1      30.454  23.384  -0.865  0.00  0.00     0.219 HD
ENDBRANCH  17  20
ENDBRANCH   3  16
BRANCH   2  22
HETATM   22  O   UNK N   1      29.774  21.512  -5.613  0.00  0.00    -0.393 OA
HETATM   23  H   UNK N   1      30.631  21.090  -5.440  0.00  0.00     0.210 HD
ENDBRANCH   2  22
BRANCH   5  24
HETATM   24  C   UNK N   1      25.630  23.075  -7.619  0.00  0.00     0.076 C 
BRANCH  24  25
HETATM   25  C   UNK N   1      25.354  21.606  -7.607  0.00  0.00    -0.033 C 
HETATM   26  C   UNK N   1      24.383  21.129  -6.834  0.00  0.00     0.007 C 
ENDBRANCH  24  25
ENDBRANCH   5  24
BRANCH   5  27
HETATM   27  C   UNK N   1      27.738  24.055  -8.583  0.00  0.00     0.176 C 
HETATM   28  O   UNK N   1      28.235  25.170  -8.559  0.00  0.00    -0.648 OA
BRANCH  27  29
HETATM   29  O   UNK N   1      27.798  23.331  -9.720  0.00  0.00    -0.774 OA
HETATM   30  H   UNK N   1      27.989  22.414  -9.734  0.00  0.00     0.167 HD
ENDBRANCH  27  29
ENDBRANCH   5  27
TORSDOF 13
ENDMDL
