MODEL 1
REMARK VINA RESULT:      -5.3      0.000      0.000
REMARK  1 active torsions:
REMARK  status: ('A' for Active; 'I' for Inactive)
REMARK       I    between atoms: C_4  and  N_5 
REMARK    1  A    between atoms: C_8  and  O_9 
ROOT
HETATM    1  C   UNK N   1      20.420  19.561   1.355  0.00  0.00     0.166 A 
HETATM    2  N   UNK N   1      20.094  18.268   1.138  0.00  0.00    -0.173 N 
ATOM      3  HN  UNK N   1      19.867  17.931   0.202  1.00  0.00     0.186 HD
HETATM    4  C   UNK N   1      20.078  17.427   2.217  0.00  0.00     0.679 A 
HETATM    5  N   UNK N   1      19.744  16.071   2.039  0.00  0.00    -0.234 N 
HETATM    6  N   UNK N   1      20.387  17.898   3.475  0.00  0.00    -0.168 N 
ATOM      7  HN  UNK N   1      20.372  17.258   4.270  1.00  0.00     0.186 HD
HETATM    8  C   UNK N   1      20.715  19.211   3.673  0.00  0.00     0.187 A 
HETATM    9  C   UNK N   1      20.725  20.042   2.570  0.00  0.00     0.143 A 
HETATM   10  N   UNK N   1      20.999  21.349   2.448  0.00  0.00    -0.277 N 
HETATM   11  N   UNK N   1      20.855  21.636   1.154  0.00  0.00    -0.020 NA
HETATM   12  N   UNK N   1      20.499  20.552   0.461  0.00  0.00    -0.267 N 
ATOM     13  HN  UNK N   1      20.324  20.493  -0.541  1.00  0.00     0.186 HD
HETATM   14  H   UNK N   1      19.731  15.461   2.811  0.00  0.00     0.174 HD
HETATM   15  H   UNK N   1      19.523  15.733   1.141  0.00  0.00     0.174 HD
HETATM   16  H   UNK N   1      21.256  21.969   3.167  0.00  0.00     0.184 HD
ENDROOT
BRANCH   8  17
HETATM   17  O   UNK N   1      21.017  19.670   4.900  0.00  0.00    -0.344 OA
HETATM   18  H   UNK N   1      21.901  19.901   5.109  0.00  0.00     0.219 HD
ENDBRANCH   8  17
TORSDOF 1
ENDMDL
MODEL 2
REMARK VINA RESULT:      -5.1     10.334     11.510
REMARK  1 active torsions:
REMARK  status: ('A' for Active; 'I' for Inactive)
REMARK       I    between atoms: C_4  and  N_5 
REMARK    1  A    between atoms: C_8  and  O_9 
ROOT
HETATM    1  C   UNK N   1      22.050  13.066  10.307  0.00  0.00     0.166 A 
HETATM    2  N   UNK N   1      23.296  13.406   9.909  0.00  0.00    -0.173 N 
ATOM      3  HN  UNK N   1      23.446  13.979   9.078  1.00  0.00     0.186 HD
HETATM    4  C   UNK N   1      24.348  12.954  10.658  0.00  0.00     0.679 A 
HETATM    5  N   UNK N   1      25.664  13.283  10.281  0.00  0.00    -0.234 N 
HETATM    6  N   UNK N   1      24.128  12.180  11.777  0.00  0.00    -0.168 N 
ATOM      7  HN  UNK N   1      24.922  11.851  12.326  1.00  0.00     0.186 HD
HETATM    8  C   UNK N   1      22.858  11.848  12.163  0.00  0.00     0.187 A 
HETATM    9  C   UNK N   1      21.811  12.315  11.393  0.00  0.00     0.143 A 
HETATM   10  N   UNK N   1      20.485  12.160  11.513  0.00  0.00    -0.277 N 
HETATM   11  N   UNK N   1      19.943  12.825  10.492  0.00  0.00    -0.020 NA
HETATM   12  N   UNK N   1      20.885  13.391   9.736  0.00  0.00    -0.267 N 
ATOM     13  HN  UNK N   1      20.746  13.953   8.898  1.00  0.00     0.186 HD
HETATM   14  H   UNK N   1      26.425  12.960  10.816  0.00  0.00     0.174 HD
HETATM   15  H   UNK N   1      25.823  13.835   9.482  0.00  0.00     0.174 HD
HETATM   16  H   UNK N   1      20.009  11.658  12.213  0.00  0.00     0.184 HD
ENDROOT
BRANCH   8  17
HETATM   17  O   UNK N   1      22.644  11.094  13.255  0.00  0.00    -0.344 OA
HETATM   18  H   UNK N   1      22.799  11.449  14.108  0.00  0.00     0.219 HD
ENDBRANCH   8  17
TORSDOF 1
ENDMDL
MODEL 3
REMARK VINA RESULT:      -5.1     14.558     15.413
REMARK  1 active torsions:
REMARK  status: ('A' for Active; 'I' for Inactive)
REMARK       I    between atoms: C_4  and  N_5 
REMARK    1  A    between atoms: C_8  and  O_9 
ROOT
HETATM    1  C   UNK N   1      33.734  16.168   9.253  0.00  0.00     0.166 A 
HETATM    2  N   UNK N   1      32.877  16.000   8.222  0.00  0.00    -0.173 N 
ATOM      3  HN  UNK N   1      32.264  15.186   8.173  1.00  0.00     0.186 HD
HETATM    4  C   UNK N   1      32.858  16.961   7.248  0.00  0.00     0.679 A 
HETATM    5  N   UNK N   1      31.980  16.828   6.155  0.00  0.00    -0.234 N 
HETATM    6  N   UNK N   1      33.691  18.056   7.330  0.00  0.00    -0.168 N 
ATOM      7  HN  UNK N   1      33.666  18.764   6.595  1.00  0.00     0.186 HD
HETATM    8  C   UNK N   1      34.553  18.207   8.382  0.00  0.00     0.187 A 
HETATM    9  C   UNK N   1      34.555  17.226   9.354  0.00  0.00     0.143 A 
HETATM   10  N   UNK N   1      35.270  17.096  10.480  0.00  0.00    -0.277 N 
HETATM   11  N   UNK N   1      34.868  15.957  11.043  0.00  0.00    -0.020 NA
HETATM   12  N   UNK N   1      33.923  15.368  10.307  0.00  0.00    -0.267 N 
ATOM     13  HN  UNK N   1      33.445  14.490  10.507  1.00  0.00     0.186 HD
HETATM   14  H   UNK N   1      31.963  17.516   5.451  0.00  0.00     0.174 HD
HETATM   15  H   UNK N   1      31.385  16.047   6.096  0.00  0.00     0.174 HD
HETATM   16  H   UNK N   1      35.954  17.716  10.821  0.00  0.00     0.184 HD
ENDROOT
BRANCH   8  17
HETATM   17  O   UNK N   1      35.365  19.274   8.461  0.00  0.00    -0.344 OA
HETATM   18  H   UNK N   1      35.892  19.407   9.225  0.00  0.00     0.219 HD
ENDBRANCH   8  17
TORSDOF 1
ENDMDL
MODEL 4
REMARK VINA RESULT:      -5.1     22.002     22.623
REMARK  1 active torsions:
REMARK  status: ('A' for Active; 'I' for Inactive)
REMARK       I    between atoms: C_4  and  N_5 
REMARK    1  A    between atoms: C_8  and  O_9 
ROOT
HETATM    1  C   UNK N   1      42.616  22.932   2.609  0.00  0.00     0.166 A 
HETATM    2  N   UNK N   1      43.863  23.126   3.092  0.00  0.00    -0.173 N 
ATOM      3  HN  UNK N   1      44.322  24.034   3.018  1.00  0.00     0.186 HD
HETATM    4  C   UNK N   1      44.488  22.061   3.683  0.00  0.00     0.679 A 
HETATM    5  N   UNK N   1      45.788  22.217   4.201  0.00  0.00    -0.234 N 
HETATM    6  N   UNK N   1      43.854  20.841   3.775  0.00  0.00    -0.168 N 
ATOM      7  HN  UNK N   1      44.332  20.057   4.218  1.00  0.00     0.186 HD
HETATM    8  C   UNK N   1      42.591  20.667   3.279  0.00  0.00     0.187 A 
HETATM    9  C   UNK N   1      41.979  21.754   2.687  0.00  0.00     0.143 A 
HETATM   10  N   UNK N   1      40.771  21.891   2.121  0.00  0.00    -0.277 N 
HETATM   11  N   UNK N   1      40.699  23.157   1.709  0.00  0.00    -0.020 NA
HETATM   12  N   UNK N   1      41.822  23.818   1.998  0.00  0.00    -0.267 N 
ATOM     13  HN  UNK N   1      42.031  24.794   1.795  1.00  0.00     0.186 HD
HETATM   14  H   UNK N   1      46.242  21.455   4.627  0.00  0.00     0.174 HD
HETATM   15  H   UNK N   1      46.242  23.087   4.136  0.00  0.00     0.174 HD
HETATM   16  H   UNK N   1      40.078  21.198   2.029  0.00  0.00     0.184 HD
ENDROOT
BRANCH   8  17
HETATM   17  O   UNK N   1      41.972  19.476   3.369  0.00  0.00    -0.344 OA
HETATM   18  H   UNK N   1      42.421  18.742   3.741  0.00  0.00     0.219 HD
ENDBRANCH   8  17
TORSDOF 1
ENDMDL
MODEL 5
REMARK VINA RESULT:      -4.9      1.825      2.275
REMARK  1 active torsions:
REMARK  status: ('A' for Active; 'I' for Inactive)
REMARK       I    between atoms: C_4  and  N_5 
REMARK    1  A    between atoms: C_8  and  O_9 
ROOT
HETATM    1  C   UNK N   1      21.665  19.057   3.164  0.00  0.00     0.166 A 
HETATM    2  N   UNK N   1      21.892  17.771   3.514  0.00  0.00    -0.173 N 
ATOM      3  HN  UNK N   1      22.820  17.459   3.803  1.00  0.00     0.186 HD
HETATM    4  C   UNK N   1      20.834  16.904   3.469  0.00  0.00     0.679 A 
HETATM    5  N   UNK N   1      21.023  15.556   3.826  0.00  0.00    -0.234 N 
HETATM    6  N   UNK N   1      19.587  17.342   3.078  0.00  0.00    -0.168 N 
ATOM      7  HN  UNK N   1      18.809  16.684   3.049  1.00  0.00     0.186 HD
HETATM    8  C   UNK N   1      19.379  18.648   2.726  0.00  0.00     0.187 A 
HETATM    9  C   UNK N   1      20.460  19.506   2.779  0.00  0.00     0.143 A 
HETATM   10  N   UNK N   1      20.568  20.813   2.501  0.00  0.00    -0.277 N 
HETATM   11  N   UNK N   1      21.843  21.132   2.724  0.00  0.00    -0.020 NA
HETATM   12  N   UNK N   1      22.538  20.069   3.132  0.00  0.00    -0.267 N 
ATOM     13  HN  UNK N   1      23.528  20.035   3.371  1.00  0.00     0.186 HD
HETATM   14  H   UNK N   1      20.267  14.927   3.796  0.00  0.00     0.174 HD
HETATM   15  H   UNK N   1      21.913  15.241   4.106  0.00  0.00     0.174 HD
HETATM   16  H   UNK N   1      19.852  21.414   2.195  0.00  0.00     0.184 HD
ENDROOT
BRANCH   8  17
HETATM   17  O   UNK N   1      18.163  19.074   2.344  0.00  0.00    -0.344 OA
HETATM   18  H   UNK N   1      18.017  19.341   1.458  0.00  0.00     0.219 HD
ENDBRANCH   8  17
TORSDOF 1
ENDMDL
MODEL 6
REMARK VINA RESULT:      -4.9      9.601     11.263
REMARK  1 active torsions:
REMARK  status: ('A' for Active; 'I' for Inactive)
REMARK       I    between atoms: C_4  and  N_5 
REMARK    1  A    between atoms: C_8  and  O_9 
ROOT
HETATM    1  C   UNK N   1      23.606  12.684  10.508  0.00  0.00     0.166 A 
HETATM    2  N   UNK N   1      23.306  13.275   9.329  0.00  0.00    -0.173 N 
ATOM      3  HN  UNK N   1      24.040  13.629   8.715  1.00  0.00     0.186 HD
HETATM    4  C   UNK N   1      21.985  13.380   8.989  0.00  0.00     0.679 A 
HETATM    5  N   UNK N   1      21.626  13.988   7.771  0.00  0.00    -0.234 N 
HETATM    6  N   UNK N   1      21.006  12.897   9.830  0.00  0.00    -0.168 N 
ATOM      7  HN  UNK N   1      20.025  12.983   9.562  1.00  0.00     0.186 HD
HETATM    8  C   UNK N   1      21.331  12.302  11.018  0.00  0.00     0.187 A 
HETATM    9  C   UNK N   1      22.670  12.206  11.342  0.00  0.00     0.143 A 
HETATM   10  N   UNK N   1      23.287  11.688  12.413  0.00  0.00    -0.277 N 
HETATM   11  N   UNK N   1      24.593  11.863  12.206  0.00  0.00    -0.020 NA
HETATM   12  N   UNK N   1      24.814  12.474  11.040  0.00  0.00    -0.267 N 
ATOM     13  HN  UNK N   1      25.716  12.728  10.640  1.00  0.00     0.186 HD
HETATM   14  H   UNK N   1      20.677  14.067   7.521  0.00  0.00     0.174 HD
HETATM   15  H   UNK N   1      22.324  14.334   7.170  0.00  0.00     0.174 HD
HETATM   16  H   UNK N   1      22.863  11.264  13.193  0.00  0.00     0.184 HD
ENDROOT
BRANCH   8  17
HETATM   17  O   UNK N   1      20.375  11.830  11.838  0.00  0.00    -0.344 OA
HETATM   18  H   UNK N   1      20.566  11.683  12.743  0.00  0.00     0.219 HD
ENDBRANCH   8  17
TORSDOF 1
ENDMDL
MODEL 7
REMARK VINA RESULT:      -4.9     23.094     23.557
REMARK  1 active torsions:
REMARK  status: ('A' for Active; 'I' for Inactive)
REMARK       I    between atoms: C_4  and  N_5 
REMARK    1  A    between atoms: C_8  and  O_9 
ROOT
HETATM    1  C   UNK N   1      43.293  22.291   3.146  0.00  0.00     0.166 A 
HETATM    2  N   UNK N   1      42.320  21.369   2.981  0.00  0.00    -0.173 N 
ATOM      3  HN  UNK N   1      41.349  21.647   2.832  1.00  0.00     0.186 HD
HETATM    4  C   UNK N   1      42.681  20.049   3.022  0.00  0.00     0.679 A 
HETATM    5  N   UNK N   1      41.700  19.053   2.855  0.00  0.00    -0.234 N 
HETATM    6  N   UNK N   1      43.996  19.690   3.224  0.00  0.00    -0.168 N 
ATOM      7  HN  UNK N   1      44.250  18.703   3.252  1.00  0.00     0.186 HD
HETATM    8  C   UNK N   1      44.967  20.641   3.389  0.00  0.00     0.187 A 
HETATM    9  C   UNK N   1      44.580  21.966   3.345  0.00  0.00     0.143 A 
HETATM   10  N   UNK N   1      45.285  23.099   3.470  0.00  0.00    -0.277 N 
HETATM   11  N   UNK N   1      44.408  24.094   3.345  0.00  0.00    -0.020 NA
HETATM   12  N   UNK N   1      43.176  23.623   3.145  0.00  0.00    -0.267 N 
ATOM     13  HN  UNK N   1      42.322  24.165   3.017  1.00  0.00     0.186 HD
HETATM   14  H   UNK N   1      41.954  18.103   2.883  0.00  0.00     0.174 HD
HETATM   15  H   UNK N   1      40.761  19.308   2.710  0.00  0.00     0.174 HD
HETATM   16  H   UNK N   1      46.254  23.179   3.624  0.00  0.00     0.184 HD
ENDROOT
BRANCH   8  17
HETATM   17  O   UNK N   1      46.249  20.290   3.587  0.00  0.00    -0.344 OA
HETATM   18  H   UNK N   1      46.475  19.717   4.293  0.00  0.00     0.219 HD
ENDBRANCH   8  17
TORSDOF 1
ENDMDL
MODEL 8
REMARK VINA RESULT:      -4.9      0.756      3.420
REMARK  1 active torsions:
REMARK  status: ('A' for Active; 'I' for Inactive)
REMARK       I    between atoms: C_4  and  N_5 
REMARK    1  A    between atoms: C_8  and  O_9 
ROOT
HETATM    1  C   UNK N   1      20.106  17.762   2.064  0.00  0.00     0.166 A 
HETATM    2  N   UNK N   1      20.164  18.671   1.065  0.00  0.00    -0.173 N 
ATOM      3  HN  UNK N   1      19.943  18.412   0.103  1.00  0.00     0.186 HD
HETATM    4  C   UNK N   1      20.528  19.949   1.390  0.00  0.00     0.679 A 
HETATM    5  N   UNK N   1      20.602  20.930   0.383  0.00  0.00    -0.234 N 
HETATM    6  N   UNK N   1      20.823  20.282   2.695  0.00  0.00    -0.168 N 
ATOM      7  HN  UNK N   1      21.093  21.239   2.921  1.00  0.00     0.186 HD
HETATM    8  C   UNK N   1      20.758  19.346   3.691  0.00  0.00     0.187 A 
HETATM    9  C   UNK N   1      20.388  18.063   3.341  0.00  0.00     0.143 A 
HETATM   10  N   UNK N   1      20.238  16.952   4.076  0.00  0.00    -0.277 N 
HETATM   11  N   UNK N   1      19.866  15.995   3.227  0.00  0.00    -0.020 NA
HETATM   12  N   UNK N   1      19.777  16.468   1.982  0.00  0.00    -0.267 N 
ATOM     13  HN  UNK N   1      19.514  15.952   1.144  1.00  0.00     0.186 HD
HETATM   14  H   UNK N   1      20.864  21.851   0.611  0.00  0.00     0.174 HD
HETATM   15  H   UNK N   1      20.392  20.694  -0.549  0.00  0.00     0.174 HD
HETATM   16  H   UNK N   1      20.376  16.862   5.047  0.00  0.00     0.184 HD
ENDROOT
BRANCH   8  17
HETATM   17  O   UNK N   1      21.046  19.671   4.963  0.00  0.00    -0.344 OA
HETATM   18  H   UNK N   1      20.645  20.421   5.357  0.00  0.00     0.219 HD
ENDBRANCH   8  17
TORSDOF 1
ENDMDL
MODEL 9
REMARK VINA RESULT:      -4.8     15.100     15.798
REMARK  1 active torsions:
REMARK  status: ('A' for Active; 'I' for Inactive)
REMARK       I    between atoms: C_4  and  N_5 
REMARK    1  A    between atoms: C_8  and  O_9 
ROOT
HETATM    1  C   UNK N   1      34.213  16.469   9.017  0.00  0.00     0.166 A 
HETATM    2  N   UNK N   1      33.457  15.856   8.079  0.00  0.00    -0.173 N 
ATOM      3  HN  UNK N   1      33.304  16.281   7.164  1.00  0.00     0.186 HD
HETATM    4  C   UNK N   1      32.906  14.644   8.399  0.00  0.00     0.679 A 
HETATM    5  N   UNK N   1      32.112  13.969   7.453  0.00  0.00    -0.234 N 
HETATM    6  N   UNK N   1      33.124  14.083   9.639  0.00  0.00    -0.168 N 
ATOM      7  HN  UNK N   1      32.706  13.180   9.863  1.00  0.00     0.186 HD
HETATM    8  C   UNK N   1      33.892  14.721  10.574  0.00  0.00     0.187 A 
HETATM    9  C   UNK N   1      34.438  15.942  10.230  0.00  0.00     0.143 A 
HETATM   10  N   UNK N   1      35.218  16.789  10.917  0.00  0.00    -0.277 N 
HETATM   11  N   UNK N   1      35.451  17.818  10.102  0.00  0.00    -0.020 NA
HETATM   12  N   UNK N   1      34.844  17.645   8.927  0.00  0.00    -0.267 N 
ATOM     13  HN  UNK N   1      34.857  18.276   8.128  1.00  0.00     0.186 HD
HETATM   14  H   UNK N   1      31.713  13.098   7.678  0.00  0.00     0.174 HD
HETATM   15  H   UNK N   1      31.956  14.368   6.568  0.00  0.00     0.174 HD
HETATM   16  H   UNK N   1      35.551  16.674  11.836  0.00  0.00     0.184 HD
ENDROOT
BRANCH   8  17
HETATM   17  O   UNK N   1      34.104  14.174  11.783  0.00  0.00    -0.344 OA
HETATM   18  H   UNK N   1      34.934  14.278  12.206  0.00  0.00     0.219 HD
ENDBRANCH   8  17
TORSDOF 1
ENDMDL
