MODEL 1
REMARK VINA RESULT:      -7.0      0.000      0.000
REMARK  8 active torsions:
REMARK  status: ('A' for Active; 'I' for Inactive)
REMARK    1  A    between atoms: C_9  and  C_6 
REMARK    2  A    between atoms: C_24  and  C_9 
REMARK    3  A    between atoms: O_32  and  C_16 
REMARK    4  A    between atoms: O_32  and  C_18 
REMARK    5  A    between atoms: C_19  and  C_24 
REMARK    6  A    between atoms: C_27  and  C_23 
REMARK    7  A    between atoms: C_24  and  O_30 
REMARK    8  A    between atoms: C_27  and  O_31 
ROOT
HETATM    1  C   UNK N   1      21.246  19.551   3.400  0.00  0.00     0.310 C 
HETATM    2  C   UNK N   1      20.274  17.125   8.013  0.00  0.00     0.011 C 
HETATM    3  C   UNK N   1      19.993  15.910   8.697  0.00  0.00     0.041 C 
HETATM    4  C   UNK N   1      23.976  16.136   5.899  0.00  0.00    -0.015 C 
HETATM    5  C   UNK N   1      24.345  14.834   5.912  0.00  0.00     0.011 C 
HETATM    6  C   UNK N   1      20.783  15.854   3.726  0.00  0.00     0.048 C 
HETATM    7  C   UNK N   1      20.441  17.335   3.561  0.00  0.00     0.273 C 
HETATM    8  C   UNK N   1      21.499  18.300   6.073  0.00  0.00     0.076 C 
HETATM    9  C   UNK N   1      23.777  16.125   3.495  0.00  0.00     0.028 C 
HETATM   10  C   UNK N   1      20.881  17.083   6.743  0.00  0.00    -0.046 C 
HETATM   11  C   UNK N   1      20.403  14.671   8.131  0.00  0.00     0.113 C 
HETATM   12  C   UNK N   1      23.880  14.559   3.413  0.00  0.00     0.062 C 
HETATM   13  C   UNK N   1      22.424  17.980   4.814  0.00  0.00     0.240 C 
HETATM   14  C   UNK N   1      21.137  15.843   6.195  0.00  0.00    -0.003 A 
HETATM   15  C   UNK N   1      20.985  14.701   6.879  0.00  0.00     0.111 A 
HETATM   16  C   UNK N   1      22.094  14.066   5.031  0.00  0.00     0.182 A 
HETATM   17  C   UNK N   1      23.000  16.513   4.793  0.00  0.00     0.024 C 
HETATM   18  C   UNK N   1      21.757  15.598   4.897  0.00  0.00     0.035 A 
HETATM   19  C   UNK N   1      23.658  13.929   4.868  0.00  0.00     0.112 C 
HETATM   20  N   UNK N   1      21.651  18.162   3.565  0.00  0.00     0.090 N 
HETATM   21  O   UNK N   1      21.543  13.666   6.244  0.00  0.00    -0.338 OA
ENDROOT
BRANCH  12  22
HETATM   22  C   UNK N   1      24.956  14.000   2.444  0.00  0.00     0.061 C 
HETATM   23  C   UNK N   1      25.540  15.167   1.647  0.00  0.00     0.046 C 
BRANCH  22  24
HETATM   24  C   UNK N   1      24.464  12.918   1.482  0.00  0.00     0.037 C 
BRANCH  24  25
HETATM   25  C   UNK N   1      23.637  13.503   0.321  0.00  0.00    -0.002 C 
HETATM   26  C   UNK N   1      22.149  13.204   0.445  0.00  0.00     0.005 C 
ENDBRANCH  24  25
ENDBRANCH  22  24
BRANCH  22  27
HETATM   27  O   UNK N   1      25.993  13.472   3.223  0.00  0.00    -0.390 OA
HETATM   28  H   UNK N   1      25.891  13.261   4.163  0.00  0.00     0.210 HD
ENDBRANCH  22  27
ENDBRANCH  12  22
BRANCH  19  29
HETATM   29  O   UNK N   1      24.105  12.585   4.922  0.00  0.00    -0.378 OA
HETATM   30  C   UNK N   1      24.718  12.319   6.158  0.00  0.00     0.203 C 
ENDBRANCH  19  29
BRANCH  11  31
HETATM   31  O   UNK N   1      20.289  13.475   8.756  0.00  0.00    -0.276 OA
BRANCH  31  32
HETATM   32  C   UNK N   1      20.871  13.098   9.919  0.00  0.00     0.260 C 
HETATM   33  C   UNK N   1      22.334  13.313  10.094  0.00  0.00     0.126 C 
HETATM   34  O   UNK N   1      20.206  12.677  10.853  0.00  0.00    -0.265 OA
ENDBRANCH  31  32
ENDBRANCH  11  31
TORSDOF 8
ENDMDL
MODEL 2
REMARK VINA RESULT:      -6.8     14.285     16.620
REMARK  8 active torsions:
REMARK  status: ('A' for Active; 'I' for Inactive)
REMARK    1  A    between atoms: C_9  and  C_6 
REMARK    2  A    between atoms: C_24  and  C_9 
REMARK    3  A    between atoms: O_32  and  C_16 
REMARK    4  A    between atoms: O_32  and  C_18 
REMARK    5  A    between atoms: C_19  and  C_24 
REMARK    6  A    between atoms: C_27  and  C_23 
REMARK    7  A    between atoms: C_24  and  O_30 
REMARK    8  A    between atoms: C_27  and  O_31 
ROOT
HETATM    1  C   UNK N   1      25.938  23.077  -9.693  0.00  0.00     0.310 C 
HETATM    2  C   UNK N   1      29.642  20.803  -6.658  0.00  0.00     0.011 C 
HETATM    3  C   UNK N   1      30.801  20.966  -5.849  0.00  0.00     0.041 C 
HETATM    4  C   UNK N   1      26.823  23.560  -4.760  0.00  0.00    -0.015 C 
HETATM    5  C   UNK N   1      27.335  24.390  -3.821  0.00  0.00     0.011 C 
HETATM    6  C   UNK N   1      28.590  25.001  -7.890  0.00  0.00     0.048 C 
HETATM    7  C   UNK N   1      27.901  24.186  -8.984  0.00  0.00     0.273 C 
HETATM    8  C   UNK N   1      27.396  21.776  -7.469  0.00  0.00     0.076 C 
HETATM    9  C   UNK N   1      26.167  25.423  -6.145  0.00  0.00     0.028 C 
HETATM   10  C   UNK N   1      28.797  21.906  -6.893  0.00  0.00    -0.046 C 
HETATM   11  C   UNK N   1      31.050  22.216  -5.219  0.00  0.00     0.113 C 
HETATM   12  C   UNK N   1      26.999  26.451  -5.295  0.00  0.00     0.062 C 
HETATM   13  C   UNK N   1      26.491  23.082  -7.338  0.00  0.00     0.240 C 
HETATM   14  C   UNK N   1      29.166  23.122  -6.355  0.00  0.00    -0.003 A 
HETATM   15  C   UNK N   1      30.189  23.258  -5.500  0.00  0.00     0.111 A 
HETATM   16  C   UNK N   1      29.138  25.241  -5.388  0.00  0.00     0.182 A 
HETATM   17  C   UNK N   1      26.939  24.067  -6.191  0.00  0.00     0.024 C 
HETATM   18  C   UNK N   1      28.425  24.371  -6.489  0.00  0.00     0.035 A 
HETATM   19  C   UNK N   1      28.024  25.664  -4.353  0.00  0.00     0.112 C 
HETATM   20  N   UNK N   1      26.526  23.845  -8.605  0.00  0.00     0.090 N 
HETATM   21  O   UNK N   1      30.186  24.459  -4.913  0.00  0.00    -0.338 OA
ENDROOT
BRANCH  12  22
HETATM   22  C   UNK N   1      26.222  27.695  -4.787  0.00  0.00     0.061 C 
HETATM   23  C   UNK N   1      24.815  27.664  -5.385  0.00  0.00     0.046 C 
BRANCH  22  24
HETATM   24  C   UNK N   1      26.879  29.042  -5.094  0.00  0.00     0.037 C 
BRANCH  24  25
HETATM   25  C   UNK N   1      27.789  28.976  -6.336  0.00  0.00    -0.002 C 
HETATM   26  C   UNK N   1      28.995  29.900  -6.237  0.00  0.00     0.005 C 
ENDBRANCH  24  25
ENDBRANCH  22  24
BRANCH  22  27
HETATM   27  O   UNK N   1      26.084  27.569  -3.399  0.00  0.00    -0.390 OA
HETATM   28  H   UNK N   1      26.463  28.204  -2.772  0.00  0.00     0.210 HD
ENDBRANCH  22  27
ENDBRANCH  12  22
BRANCH  19  29
HETATM   29  O   UNK N   1      28.519  26.497  -3.317  0.00  0.00    -0.378 OA
HETATM   30  C   UNK N   1      29.691  27.153  -3.730  0.00  0.00     0.203 C 
ENDBRANCH  19  29
BRANCH  11  31
HETATM   31  O   UNK N   1      32.057  22.437  -4.339  0.00  0.00    -0.276 OA
BRANCH  31  32
HETATM   32  C   UNK N   1      32.254  21.825  -3.147  0.00  0.00     0.260 C 
HETATM   33  C   UNK N   1      33.437  20.938  -2.981  0.00  0.00     0.126 C 
HETATM   34  O   UNK N   1      31.537  22.063  -2.188  0.00  0.00    -0.265 OA
ENDBRANCH  31  32
ENDBRANCH  11  31
TORSDOF 8
ENDMDL
MODEL 3
REMARK VINA RESULT:      -6.7      3.851      6.719
REMARK  8 active torsions:
REMARK  status: ('A' for Active; 'I' for Inactive)
REMARK    1  A    between atoms: C_9  and  C_6 
REMARK    2  A    between atoms: C_24  and  C_9 
REMARK    3  A    between atoms: O_32  and  C_16 
REMARK    4  A    between atoms: O_32  and  C_18 
REMARK    5  A    between atoms: C_19  and  C_24 
REMARK    6  A    between atoms: C_27  and  C_23 
REMARK    7  A    between atoms: C_24  and  O_30 
REMARK    8  A    between atoms: C_27  and  O_31 
ROOT
HETATM    1  C   UNK N   1      24.406  12.135   5.020  0.00  0.00     0.310 C 
HETATM    2  C   UNK N   1      21.430  16.030   3.001  0.00  0.00     0.011 C 
HETATM    3  C   UNK N   1      21.006  17.386   3.083  0.00  0.00     0.041 C 
HETATM    4  C   UNK N   1      25.782  16.456   2.829  0.00  0.00    -0.015 C 
HETATM    5  C   UNK N   1      26.275  17.692   3.073  0.00  0.00     0.011 C 
HETATM    6  C   UNK N   1      24.405  15.630   6.353  0.00  0.00     0.048 C 
HETATM    7  C   UNK N   1      23.992  14.173   6.143  0.00  0.00     0.273 C 
HETATM    8  C   UNK N   1      23.328  14.317   3.333  0.00  0.00     0.076 C 
HETATM    9  C   UNK N   1      26.947  15.542   4.734  0.00  0.00     0.028 C 
HETATM   10  C   UNK N   1      22.635  15.641   3.617  0.00  0.00    -0.046 C 
HETATM   11  C   UNK N   1      21.842  18.349   3.711  0.00  0.00     0.113 C 
HETATM   12  C   UNK N   1      27.314  16.965   5.293  0.00  0.00     0.062 C 
HETATM   13  C   UNK N   1      24.829  14.215   3.860  0.00  0.00     0.240 C 
HETATM   14  C   UNK N   1      23.335  16.600   4.320  0.00  0.00    -0.003 A 
HETATM   15  C   UNK N   1      23.006  17.899   4.303  0.00  0.00     0.111 A 
HETATM   16  C   UNK N   1      25.031  17.880   5.276  0.00  0.00     0.182 A 
HETATM   17  C   UNK N   1      25.535  15.609   4.071  0.00  0.00     0.024 C 
HETATM   18  C   UNK N   1      24.597  16.388   5.021  0.00  0.00     0.035 A 
HETATM   19  C   UNK N   1      26.424  18.075   4.560  0.00  0.00     0.112 C 
HETATM   20  N   UNK N   1      24.857  13.513   5.162  0.00  0.00     0.090 N 
HETATM   21  O   UNK N   1      23.970  18.660   4.827  0.00  0.00    -0.338 OA
ENDROOT
BRANCH  12  22
HETATM   22  C   UNK N   1      28.816  17.205   5.603  0.00  0.00     0.061 C 
HETATM   23  C   UNK N   1      29.532  15.854   5.595  0.00  0.00     0.046 C 
BRANCH  22  24
HETATM   24  C   UNK N   1      29.100  17.927   6.921  0.00  0.00     0.037 C 
BRANCH  24  25
HETATM   25  C   UNK N   1      27.994  17.686   7.966  0.00  0.00    -0.002 C 
HETATM   26  C   UNK N   1      28.544  17.459   9.368  0.00  0.00     0.005 C 
ENDBRANCH  24  25
ENDBRANCH  22  24
BRANCH  22  27
HETATM   27  O   UNK N   1      29.349  17.961   4.552  0.00  0.00    -0.390 OA
HETATM   28  H   UNK N   1      28.932  18.018   3.679  0.00  0.00     0.210 HD
ENDBRANCH  22  27
ENDBRANCH  12  22
BRANCH  19  29
HETATM   29  O   UNK N   1      26.965  19.374   4.744  0.00  0.00    -0.378 OA
HETATM   30  C   UNK N   1      26.803  20.144   3.580  0.00  0.00     0.203 C 
ENDBRANCH  19  29
BRANCH  11  31
HETATM   31  O   UNK N   1      21.585  19.680   3.736  0.00  0.00    -0.276 OA
BRANCH  31  32
HETATM   32  C   UNK N   1      21.821  20.579   2.752  0.00  0.00     0.260 C 
HETATM   33  C   UNK N   1      20.819  20.732   1.662  0.00  0.00     0.126 C 
HETATM   34  O   UNK N   1      22.786  21.326   2.795  0.00  0.00    -0.265 OA
ENDBRANCH  31  32
ENDBRANCH  11  31
TORSDOF 8
ENDMDL
MODEL 4
REMARK VINA RESULT:      -6.7     14.351     17.262
REMARK  8 active torsions:
REMARK  status: ('A' for Active; 'I' for Inactive)
REMARK    1  A    between atoms: C_9  and  C_6 
REMARK    2  A    between atoms: C_24  and  C_9 
REMARK    3  A    between atoms: O_32  and  C_16 
REMARK    4  A    between atoms: O_32  and  C_18 
REMARK    5  A    between atoms: C_19  and  C_24 
REMARK    6  A    between atoms: C_27  and  C_23 
REMARK    7  A    between atoms: C_24  and  O_30 
REMARK    8  A    between atoms: C_27  and  O_31 
ROOT
HETATM    1  C   UNK N   1      31.801  22.073  -2.943  0.00  0.00     0.310 C 
HETATM    2  C   UNK N   1      28.415  21.791  -7.013  0.00  0.00     0.011 C 
HETATM    3  C   UNK N   1      27.172  22.197  -7.573  0.00  0.00     0.041 C 
HETATM    4  C   UNK N   1      30.327  25.638  -6.179  0.00  0.00    -0.015 C 
HETATM    5  C   UNK N   1      29.547  26.737  -6.309  0.00  0.00     0.011 C 
HETATM    6  C   UNK N   1      28.612  24.020  -3.108  0.00  0.00     0.048 C 
HETATM    7  C   UNK N   1      29.576  22.864  -2.842  0.00  0.00     0.273 C 
HETATM    8  C   UNK N   1      30.454  22.406  -5.559  0.00  0.00     0.076 C 
HETATM    9  C   UNK N   1      30.683  26.086  -3.836  0.00  0.00     0.028 C 
HETATM   10  C   UNK N   1      29.008  22.570  -6.000  0.00  0.00    -0.046 C 
HETATM   11  C   UNK N   1      26.583  23.426  -7.167  0.00  0.00     0.113 C 
HETATM   12  C   UNK N   1      29.558  27.182  -3.792  0.00  0.00     0.062 C 
HETATM   13  C   UNK N   1      31.022  23.592  -4.658  0.00  0.00     0.240 C 
HETATM   14  C   UNK N   1      28.320  23.684  -5.562  0.00  0.00    -0.003 A 
HETATM   15  C   UNK N   1      27.211  24.136  -6.163  0.00  0.00     0.111 A 
HETATM   16  C   UNK N   1      27.769  25.801  -4.761  0.00  0.00     0.182 A 
HETATM   17  C   UNK N   1      30.248  24.955  -4.820  0.00  0.00     0.024 C 
HETATM   18  C   UNK N   1      28.770  24.609  -4.527  0.00  0.00     0.035 A 
HETATM   19  C   UNK N   1      28.646  27.069  -5.102  0.00  0.00     0.112 C 
HETATM   20  N   UNK N   1      30.945  23.217  -3.228  0.00  0.00     0.090 N 
HETATM   21  O   UNK N   1      26.882  25.359  -5.738  0.00  0.00    -0.338 OA
ENDROOT
BRANCH  12  22
HETATM   22  C   UNK N   1      29.977  28.561  -3.213  0.00  0.00     0.061 C 
HETATM   23  C   UNK N   1      31.274  28.379  -2.423  0.00  0.00     0.046 C 
BRANCH  22  24
HETATM   24  C   UNK N   1      28.930  29.239  -2.329  0.00  0.00     0.037 C 
BRANCH  24  25
HETATM   25  C   UNK N   1      29.551  29.864  -1.065  0.00  0.00    -0.002 C 
HETATM   26  C   UNK N   1      28.556  29.998   0.080  0.00  0.00     0.005 C 
ENDBRANCH  24  25
ENDBRANCH  22  24
BRANCH  22  27
HETATM   27  O   UNK N   1      30.266  29.402  -4.294  0.00  0.00    -0.390 OA
HETATM   28  H   UNK N   1      31.057  29.963  -4.329  0.00  0.00     0.210 HD
ENDBRANCH  22  27
ENDBRANCH  12  22
BRANCH  19  29
HETATM   29  O   UNK N   1      27.872  28.241  -5.295  0.00  0.00    -0.378 OA
HETATM   30  C   UNK N   1      27.802  28.565  -6.661  0.00  0.00     0.203 C 
ENDBRANCH  19  29
BRANCH  11  31
HETATM   31  O   UNK N   1      25.467  23.956  -7.725  0.00  0.00    -0.276 OA
BRANCH  31  32
HETATM   32  C   UNK N   1      25.359  24.548  -8.937  0.00  0.00     0.260 C 
HETATM   33  C   UNK N   1      25.783  25.967  -9.084  0.00  0.00     0.126 C 
HETATM   34  O   UNK N   1      25.011  23.916  -9.923  0.00  0.00    -0.265 OA
ENDBRANCH  31  32
ENDBRANCH  11  31
TORSDOF 8
ENDMDL
MODEL 5
REMARK VINA RESULT:      -6.6     13.889     16.784
REMARK  8 active torsions:
REMARK  status: ('A' for Active; 'I' for Inactive)
REMARK    1  A    between atoms: C_9  and  C_6 
REMARK    2  A    between atoms: C_24  and  C_9 
REMARK    3  A    between atoms: O_32  and  C_16 
REMARK    4  A    between atoms: O_32  and  C_18 
REMARK    5  A    between atoms: C_19  and  C_24 
REMARK    6  A    between atoms: C_27  and  C_23 
REMARK    7  A    between atoms: C_24  and  O_30 
REMARK    8  A    between atoms: C_27  and  O_31 
ROOT
HETATM    1  C   UNK N   1      25.210  25.148 -10.575  0.00  0.00     0.310 C 
HETATM    2  C   UNK N   1      27.641  20.810  -8.737  0.00  0.00     0.011 C 
HETATM    3  C   UNK N   1      28.705  20.262  -7.968  0.00  0.00     0.041 C 
HETATM    4  C   UNK N   1      25.726  23.484  -5.850  0.00  0.00    -0.015 C 
HETATM    5  C   UNK N   1      26.391  23.689  -4.689  0.00  0.00     0.011 C 
HETATM    6  C   UNK N   1      28.163  25.256  -8.282  0.00  0.00     0.048 C 
HETATM    7  C   UNK N   1      27.352  25.181  -9.575  0.00  0.00     0.273 C 
HETATM    8  C   UNK N   1      25.934  22.717  -9.047  0.00  0.00     0.076 C 
HETATM    9  C   UNK N   1      25.861  25.824  -6.419  0.00  0.00     0.028 C 
HETATM   10  C   UNK N   1      27.236  22.141  -8.515  0.00  0.00    -0.046 C 
HETATM   11  C   UNK N   1      29.293  21.034  -6.927  0.00  0.00     0.113 C 
HETATM   12  C   UNK N   1      26.900  26.124  -5.279  0.00  0.00     0.062 C 
HETATM   13  C   UNK N   1      25.504  24.113  -8.408  0.00  0.00     0.240 C 
HETATM   14  C   UNK N   1      27.934  22.875  -7.578  0.00  0.00    -0.003 A 
HETATM   15  C   UNK N   1      28.856  22.334  -6.770  0.00  0.00     0.111 A 
HETATM   16  C   UNK N   1      28.516  24.374  -5.892  0.00  0.00     0.182 A 
HETATM   17  C   UNK N   1      26.140  24.400  -6.994  0.00  0.00     0.024 C 
HETATM   18  C   UNK N   1      27.664  24.261  -7.211  0.00  0.00     0.035 A 
HETATM   19  C   UNK N   1      27.511  24.749  -4.734  0.00  0.00     0.112 C 
HETATM   20  N   UNK N   1      25.912  25.220  -9.301  0.00  0.00     0.090 N 
HETATM   21  O   UNK N   1      29.194  23.165  -5.779  0.00  0.00    -0.338 OA
ENDROOT
BRANCH  12  22
HETATM   22  C   UNK N   1      26.534  27.286  -4.317  0.00  0.00     0.061 C 
HETATM   23  C   UNK N   1      25.218  27.907  -4.788  0.00  0.00     0.046 C 
BRANCH  22  24
HETATM   24  C   UNK N   1      27.596  28.378  -4.183  0.00  0.00     0.037 C 
BRANCH  24  25
HETATM   25  C   UNK N   1      27.397  29.513  -5.206  0.00  0.00    -0.002 C 
HETATM   26  C   UNK N   1      28.202  29.308  -6.482  0.00  0.00     0.005 C 
ENDBRANCH  24  25
ENDBRANCH  22  24
BRANCH  22  27
HETATM   27  O   UNK N   1      26.299  26.730  -3.053  0.00  0.00    -0.390 OA
HETATM   28  H   UNK N   1      26.904  26.100  -2.634  0.00  0.00     0.210 HD
ENDBRANCH  22  27
ENDBRANCH  12  22
BRANCH  19  29
HETATM   29  O   UNK N   1      28.151  24.929  -3.481  0.00  0.00    -0.378 OA
HETATM   30  C   UNK N   1      27.977  23.793  -2.671  0.00  0.00     0.203 C 
ENDBRANCH  19  29
BRANCH  11  31
HETATM   31  O   UNK N   1      30.226  20.562  -6.065  0.00  0.00    -0.276 OA
BRANCH  31  32
HETATM   32  C   UNK N   1      31.570  20.575  -6.224  0.00  0.00     0.260 C 
HETATM   33  C   UNK N   1      32.368  21.609  -5.511  0.00  0.00     0.126 C 
HETATM   34  O   UNK N   1      32.141  19.702  -6.859  0.00  0.00    -0.265 OA
ENDBRANCH  31  32
ENDBRANCH  11  31
TORSDOF 8
ENDMDL
MODEL 6
REMARK VINA RESULT:      -6.5      4.686      7.201
REMARK  8 active torsions:
REMARK  status: ('A' for Active; 'I' for Inactive)
REMARK    1  A    between atoms: C_9  and  C_6 
REMARK    2  A    between atoms: C_24  and  C_9 
REMARK    3  A    between atoms: O_32  and  C_16 
REMARK    4  A    between atoms: O_32  and  C_18 
REMARK    5  A    between atoms: C_19  and  C_24 
REMARK    6  A    between atoms: C_27  and  C_23 
REMARK    7  A    between atoms: C_24  and  O_30 
REMARK    8  A    between atoms: C_27  and  O_31 
ROOT
HETATM    1  C   UNK N   1      31.303  16.968   7.664  0.00  0.00     0.310 C 
HETATM    2  C   UNK N   1      27.461  20.363   6.315  0.00  0.00     0.011 C 
HETATM    3  C   UNK N   1      26.621  20.884   5.291  0.00  0.00     0.041 C 
HETATM    4  C   UNK N   1      26.602  16.078   6.094  0.00  0.00    -0.015 C 
HETATM    5  C   UNK N   1      25.866  15.667   5.035  0.00  0.00     0.011 C 
HETATM    6  C   UNK N   1      29.824  17.148   4.233  0.00  0.00     0.048 C 
HETATM    7  C   UNK N   1      30.729  17.462   5.425  0.00  0.00     0.273 C 
HETATM    8  C   UNK N   1      28.695  18.321   7.291  0.00  0.00     0.076 C 
HETATM    9  C   UNK N   1      28.474  14.721   5.407  0.00  0.00     0.028 C 
HETATM   10  C   UNK N   1      28.048  19.093   6.152  0.00  0.00    -0.046 C 
HETATM   11  C   UNK N   1      26.314  20.084   4.156  0.00  0.00     0.113 C 
HETATM   12  C   UNK N   1      27.846  14.429   3.995  0.00  0.00     0.062 C 
HETATM   13  C   UNK N   1      28.989  16.785   6.984  0.00  0.00     0.240 C 
HETATM   14  C   UNK N   1      27.811  18.423   4.970  0.00  0.00    -0.003 A 
HETATM   15  C   UNK N   1      26.931  18.852   4.055  0.00  0.00     0.111 A 
HETATM   16  C   UNK N   1      27.430  16.771   3.372  0.00  0.00     0.182 A 
HETATM   17  C   UNK N   1      28.099  16.175   5.834  0.00  0.00     0.024 C 
HETATM   18  C   UNK N   1      28.329  17.105   4.620  0.00  0.00     0.035 A 
HETATM   19  C   UNK N   1      26.643  15.448   3.721  0.00  0.00     0.112 C 
HETATM   20  N   UNK N   1      30.401  16.616   6.576  0.00  0.00     0.090 N 
HETATM   21  O   UNK N   1      26.677  17.916   3.136  0.00  0.00    -0.338 OA
ENDROOT
BRANCH  12  22
HETATM   22  C   UNK N   1      27.748  12.932   3.595  0.00  0.00     0.061 C 
HETATM   23  C   UNK N   1      28.720  12.134   4.465  0.00  0.00     0.046 C 
BRANCH  22  24
HETATM   24  C   UNK N   1      28.020  12.636   2.119  0.00  0.00     0.037 C 
BRANCH  24  25
HETATM   25  C   UNK N   1      26.983  11.667   1.519  0.00  0.00    -0.002 C 
HETATM   26  C   UNK N   1      27.615  10.415   0.927  0.00  0.00     0.005 C 
ENDBRANCH  24  25
ENDBRANCH  22  24
BRANCH  22  27
HETATM   27  O   UNK N   1      26.456  12.494   3.911  0.00  0.00    -0.390 OA
HETATM   28  H   UNK N   1      26.197  11.560   3.891  0.00  0.00     0.210 HD
ENDBRANCH  22  27
ENDBRANCH  12  22
BRANCH  19  29
HETATM   29  O   UNK N   1      25.818  14.998   2.659  0.00  0.00    -0.378 OA
HETATM   30  C   UNK N   1      24.463  15.213   2.964  0.00  0.00     0.203 C 
ENDBRANCH  19  29
BRANCH  11  31
HETATM   31  O   UNK N   1      25.433  20.441   3.190  0.00  0.00    -0.276 OA
BRANCH  31  32
HETATM   32  C   UNK N   1      24.083  20.368   3.244  0.00  0.00     0.260 C 
HETATM   33  C   UNK N   1      23.451  19.177   3.873  0.00  0.00     0.126 C 
HETATM   34  O   UNK N   1      23.383  21.299   2.874  0.00  0.00    -0.265 OA
ENDBRANCH  31  32
ENDBRANCH  11  31
TORSDOF 8
ENDMDL
MODEL 7
REMARK VINA RESULT:      -6.5     15.062     17.511
REMARK  8 active torsions:
REMARK  status: ('A' for Active; 'I' for Inactive)
REMARK    1  A    between atoms: C_9  and  C_6 
REMARK    2  A    between atoms: C_24  and  C_9 
REMARK    3  A    between atoms: O_32  and  C_16 
REMARK    4  A    between atoms: O_32  and  C_18 
REMARK    5  A    between atoms: C_19  and  C_24 
REMARK    6  A    between atoms: C_27  and  C_23 
REMARK    7  A    between atoms: C_24  and  O_30 
REMARK    8  A    between atoms: C_27  and  O_31 
ROOT
HETATM    1  C   UNK N   1      38.445   7.118  13.539  0.00  0.00     0.310 C 
HETATM    2  C   UNK N   1      35.087   9.655  16.762  0.00  0.00     0.011 C 
HETATM    3  C   UNK N   1      34.729  10.869  17.411  0.00  0.00     0.041 C 
HETATM    4  C   UNK N   1      35.256  10.892  12.568  0.00  0.00    -0.015 C 
HETATM    5  C   UNK N   1      35.182  12.222  12.331  0.00  0.00     0.011 C 
HETATM    6  C   UNK N   1      38.704  10.765  14.325  0.00  0.00     0.048 C 
HETATM    7  C   UNK N   1      38.882   9.252  14.455  0.00  0.00     0.273 C 
HETATM    8  C   UNK N   1      36.097   8.512  14.684  0.00  0.00     0.076 C 
HETATM    9  C   UNK N   1      37.454  10.769  11.582  0.00  0.00     0.028 C 
HETATM   10  C   UNK N   1      35.912   9.695  15.621  0.00  0.00    -0.046 C 
HETATM   11  C   UNK N   1      35.136  12.113  16.855  0.00  0.00     0.113 C 
HETATM   12  C   UNK N   1      37.613  12.333  11.548  0.00  0.00     0.062 C 
HETATM   13  C   UNK N   1      36.785   8.858  13.288  0.00  0.00     0.240 C 
HETATM   14  C   UNK N   1      36.377  10.926  15.208  0.00  0.00    -0.003 A 
HETATM   15  C   UNK N   1      35.952  12.080  15.741  0.00  0.00     0.111 A 
HETATM   16  C   UNK N   1      37.094  12.730  13.919  0.00  0.00     0.182 A 
HETATM   17  C   UNK N   1      36.656  10.372  12.863  0.00  0.00     0.024 C 
HETATM   18  C   UNK N   1      37.238  11.167  14.055  0.00  0.00     0.035 A 
HETATM   19  C   UNK N   1      36.502  13.006  12.482  0.00  0.00     0.112 C 
HETATM   20  N   UNK N   1      38.230   8.545  13.349  0.00  0.00     0.090 N 
HETATM   21  O   UNK N   1      36.331  13.132  15.010  0.00  0.00    -0.338 OA
ENDROOT
BRANCH  12  22
HETATM   22  C   UNK N   1      37.996  12.945  10.173  0.00  0.00     0.061 C 
HETATM   23  C   UNK N   1      36.783  12.850   9.247  0.00  0.00     0.046 C 
BRANCH  22  24
HETATM   24  C   UNK N   1      39.209  12.307   9.494  0.00  0.00     0.037 C 
BRANCH  24  25
HETATM   25  C   UNK N   1      39.097  12.333   7.958  0.00  0.00    -0.002 C 
HETATM   26  C   UNK N   1      39.963  13.409   7.318  0.00  0.00     0.005 C 
ENDBRANCH  24  25
ENDBRANCH  22  24
BRANCH  22  27
HETATM   27  O   UNK N   1      38.258  14.305  10.374  0.00  0.00    -0.390 OA
HETATM   28  H   UNK N   1      38.782  14.637  11.119  0.00  0.00     0.210 HD
ENDBRANCH  22  27
ENDBRANCH  12  22
BRANCH  19  29
HETATM   29  O   UNK N   1      36.359  14.389  12.199  0.00  0.00    -0.378 OA
HETATM   30  C   UNK N   1      35.029  14.686  11.855  0.00  0.00     0.203 C 
ENDBRANCH  19  29
BRANCH  11  31
HETATM   31  O   UNK N   1      34.748  13.322  17.329  0.00  0.00    -0.276 OA
BRANCH  31  32
HETATM   32  C   UNK N   1      35.311  14.026  18.338  0.00  0.00     0.260 C 
HETATM   33  C   UNK N   1      36.057  15.273  18.016  0.00  0.00     0.126 C 
HETATM   34  O   UNK N   1      35.137  13.711  19.505  0.00  0.00    -0.265 OA
ENDBRANCH  31  32
ENDBRANCH  11  31
TORSDOF 8
ENDMDL
MODEL 8
REMARK VINA RESULT:      -6.4      3.124      6.160
REMARK  8 active torsions:
REMARK  status: ('A' for Active; 'I' for Inactive)
REMARK    1  A    between atoms: C_9  and  C_6 
REMARK    2  A    between atoms: C_24  and  C_9 
REMARK    3  A    between atoms: O_32  and  C_16 
REMARK    4  A    between atoms: O_32  and  C_18 
REMARK    5  A    between atoms: C_19  and  C_24 
REMARK    6  A    between atoms: C_27  and  C_23 
REMARK    7  A    between atoms: C_24  and  O_30 
REMARK    8  A    between atoms: C_27  and  O_31 
ROOT
HETATM    1  C   UNK N   1      24.063  11.536   6.841  0.00  0.00     0.310 C 
HETATM    2  C   UNK N   1      26.874  16.026   7.049  0.00  0.00     0.011 C 
HETATM    3  C   UNK N   1      27.351  17.179   6.365  0.00  0.00     0.041 C 
HETATM    4  C   UNK N   1      22.556  16.321   6.403  0.00  0.00    -0.015 C 
HETATM    5  C   UNK N   1      22.143  17.256   5.516  0.00  0.00     0.011 C 
HETATM    6  C   UNK N   1      24.364  13.913   3.969  0.00  0.00     0.048 C 
HETATM    7  C   UNK N   1      24.695  12.766   4.924  0.00  0.00     0.273 C 
HETATM    8  C   UNK N   1      24.980  14.304   7.356  0.00  0.00     0.076 C 
HETATM    9  C   UNK N   1      21.626  14.543   5.063  0.00  0.00     0.028 C 
HETATM   10  C   UNK N   1      25.749  15.339   6.551  0.00  0.00    -0.046 C 
HETATM   11  C   UNK N   1      26.641  17.674   5.237  0.00  0.00     0.113 C 
HETATM   12  C   UNK N   1      21.388  15.490   3.830  0.00  0.00     0.062 C 
HETATM   13  C   UNK N   1      23.560  13.900   6.753  0.00  0.00     0.240 C 
HETATM   14  C   UNK N   1      25.184  15.799   5.379  0.00  0.00    -0.003 A 
HETATM   15  C   UNK N   1      25.553  16.947   4.796  0.00  0.00     0.111 A 
HETATM   16  C   UNK N   1      23.678  16.377   3.698  0.00  0.00     0.182 A 
HETATM   17  C   UNK N   1      22.938  14.981   5.788  0.00  0.00     0.024 C 
HETATM   18  C   UNK N   1      24.022  15.223   4.712  0.00  0.00     0.035 A 
HETATM   19  C   UNK N   1      22.208  16.849   4.030  0.00  0.00     0.112 C 
HETATM   20  N   UNK N   1      23.683  12.646   5.978  0.00  0.00     0.090 N 
HETATM   21  O   UNK N   1      24.695  17.315   3.840  0.00  0.00    -0.338 OA
ENDROOT
BRANCH  12  22
HETATM   22  C   UNK N   1      19.950  15.489   3.244  0.00  0.00     0.061 C 
HETATM   23  C   UNK N   1      19.174  14.329   3.869  0.00  0.00     0.046 C 
BRANCH  22  24
HETATM   24  C   UNK N   1      19.871  15.397   1.720  0.00  0.00     0.037 C 
BRANCH  24  25
HETATM   25  C   UNK N   1      21.185  14.888   1.098  0.00  0.00    -0.002 C 
HETATM   26  C   UNK N   1      21.133  13.413   0.724  0.00  0.00     0.005 C 
ENDBRANCH  24  25
ENDBRANCH  22  24
BRANCH  22  27
HETATM   27  O   UNK N   1      19.326  16.673   3.655  0.00  0.00    -0.390 OA
HETATM   28  H   UNK N   1      19.681  17.553   3.456  0.00  0.00     0.210 HD
ENDBRANCH  22  27
ENDBRANCH  12  22
BRANCH  19  29
HETATM   29  O   UNK N   1      21.743  17.866   3.158  0.00  0.00    -0.378 OA
HETATM   30  C   UNK N   1      21.773  19.116   3.799  0.00  0.00     0.203 C 
ENDBRANCH  19  29
BRANCH  11  31
HETATM   31  O   UNK N   1      26.946  18.827   4.593  0.00  0.00    -0.276 OA
BRANCH  31  32
HETATM   32  C   UNK N   1      26.546  20.079   4.918  0.00  0.00     0.260 C 
HETATM   33  C   UNK N   1      27.447  20.931   5.739  0.00  0.00     0.126 C 
HETATM   34  O   UNK N   1      25.509  20.548   4.473  0.00  0.00    -0.265 OA
ENDBRANCH  31  32
ENDBRANCH  11  31
TORSDOF 8
ENDMDL
MODEL 9
REMARK VINA RESULT:      -6.4      8.656     11.531
REMARK  8 active torsions:
REMARK  status: ('A' for Active; 'I' for Inactive)
REMARK    1  A    between atoms: C_9  and  C_6 
REMARK    2  A    between atoms: C_24  and  C_9 
REMARK    3  A    between atoms: O_32  and  C_16 
REMARK    4  A    between atoms: O_32  and  C_18 
REMARK    5  A    between atoms: C_19  and  C_24 
REMARK    6  A    between atoms: C_27  and  C_23 
REMARK    7  A    between atoms: C_24  and  O_30 
REMARK    8  A    between atoms: C_27  and  O_31 
ROOT
HETATM    1  C   UNK N   1      35.225  13.404   3.373  0.00  0.00     0.310 C 
HETATM    2  C   UNK N   1      30.943  16.411   2.517  0.00  0.00     0.011 C 
HETATM    3  C   UNK N   1      29.650  16.812   2.952  0.00  0.00     0.041 C 
HETATM    4  C   UNK N   1      33.383  17.248   6.053  0.00  0.00    -0.015 C 
HETATM    5  C   UNK N   1      32.711  17.564   7.185  0.00  0.00     0.011 C 
HETATM    6  C   UNK N   1      32.307  13.544   5.708  0.00  0.00     0.048 C 
HETATM    7  C   UNK N   1      33.183  13.120   4.529  0.00  0.00     0.273 C 
HETATM    8  C   UNK N   1      33.325  15.665   3.165  0.00  0.00     0.076 C 
HETATM    9  C   UNK N   1      34.340  15.291   7.088  0.00  0.00     0.028 C 
HETATM   10  C   UNK N   1      31.840  15.839   3.441  0.00  0.00    -0.046 C 
HETATM   11  C   UNK N   1      29.305  16.712   4.328  0.00  0.00     0.113 C 
HETATM   12  C   UNK N   1      33.377  15.377   8.328  0.00  0.00     0.062 C 
HETATM   13  C   UNK N   1      34.213  15.322   4.443  0.00  0.00     0.240 C 
HETATM   14  C   UNK N   1      31.397  15.652   4.735  0.00  0.00    -0.003 A 
HETATM   15  C   UNK N   1      30.227  16.133   5.178  0.00  0.00     0.111 A 
HETATM   16  C   UNK N   1      31.275  15.478   7.055  0.00  0.00     0.182 A 
HETATM   17  C   UNK N   1      33.566  15.755   5.815  0.00  0.00     0.024 C 
HETATM   18  C   UNK N   1      32.176  15.079   5.827  0.00  0.00     0.035 A 
HETATM   19  C   UNK N   1      32.168  16.372   8.000  0.00  0.00     0.112 C 
HETATM   20  N   UNK N   1      34.447  13.863   4.515  0.00  0.00     0.090 N 
HETATM   21  O   UNK N   1      30.138  16.065   6.510  0.00  0.00    -0.338 OA
ENDROOT
BRANCH  12  22
HETATM   22  C   UNK N   1      34.062  15.364   9.720  0.00  0.00     0.061 C 
HETATM   23  C   UNK N   1      34.676  16.743   9.969  0.00  0.00     0.046 C 
BRANCH  22  24
HETATM   24  C   UNK N   1      35.131  14.287   9.908  0.00  0.00     0.037 C 
BRANCH  24  25
HETATM   25  C   UNK N   1      36.465  14.871  10.412  0.00  0.00    -0.002 C 
HETATM   26  C   UNK N   1      37.680  14.185   9.804  0.00  0.00     0.005 C 
ENDBRANCH  24  25
ENDBRANCH  22  24
BRANCH  22  27
HETATM   27  O   UNK N   1      33.063  15.177  10.682  0.00  0.00    -0.390 OA
HETATM   28  H   UNK N   1      32.570  14.347  10.776  0.00  0.00     0.210 HD
ENDBRANCH  22  27
ENDBRANCH  12  22
BRANCH  19  29
HETATM   29  O   UNK N   1      31.495  16.773   9.182  0.00  0.00    -0.378 OA
HETATM   30  C   UNK N   1      30.862  18.014   8.992  0.00  0.00     0.203 C 
ENDBRANCH  19  29
BRANCH  11  31
HETATM   31  O   UNK N   1      28.148  17.176   4.859  0.00  0.00    -0.276 OA
BRANCH  31  32
HETATM   32  C   UNK N   1      27.891  18.431   5.295  0.00  0.00     0.260 C 
HETATM   33  C   UNK N   1      27.438  19.455   4.315  0.00  0.00     0.126 C 
HETATM   34  O   UNK N   1      27.934  18.709   6.484  0.00  0.00    -0.265 OA
ENDBRANCH  31  32
ENDBRANCH  11  31
TORSDOF 8
ENDMDL
