REMARK  23 active torsions:
REMARK  status: ('A' for Active; 'I' for Inactive)
REMARK    1  A    between atoms: C_10  and  C_4 
REMARK    2  A    between atoms: O_45  and  C_4 
REMARK    3  A    between atoms: C_11  and  C_5 
REMARK    4  A    between atoms: O_46  and  C_5 
REMARK    5  A    between atoms: C_8  and  C_18 
REMARK    6  A    between atoms: C_13  and  O_34 
REMARK    7  A    between atoms: C_14  and  O_35 
REMARK    8  A    between atoms: C_15  and  O_36 
REMARK    9  A    between atoms: C_16  and  O_49 
REMARK   10  A    between atoms: N_22  and  C_17 
REMARK   11  A    between atoms: N_23  and  C_18 
REMARK   12  A    between atoms: O_37  and  C_18 
REMARK   13  A    between atoms: C_20  and  N_31 
REMARK   14  A    between atoms: C_21  and  N_32 
REMARK   15  A    between atoms: P_51  and  O_39 
REMARK   16  A    between atoms: P_51  and  O_40 
REMARK   17  A    between atoms: P_52  and  O_41 
REMARK   18  A    between atoms: P_53  and  O_44 
REMARK   19  A    between atoms: P_52  and  O_45 
REMARK   20  A    between atoms: P_53  and  O_46 
REMARK   21  A    between atoms: P_51  and  O_49 
REMARK   22  A    between atoms: P_52  and  O_50 
REMARK   23  A    between atoms: P_53  and  O_50 
ROOT
HETATM    1  O   UNK N   1      -2.288  -2.881  -2.039  0.00  0.00    -0.631 OA
HETATM    2  P   UNK N   1      -1.594  -3.967  -1.168  0.00  0.00     0.401 P 
ENDROOT
BRANCH   2   3
HETATM    3  O   UNK N   1      -0.218  -4.511  -2.072  0.00  0.00    -0.307 OA
HETATM    4  H   UNK N   1      -0.097  -5.330  -2.577  0.00  0.00     0.222 HD
ENDBRANCH   2   3
BRANCH   2   5
HETATM    5  O   UNK N   1      -1.081  -3.317   0.366  0.00  0.00    -0.294 OA
BRANCH   5   6
HETATM    6  C   UNK N   1      -1.312  -1.936   0.382  0.00  0.00     0.215 C 
BRANCH   6   7
HETATM    7  C   UNK N   1      -0.072  -1.188  -0.095  0.00  0.00     0.180 C 
HETATM    8  C   UNK N   1       1.217  -1.852   0.368  0.00  0.00     0.183 C 
HETATM    9  C   UNK N   1       2.170  -0.713   0.099  0.00  0.00     0.214 C 
HETATM   10  C   UNK N   1       1.313   0.416   0.698  0.00  0.00     0.263 C 
HETATM   11  O   UNK N   1      -0.050   0.131   0.406  0.00  0.00    -0.353 OA
BRANCH   8  12
HETATM   12  O   UNK N   1       1.137  -2.120   1.744  0.00  0.00    -0.390 OA
HETATM   13  H   UNK N   1       0.949  -2.165   2.694  0.00  0.00     0.210 HD
ENDBRANCH   8  12
BRANCH   9  14
HETATM   14  O   UNK N   1       3.431  -0.756   0.751  0.00  0.00    -0.284 OA
BRANCH  14  15
HETATM   15  P   UNK N   1       4.200  -2.335   0.744  0.00  0.00     0.391 P 
HETATM   16  O   UNK N   1       3.553  -3.198   1.861  0.00  0.00    -0.632 OA
BRANCH  15  17
HETATM   17  O   UNK N   1       5.866  -2.176   1.200  0.00  0.00    -0.307 OA
HETATM   18  H   UNK N   1       6.409  -2.938   1.455  0.00  0.00     0.222 HD
ENDBRANCH  15  17
BRANCH  15  19
HETATM   19  O   UNK N   1       4.059  -3.203  -0.753  0.00  0.00    -0.307 OA
HETATM   20  H   UNK N   1       3.600  -3.377  -1.590  0.00  0.00     0.222 HD
ENDBRANCH  15  19
ENDBRANCH  14  15
ENDBRANCH   9  14
BRANCH  10  21
HETATM   21  N   UNK N   1       1.671   1.759   0.231  0.00  0.00    -0.297 N 
HETATM   22  C   UNK N   1       0.803   2.689  -0.250  0.00  0.00     0.188 A 
HETATM   23  N   UNK N   1       1.434   3.862  -0.534  0.00  0.00    -0.346 N 
HETATM   24  C   UNK N   1       2.722   3.630  -0.224  0.00  0.00     0.122 A 
ATOM     25  HN  UNK N   1       1.024   4.721  -0.900  1.00  0.00     0.167 HD
HETATM   26  C   UNK N   1       3.819   4.469  -0.309  0.00  0.00     0.131 A 
HETATM   27  C   UNK N   1       2.864   2.371   0.233  0.00  0.00     0.142 A 
HETATM   28  N   UNK N   1       5.036   3.971   0.063  0.00  0.00    -0.337 N 
HETATM   29  C   UNK N   1       5.162   2.680   0.518  0.00  0.00     0.183 A 
ATOM     30  HN  UNK N   1       5.863   4.566   0.003  1.00  0.00     0.168 HD
HETATM   31  N   UNK N   1       4.064   1.869   0.615  0.00  0.00    -0.336 N 
ATOM     32  HN  UNK N   1       4.146   0.915   0.966  1.00  0.00     0.168 HD
BRANCH  26  33
HETATM   33  N   UNK N   1       3.693   5.797  -0.761  0.00  0.00    -0.383 N 
HETATM   34  H   UNK N   1       4.453   6.338  -1.077  0.00  0.00     0.157 HD
HETATM   35  H   UNK N   1       2.797   6.207  -0.761  0.00  0.00     0.157 HD
ENDBRANCH  26  33
ENDBRANCH  10  21
ENDBRANCH   6   7
ENDBRANCH   5   6
ENDBRANCH   2   5
BRANCH   2  36
HETATM   36  O   UNK N   1      -2.702  -5.287  -0.922  0.00  0.00    -0.195 OA
BRANCH  36  37
HETATM   37  P   UNK N   1      -3.870  -4.744   0.255  0.00  0.00     0.401 P 
HETATM   38  O   UNK N   1      -4.671  -6.009   0.662  0.00  0.00    -0.631 OA
BRANCH  37  39
HETATM   39  O   UNK N   1      -3.203  -4.140   1.743  0.00  0.00    -0.307 OA
HETATM   40  H   UNK N   1      -2.725  -4.294   2.572  0.00  0.00     0.222 HD
ENDBRANCH  37  39
BRANCH  37  41
HETATM   41  O   UNK N   1      -5.034  -3.676  -0.453  0.00  0.00    -0.294 OA
BRANCH  41  42
HETATM   42  C   UNK N   1      -4.481  -2.390  -0.410  0.00  0.00     0.215 C 
BRANCH  42  43
HETATM   43  C   UNK N   1      -5.625  -1.424  -0.282  0.00  0.00     0.180 C 
HETATM   44  C   UNK N   1      -5.323   0.053  -0.341  0.00  0.00     0.182 C 
HETATM   45  C   UNK N   1      -6.716   0.533   0.040  0.00  0.00     0.198 C 
HETATM   46  C   UNK N   1      -7.176  -0.553   1.050  0.00  0.00     0.258 C 
HETATM   47  O   UNK N   1      -6.228  -1.597   0.968  0.00  0.00    -0.354 OA
BRANCH  44  48
HETATM   48  O   UNK N   1      -4.390   0.382   0.649  0.00  0.00    -0.390 OA
HETATM   49  H   UNK N   1      -3.869  -0.064   1.335  0.00  0.00     0.210 HD
ENDBRANCH  44  48
BRANCH  45  50
HETATM   50  O   UNK N   1      -6.719   1.829   0.565  0.00  0.00    -0.388 OA
HETATM   51  H   UNK N   1      -5.942   2.280   0.930  0.00  0.00     0.210 HD
ENDBRANCH  45  50
BRANCH  46  52
HETATM   52  N   UNK N   1      -8.490  -1.108   0.720  0.00  0.00    -0.340 N 
HETATM   53  C   UNK N   1      -8.556  -2.466   0.257  0.00  0.00     0.096 A 
HETATM   54  C   UNK N   1      -9.689  -3.056  -0.096  0.00  0.00     0.068 A 
HETATM   55  C   UNK N   1     -10.944  -2.327   0.012  0.00  0.00     0.167 A 
HETATM   56  C   UNK N   1     -10.959  -0.903   0.528  0.00  0.00     0.172 A 
HETATM   57  O   UNK N   1     -11.984  -2.892  -0.284  0.00  0.00    -0.292 OA
HETATM   58  C   UNK N   1      -9.560  -0.387   0.850  0.00  0.00     0.087 A 
BRANCH  56  59
HETATM   59  C   UNK N   1     -11.651   0.009  -0.458  0.00  0.00     0.126 C 
BRANCH  59  60
HETATM   60  N   UNK N   1     -12.871  -0.215  -0.788  0.00  0.00    -0.383 N 
HETATM   61  H   UNK N   1     -13.487   0.509  -1.042  0.00  0.00     0.158 HD
ATOM     62  HN  UNK N   1     -13.212  -1.176  -0.788  1.00  0.00     0.158 HD
ENDBRANCH  59  60
BRANCH  59  63
HETATM   63  O   UNK N   1     -11.014   1.079  -0.974  0.00  0.00    -0.349 OA
HETATM   64  H   UNK N   1     -10.149   1.068  -1.333  0.00  0.00     0.219 HD
ENDBRANCH  59  63
ENDBRANCH  56  59
ENDBRANCH  46  52
ENDBRANCH  42  43
ENDBRANCH  41  42
ENDBRANCH  37  41
ENDBRANCH  36  37
ENDBRANCH   2  36
TORSDOF 23
