REMARK  7 active torsions:
REMARK  status: ('A' for Active; 'I' for Inactive)
REMARK    1  A    between atoms: C_15  and  C_14 
REMARK    2  A    between atoms: N_27  and  C_14 
REMARK    3  A    between atoms: O_28  and  C_17 
REMARK    4  A    between atoms: C_18  and  C_23 
REMARK    5  A    between atoms: C_26  and  C_22 
REMARK    6  A    between atoms: O_29  and  C_23 
REMARK    7  A    between atoms: C_26  and  O_30 
ROOT
HETATM    1  C   UNK N   1      -4.149  -0.044   1.030  0.00  0.00     0.011 C 
HETATM    2  C   UNK N   1      -4.608  -1.313   0.601  0.00  0.00     0.040 C 
HETATM    3  C   UNK N   1       0.039  -0.582   1.697  0.00  0.00    -0.015 C 
HETATM    4  C   UNK N   1       0.468  -1.819   1.376  0.00  0.00     0.011 C 
HETATM    5  C   UNK N   1      -0.747   0.779  -1.831  0.00  0.00     0.048 C 
HETATM    6  C   UNK N   1      -1.261   2.163  -1.472  0.00  0.00     0.274 C 
HETATM    7  C   UNK N   1      -2.194   1.588   1.293  0.00  0.00     0.076 C 
HETATM    8  C   UNK N   1       1.519   0.506   0.085  0.00  0.00     0.028 C 
HETATM    9  C   UNK N   1      -2.865   0.387   0.659  0.00  0.00    -0.046 C 
HETATM   10  C   UNK N   1      -3.739  -2.175  -0.105  0.00  0.00     0.099 C 
HETATM   11  C   UNK N   1       2.030  -0.926  -0.356  0.00  0.00     0.061 C 
HETATM   12  C   UNK N   1      -0.680   1.791   0.889  0.00  0.00     0.240 C 
HETATM   13  C   UNK N   1      -2.102  -0.449  -0.139  0.00  0.00    -0.003 C 
HETATM   14  C   UNK N   1      -2.468  -1.705  -0.435  0.00  0.00     0.110 C 
HETATM   15  C   UNK N   1      -0.290  -1.604  -1.049  0.00  0.00     0.182 C 
HETATM   16  C   UNK N   1       0.042   0.428   0.551  0.00  0.00     0.024 C 
HETATM   17  C   UNK N   1      -0.749  -0.170  -0.619  0.00  0.00     0.035 C 
HETATM   18  C   UNK N   1       0.894  -2.014  -0.087  0.00  0.00     0.112 C 
HETATM   19  N   UNK N   1      -0.606   2.713  -0.271  0.00  0.00     0.095 N 
HETATM   20  O   UNK N   1      -1.448  -2.393  -0.973  0.00  0.00    -0.338 OA
ENDROOT
BRANCH  11  21
HETATM   21  C   UNK N   1       3.436  -1.198   0.256  0.00  0.00     0.057 C 
HETATM   22  C   UNK N   1       3.417  -1.238   1.774  0.00  0.00     0.046 C 
HETATM   23  C   UNK N   1       4.018  -2.509  -0.247  0.00  0.00     0.046 C 
BRANCH  21  24
HETATM   24  O   UNK N   1       4.306  -0.180  -0.141  0.00  0.00    -0.390 OA
HETATM   25  H   UNK N   1       5.221  -0.350  -0.417  0.00  0.00     0.210 HD
ENDBRANCH  21  24
ENDBRANCH  11  21
BRANCH  18  26
HETATM   26  O   UNK N   1       1.373  -3.316  -0.377  0.00  0.00    -0.378 OA
HETATM   27  C   UNK N   1       0.452  -4.286   0.053  0.00  0.00     0.203 C 
ENDBRANCH  18  26
BRANCH  19  28
HETATM   28  C   UNK N   1      -1.145   4.039   0.117  0.00  0.00     0.277 C 
BRANCH  28  29
HETATM   29  C   UNK N   1      -2.367   4.551  -0.671  0.00  0.00     0.014 A 
HETATM   30  C   UNK N   1      -3.397   5.074   0.313  0.00  0.00     0.007 A 
HETATM   31  C   UNK N   1      -3.623   3.747  -0.373  0.00  0.00     0.007 A 
ENDBRANCH  28  29
ENDBRANCH  19  28
BRANCH  10  32
HETATM   32  O   UNK N   1      -4.123  -3.420  -0.427  0.00  0.00    -0.358 OA
HETATM   33  H   UNK N   1      -5.010  -3.623  -0.652  0.00  0.00     0.217 HD
ENDBRANCH  10  32
TORSDOF 7
