REMARK  4 active torsions:
REMARK  status: ('A' for Active; 'I' for Inactive)
REMARK    1  A    between atoms: C_6  and  O_19 
REMARK    2  A    between atoms: N_11  and  C_8 
REMARK    3  A    between atoms: C_10  and  N_18 
REMARK    4  A    between atoms: P_24  and  O_20 
ROOT
HETATM    1  C   UNK N   1       4.459   1.180   0.313  0.00  0.00     0.183 A 
HETATM    2  C   UNK N   1       0.370   2.470  -0.799  0.00  0.00     0.188 A 
HETATM    3  C   UNK N   1       2.396   2.872  -0.235  0.00  0.00     0.122 A 
HETATM    4  C   UNK N   1       3.625   3.405   0.124  0.00  0.00     0.131 A 
HETATM    5  C   UNK N   1       2.233   1.537  -0.299  0.00  0.00     0.142 A 
HETATM    6  N   UNK N   1       4.647   2.539   0.393  0.00  0.00    -0.337 N 
ATOM      7  HN  UNK N   1       5.561   2.905   0.656  1.00  0.00     0.168 HD
HETATM    8  N   UNK N   1       3.238   0.668  -0.031  0.00  0.00    -0.336 N 
ATOM      9  HN  UNK N   1       3.088  -0.339  -0.084  1.00  0.00     0.168 HD
HETATM   10  N   UNK N   1       1.241   3.489  -0.546  0.00  0.00    -0.346 N 
ATOM     11  HN  UNK N   1       1.058   4.492  -0.584  1.00  0.00     0.167 HD
HETATM   12  N   UNK N   1       0.966   1.258  -0.643  0.00  0.00    -0.297 N 
ENDROOT
BRANCH  12  13
HETATM   13  C   UNK N   1       0.329  -0.061  -0.774  0.00  0.00     0.262 C 
HETATM   14  C   UNK N   1      -0.868  -0.195   0.192  0.00  0.00     0.199 C 
HETATM   15  C   UNK N   1      -0.811  -1.664   0.514  0.00  0.00     0.195 C 
HETATM   16  C   UNK N   1       0.721  -1.781   0.633  0.00  0.00     0.180 C 
HETATM   17  O   UNK N   1      -1.343  -2.398  -0.573  0.00  0.00    -0.303 OA
HETATM   18  C   UNK N   1       1.224  -3.230   0.749  0.00  0.00     0.213 C 
HETATM   19  O   UNK N   1       1.253  -1.103  -0.479  0.00  0.00    -0.353 OA
HETATM   20  O   UNK N   1       0.886  -4.033  -0.349  0.00  0.00    -0.311 OA
HETATM   21  P   UNK N   1      -0.846  -4.053  -0.357  0.00  0.00     0.327 P 
HETATM   22  S   UNK N   1      -1.378  -4.988  -1.759  0.00  0.00    -0.007 SA
BRANCH  14  23
HETATM   23  O   UNK N   1      -0.629   0.527   1.371  0.00  0.00    -0.388 OA
HETATM   24  H   UNK N   1      -0.114   0.634   2.186  0.00  0.00     0.210 HD
ENDBRANCH  14  23
BRANCH  21  25
HETATM   25  O   UNK N   1      -1.505  -4.762   1.086  0.00  0.00    -0.324 OA
HETATM   26  H   UNK N   1      -2.032  -4.642   1.892  0.00  0.00     0.220 HD
ENDBRANCH  21  25
ENDBRANCH  12  13
BRANCH   4  27
HETATM   27  N   UNK N   1       3.821   4.798   0.221  0.00  0.00    -0.383 N 
HETATM   28  H   UNK N   1       4.731   5.165   0.288  0.00  0.00     0.157 HD
HETATM   29  H   UNK N   1       3.045   5.404   0.221  0.00  0.00     0.157 HD
ENDBRANCH   4  27
TORSDOF 4
