REMARK  1 active torsions:
REMARK  status: ('A' for Active; 'I' for Inactive)
REMARK    1  A    between atoms: C_6  and  O_7 
ROOT
HETATM    1  C   UNK N   1       3.098  -0.992   0.000  0.00  0.00     0.048 C 
HETATM    2  C   UNK N   1       1.785  -0.297   0.000  0.00  0.00    -0.059 A 
HETATM    3  C   UNK N   1       0.601  -1.040  -0.000  0.00  0.00     0.007 A 
HETATM    4  C   UNK N   1      -0.635  -0.386  -0.000  0.00  0.00     0.003 A 
HETATM    5  C   UNK N   1      -0.685   1.012  -0.000  0.00  0.00     0.036 A 
HETATM    6  C   UNK N   1       0.500   1.755  -0.000  0.00  0.00     0.066 A 
HETATM    7  C   UNK N   1       1.735   1.101   0.000  0.00  0.00     0.043 A 
ENDROOT
BRANCH   6   8
HETATM    8  O   UNK N   1       0.452   3.096  -0.000  0.00  0.00    -0.361 OA
HETATM    9  H   UNK N   1       1.246   3.594  -0.000  0.00  0.00     0.217 HD
ENDBRANCH   6   8
TORSDOF 1
