MODEL 1
REMARK VINA RESULT:      -7.9      0.000      0.000
REMARK  19 active torsions:
REMARK  status: ('A' for Active; 'I' for Inactive)
REMARK    1  A    between atoms: C_19  and  C_15 
REMARK    2  A    between atoms: C_24  and  C_15 
REMARK    3  A    between atoms: C_20  and  C_16 
REMARK    4  A    between atoms: C_22  and  C_16 
REMARK    5  A    between atoms: C_21  and  C_17 
REMARK    6  A    between atoms: C_25  and  C_17 
REMARK    7  A    between atoms: C_22  and  C_18 
REMARK    8  A    between atoms: C_22  and  N_35 
REMARK    9  A    between atoms: C_23  and  C_26 
REMARK   10  A    between atoms: C_27  and  C_24 
REMARK   11  A    between atoms: C_24  and  N_37 
REMARK   12  A    between atoms: C_29  and  C_25 
REMARK   13  A    between atoms: C_25  and  N_40 
REMARK   14  A    between atoms: C_28  and  C_26 
REMARK   15  A    between atoms: C_26  and  N_42 
REMARK   16  A    between atoms: C_27  and  O_44 
REMARK   17  A    between atoms: C_28  and  O_45 
REMARK   18  A    between atoms: O_47  and  C_29 
REMARK   19  A    between atoms: N_42  and  C_31 
ROOT
HETATM    1  C   UNK N   1      25.192  18.643   5.403  0.00  0.00     0.214 C 
HETATM    2  N   UNK N   1      26.081  17.733   5.612  0.00  0.00    -0.342 N 
ATOM      3  HN  UNK N   1      25.763  16.779   5.788  1.00  0.00     0.164 HD
HETATM    4  O   UNK N   1      25.564  19.921   5.190  0.00  0.00    -0.333 OA
HETATM    5  H   UNK N   1      25.810  20.797   4.961  0.00  0.00     0.220 HD
ENDROOT
BRANCH   1   6
HETATM    6  N   UNK N   1      23.818  18.264   5.326  0.00  0.00    -0.343 N 
HETATM    7  H   UNK N   1      23.329  18.174   6.175  0.00  0.00     0.164 HD
BRANCH   6   8
HETATM    8  C   UNK N   1      23.071  17.999   4.097  0.00  0.00     0.182 C 
BRANCH   8   9
HETATM    9  C   UNK N   1      21.874  18.965   3.864  0.00  0.00     0.131 C 
HETATM   10  C   UNK N   1      22.296  20.072   2.877  0.00  0.00     0.048 C 
HETATM   11  C   UNK N   1      21.098  20.905   2.460  0.00  0.00     0.140 C 
HETATM   12  N   UNK N   1      20.134  20.050   1.815  0.00  0.00    -0.227 N 
HETATM   13  C   UNK N   1      19.931  18.727   2.286  0.00  0.00     0.667 C 
HETATM   14  H   UNK N   1      19.616  20.384   1.047  0.00  0.00     0.177 HD
HETATM   15  N   UNK N   1      19.014  17.999   1.774  0.00  0.00    -0.235 N 
HETATM   16  N   UNK N   1      20.736  18.223   3.346  0.00  0.00    -0.220 N 
HETATM   17  H   UNK N   1      18.564  18.281   0.946  0.00  0.00     0.174 HD
ATOM     18  HN  UNK N   1      18.751  17.123   2.224  1.00  0.00     0.174 HD
HETATM   19  H   UNK N   1      20.517  17.348   3.739  0.00  0.00     0.178 HD
ENDBRANCH   8   9
BRANCH   8  20
HETATM   20  C   UNK N   1      22.692  16.540   4.076  0.00  0.00     0.137 C 
HETATM   21  N   UNK N   1      22.546  15.895   5.189  0.00  0.00    -0.361 N 
ATOM     22  HN  UNK N   1      22.601  16.437   6.051  1.00  0.00     0.162 HD
BRANCH  21  23
HETATM   23  C   UNK N   1      22.311  14.463   5.322  0.00  0.00     0.158 C 
BRANCH  23  24
HETATM   24  C   UNK N   1      23.392  13.812   6.199  0.00  0.00     0.037 C 
BRANCH  24  25
HETATM   25  C   UNK N   1      24.735  14.524   6.208  0.00  0.00    -0.020 C 
HETATM   26  C   UNK N   1      25.423  14.319   7.542  0.00  0.00     0.009 C 
HETATM   27  C   UNK N   1      25.599  13.925   5.118  0.00  0.00     0.009 C 
ENDBRANCH  24  25
ENDBRANCH  23  24
BRANCH  23  28
HETATM   28  C   UNK N   1      20.881  14.129   5.726  0.00  0.00     0.135 C 
HETATM   29  N   UNK N   1      20.366  14.399   6.890  0.00  0.00    -0.362 N 
ATOM     30  HN  UNK N   1      19.402  14.079   6.982  1.00  0.00     0.162 HD
BRANCH  29  31
HETATM   31  C   UNK N   1      20.867  15.065   8.097  0.00  0.00     0.149 C 
BRANCH  31  32
HETATM   32  C   UNK N   1      20.269  14.387   9.340  0.00  0.00     0.070 C 
BRANCH  32  33
HETATM   33  C   UNK N   1      21.235  13.484  10.033  0.00  0.00    -0.056 A 
HETATM   34  C   UNK N   1      20.799  12.608  11.029  0.00  0.00     0.007 A 
HETATM   35  C   UNK N   1      21.717  11.783  11.685  0.00  0.00     0.001 A 
HETATM   36  C   UNK N   1      23.073  11.834  11.342  0.00  0.00     0.000 A 
HETATM   37  C   UNK N   1      23.508  12.705  10.340  0.00  0.00     0.001 A 
HETATM   38  C   UNK N   1      22.590  13.528   9.686  0.00  0.00     0.007 A 
ENDBRANCH  32  33
ENDBRANCH  31  32
BRANCH  31  39
HETATM   39  C   UNK N   1      20.648  16.551   8.177  0.00  0.00     0.256 C 
HETATM   40  O   UNK N   1      21.059  17.318   7.318  0.00  0.00    -0.305 OA
ENDBRANCH  31  39
ENDBRANCH  29  31
BRANCH  28  41
HETATM   41  O   UNK N   1      20.090  13.517   4.824  0.00  0.00    -0.348 OA
HETATM   42  H   UNK N   1      19.180  13.622   4.628  0.00  0.00     0.219 HD
ENDBRANCH  28  41
ENDBRANCH  23  28
ENDBRANCH  21  23
BRANCH  20  43
HETATM   43  O   UNK N   1      22.598  15.909   2.886  0.00  0.00    -0.348 OA
HETATM   44  H   UNK N   1      23.034  15.727   2.077  0.00  0.00     0.219 HD
ENDBRANCH  20  43
ENDBRANCH   8  20
ENDBRANCH   6   8
ENDBRANCH   1   6
BRANCH   2  45
HETATM   45  C   UNK N   1      27.512  17.994   5.610  0.00  0.00     0.187 C 
BRANCH  45  46
HETATM   46  C   UNK N   1      28.270  16.840   6.267  0.00  0.00     0.074 C 
BRANCH  46  47
HETATM   47  C   UNK N   1      29.467  17.274   7.049  0.00  0.00    -0.056 A 
HETATM   48  C   UNK N   1      30.743  16.895   6.618  0.00  0.00     0.007 A 
HETATM   49  C   UNK N   1      31.871  17.266   7.353  0.00  0.00     0.001 A 
HETATM   50  C   UNK N   1      31.724  18.011   8.527  0.00  0.00     0.000 A 
HETATM   51  C   UNK N   1      30.449  18.387   8.964  0.00  0.00     0.001 A 
HETATM   52  C   UNK N   1      29.322  18.017   8.227  0.00  0.00     0.007 A 
ENDBRANCH  46  47
ENDBRANCH  45  46
BRANCH  45  53
HETATM   53  C   UNK N   1      27.987  18.140   4.188  0.00  0.00     0.163 C 
HETATM   54  O   UNK N   1      28.228  17.156   3.506  0.00  0.00    -0.648 OA
BRANCH  53  55
HETATM   55  O   UNK N   1      28.124  19.368   3.649  0.00  0.00    -0.775 OA
HETATM   56  H   UNK N   1      27.677  19.712   2.901  0.00  0.00     0.167 HD
ENDBRANCH  53  55
ENDBRANCH  45  53
ENDBRANCH   2  45
TORSDOF 19
ENDMDL
MODEL 2
REMARK VINA RESULT:      -7.7      9.070     13.734
REMARK  19 active torsions:
REMARK  status: ('A' for Active; 'I' for Inactive)
REMARK    1  A    between atoms: C_19  and  C_15 
REMARK    2  A    between atoms: C_24  and  C_15 
REMARK    3  A    between atoms: C_20  and  C_16 
REMARK    4  A    between atoms: C_22  and  C_16 
REMARK    5  A    between atoms: C_21  and  C_17 
REMARK    6  A    between atoms: C_25  and  C_17 
REMARK    7  A    between atoms: C_22  and  C_18 
REMARK    8  A    between atoms: C_22  and  N_35 
REMARK    9  A    between atoms: C_23  and  C_26 
REMARK   10  A    between atoms: C_27  and  C_24 
REMARK   11  A    between atoms: C_24  and  N_37 
REMARK   12  A    between atoms: C_29  and  C_25 
REMARK   13  A    between atoms: C_25  and  N_40 
REMARK   14  A    between atoms: C_28  and  C_26 
REMARK   15  A    between atoms: C_26  and  N_42 
REMARK   16  A    between atoms: C_27  and  O_44 
REMARK   17  A    between atoms: C_28  and  O_45 
REMARK   18  A    between atoms: O_47  and  C_29 
REMARK   19  A    between atoms: N_42  and  C_31 
ROOT
HETATM    1  C   UNK N   1      33.033  15.126   9.127  0.00  0.00     0.214 C 
HETATM    2  N   UNK N   1      33.357  16.374   9.149  0.00  0.00    -0.342 N 
ATOM      3  HN  UNK N   1      33.913  16.715   9.933  1.00  0.00     0.164 HD
HETATM    4  O   UNK N   1      32.279  14.636   8.123  0.00  0.00    -0.333 OA
HETATM    5  H   UNK N   1      31.824  14.265   7.392  0.00  0.00     0.220 HD
ENDROOT
BRANCH   1   6
HETATM    6  N   UNK N   1      33.547  14.261  10.140  0.00  0.00    -0.343 N 
HETATM    7  H   UNK N   1      32.892  13.796  10.708  0.00  0.00     0.164 HD
BRANCH   6   8
HETATM    8  C   UNK N   1      34.961  14.002  10.407  0.00  0.00     0.182 C 
BRANCH   8   9
HETATM    9  C   UNK N   1      35.705  13.294   9.238  0.00  0.00     0.131 C 
HETATM   10  C   UNK N   1      34.809  12.175   8.666  0.00  0.00     0.048 C 
HETATM   11  C   UNK N   1      35.408  11.607   7.392  0.00  0.00     0.140 C 
HETATM   12  N   UNK N   1      35.517  12.660   6.415  0.00  0.00    -0.227 N 
HETATM   13  C   UNK N   1      35.868  13.973   6.822  0.00  0.00     0.667 C 
HETATM   14  H   UNK N   1      35.348  12.468   5.464  0.00  0.00     0.177 HD
HETATM   15  N   UNK N   1      36.053  14.887   5.949  0.00  0.00    -0.235 N 
HETATM   16  N   UNK N   1      36.035  14.263   8.206  0.00  0.00    -0.220 N 
HETATM   17  H   UNK N   1      35.790  14.735   5.012  0.00  0.00     0.174 HD
ATOM     18  HN  UNK N   1      36.474  15.774   6.222  1.00  0.00     0.174 HD
HETATM   19  H   UNK N   1      36.385  15.143   8.471  0.00  0.00     0.178 HD
ENDBRANCH   8   9
BRANCH   8  20
HETATM   20  C   UNK N   1      35.072  13.283  11.727  0.00  0.00     0.137 C 
HETATM   21  N   UNK N   1      36.000  12.399  11.905  0.00  0.00    -0.361 N 
ATOM     22  HN  UNK N   1      36.691  12.294  11.162  1.00  0.00     0.162 HD
BRANCH  21  23
HETATM   23  C   UNK N   1      36.149  11.539  13.072  0.00  0.00     0.158 C 
BRANCH  23  24
HETATM   24  C   UNK N   1      35.752  10.092  12.738  0.00  0.00     0.037 C 
BRANCH  24  25
HETATM   25  C   UNK N   1      34.765   9.452  13.699  0.00  0.00    -0.020 C 
HETATM   26  C   UNK N   1      35.501   8.858  14.882  0.00  0.00     0.009 C 
HETATM   27  C   UNK N   1      33.824  10.527  14.202  0.00  0.00     0.009 C 
ENDBRANCH  24  25
ENDBRANCH  23  24
BRANCH  23  28
HETATM   28  C   UNK N   1      37.505  11.684  13.751  0.00  0.00     0.135 C 
HETATM   29  N   UNK N   1      37.769  12.555  14.681  0.00  0.00    -0.362 N 
ATOM     30  HN  UNK N   1      38.737  12.517  14.997  1.00  0.00     0.162 HD
BRANCH  29  31
HETATM   31  C   UNK N   1      36.978  13.578  15.374  0.00  0.00     0.149 C 
BRANCH  31  32
HETATM   32  C   UNK N   1      35.585  13.017  15.696  0.00  0.00     0.070 C 
BRANCH  32  33
HETATM   33  C   UNK N   1      35.449  12.572  17.115  0.00  0.00    -0.056 A 
HETATM   34  C   UNK N   1      35.167  13.494  18.125  0.00  0.00     0.007 A 
HETATM   35  C   UNK N   1      35.063  13.067  19.452  0.00  0.00     0.001 A 
HETATM   36  C   UNK N   1      35.240  11.715  19.768  0.00  0.00     0.000 A 
HETATM   37  C   UNK N   1      35.515  10.791  18.757  0.00  0.00     0.001 A 
HETATM   38  C   UNK N   1      35.618  11.219  17.432  0.00  0.00     0.007 A 
ENDBRANCH  32  33
ENDBRANCH  31  32
BRANCH  31  39
HETATM   39  C   UNK N   1      36.841  14.901  14.671  0.00  0.00     0.256 C 
HETATM   40  O   UNK N   1      36.327  15.003  13.567  0.00  0.00    -0.305 OA
ENDBRANCH  31  39
ENDBRANCH  29  31
BRANCH  28  41
HETATM   41  O   UNK N   1      38.499  10.859  13.372  0.00  0.00    -0.348 OA
HETATM   42  H   UNK N   1      38.504   9.942  13.186  0.00  0.00     0.219 HD
ENDBRANCH  28  41
ENDBRANCH  23  28
ENDBRANCH  21  23
BRANCH  20  43
HETATM   43  O   UNK N   1      34.138  13.515  12.675  0.00  0.00    -0.348 OA
HETATM   44  H   UNK N   1      33.542  13.118  13.279  0.00  0.00     0.219 HD
ENDBRANCH  20  43
ENDBRANCH   8  20
ENDBRANCH   6   8
ENDBRANCH   1   6
BRANCH   2  45
HETATM   45  C   UNK N   1      32.971  17.321   8.113  0.00  0.00     0.187 C 
BRANCH  45  46
HETATM   46  C   UNK N   1      32.021  18.377   8.677  0.00  0.00     0.074 C 
BRANCH  46  47
HETATM   47  C   UNK N   1      30.576  18.050   8.486  0.00  0.00    -0.056 A 
HETATM   48  C   UNK N   1      29.654  18.410   9.474  0.00  0.00     0.007 A 
HETATM   49  C   UNK N   1      28.303  18.085   9.325  0.00  0.00     0.001 A 
HETATM   50  C   UNK N   1      27.873  17.392   8.190  0.00  0.00     0.000 A 
HETATM   51  C   UNK N   1      28.794  17.026   7.203  0.00  0.00     0.001 A 
HETATM   52  C   UNK N   1      30.144  17.352   7.350  0.00  0.00     0.007 A 
ENDBRANCH  46  47
ENDBRANCH  45  46
BRANCH  45  53
HETATM   53  C   UNK N   1      34.204  18.007   7.585  0.00  0.00     0.163 C 
HETATM   54  O   UNK N   1      34.645  17.734   6.479  0.00  0.00    -0.648 OA
BRANCH  53  55
HETATM   55  O   UNK N   1      34.816  18.950   8.326  0.00  0.00    -0.775 OA
HETATM   56  H   UNK N   1      34.580  19.238   9.186  0.00  0.00     0.167 HD
ENDBRANCH  53  55
ENDBRANCH  45  53
ENDBRANCH   2  45
TORSDOF 19
ENDMDL
MODEL 3
REMARK VINA RESULT:      -7.7      8.725     13.207
REMARK  19 active torsions:
REMARK  status: ('A' for Active; 'I' for Inactive)
REMARK    1  A    between atoms: C_19  and  C_15 
REMARK    2  A    between atoms: C_24  and  C_15 
REMARK    3  A    between atoms: C_20  and  C_16 
REMARK    4  A    between atoms: C_22  and  C_16 
REMARK    5  A    between atoms: C_21  and  C_17 
REMARK    6  A    between atoms: C_25  and  C_17 
REMARK    7  A    between atoms: C_22  and  C_18 
REMARK    8  A    between atoms: C_22  and  N_35 
REMARK    9  A    between atoms: C_23  and  C_26 
REMARK   10  A    between atoms: C_27  and  C_24 
REMARK   11  A    between atoms: C_24  and  N_37 
REMARK   12  A    between atoms: C_29  and  C_25 
REMARK   13  A    between atoms: C_25  and  N_40 
REMARK   14  A    between atoms: C_28  and  C_26 
REMARK   15  A    between atoms: C_26  and  N_42 
REMARK   16  A    between atoms: C_27  and  O_44 
REMARK   17  A    between atoms: C_28  and  O_45 
REMARK   18  A    between atoms: O_47  and  C_29 
REMARK   19  A    between atoms: N_42  and  C_31 
ROOT
HETATM    1  C   UNK N   1      33.276  12.156   8.490  0.00  0.00     0.214 C 
HETATM    2  N   UNK N   1      32.604  11.395   9.285  0.00  0.00    -0.342 N 
ATOM      3  HN  UNK N   1      31.721  11.745   9.656  1.00  0.00     0.164 HD
HETATM    4  O   UNK N   1      34.461  11.746   7.995  0.00  0.00    -0.333 OA
HETATM    5  H   UNK N   1      35.245  11.442   7.580  0.00  0.00     0.220 HD
ENDROOT
BRANCH   1   6
HETATM    6  N   UNK N   1      32.713  13.404   8.085  0.00  0.00    -0.343 N 
HETATM    7  H   UNK N   1      32.448  13.492   7.142  0.00  0.00     0.164 HD
BRANCH   6   8
HETATM    8  C   UNK N   1      32.493  14.563   8.949  0.00  0.00     0.182 C 
BRANCH   8   9
HETATM    9  C   UNK N   1      32.173  15.875   8.176  0.00  0.00     0.131 C 
HETATM   10  C   UNK N   1      31.107  15.585   7.098  0.00  0.00     0.048 C 
HETATM   11  C   UNK N   1      30.614  16.876   6.470  0.00  0.00     0.140 C 
HETATM   12  N   UNK N   1      30.026  17.701   7.495  0.00  0.00    -0.227 N 
HETATM   13  C   UNK N   1      30.595  17.733   8.795  0.00  0.00     0.667 C 
HETATM   14  H   UNK N   1      29.229  18.243   7.294  0.00  0.00     0.177 HD
HETATM   15  N   UNK N   1      30.132  18.531   9.678  0.00  0.00    -0.235 N 
HETATM   16  N   UNK N   1      31.700  16.890   9.103  0.00  0.00    -0.220 N 
HETATM   17  H   UNK N   1      29.279  18.998   9.523  0.00  0.00     0.174 HD
ATOM     18  HN  UNK N   1      30.645  18.684  10.545  1.00  0.00     0.174 HD
HETATM   19  H   UNK N   1      32.157  16.998   9.967  0.00  0.00     0.178 HD
ENDBRANCH   8   9
BRANCH   8  20
HETATM   20  C   UNK N   1      33.661  14.680   9.894  0.00  0.00     0.137 C 
HETATM   21  N   UNK N   1      34.861  14.442   9.471  0.00  0.00    -0.361 N 
ATOM     22  HN  UNK N   1      34.976  14.276   8.471  1.00  0.00     0.162 HD
BRANCH  21  23
HETATM   23  C   UNK N   1      36.063  14.390  10.293  0.00  0.00     0.158 C 
BRANCH  23  24
HETATM   24  C   UNK N   1      37.309  14.163   9.423  0.00  0.00     0.037 C 
BRANCH  24  25
HETATM   25  C   UNK N   1      37.864  12.748   9.441  0.00  0.00    -0.020 C 
HETATM   26  C   UNK N   1      38.358  12.366   8.062  0.00  0.00     0.009 C 
HETATM   27  C   UNK N   1      39.031  12.706  10.406  0.00  0.00     0.009 C 
ENDBRANCH  24  25
ENDBRANCH  23  24
BRANCH  23  28
HETATM   28  C   UNK N   1      36.171  15.558  11.265  0.00  0.00     0.135 C 
HETATM   29  N   UNK N   1      36.312  15.430  12.551  0.00  0.00    -0.362 N 
ATOM     30  HN  UNK N   1      36.343  16.325  13.039  1.00  0.00     0.162 HD
BRANCH  29  31
HETATM   31  C   UNK N   1      36.437  14.280  13.455  0.00  0.00     0.149 C 
BRANCH  31  32
HETATM   32  C   UNK N   1      35.289  13.294  13.188  0.00  0.00     0.070 C 
BRANCH  32  33
HETATM   33  C   UNK N   1      35.393  12.045  14.000  0.00  0.00    -0.056 A 
HETATM   34  C   UNK N   1      34.255  11.471  14.569  0.00  0.00     0.007 A 
HETATM   35  C   UNK N   1      34.370  10.314  15.345  0.00  0.00     0.001 A 
HETATM   36  C   UNK N   1      35.624   9.730  15.549  0.00  0.00     0.000 A 
HETATM   37  C   UNK N   1      36.763  10.300  14.974  0.00  0.00     0.001 A 
HETATM   38  C   UNK N   1      36.647  11.455  14.200  0.00  0.00     0.007 A 
ENDBRANCH  32  33
ENDBRANCH  31  32
BRANCH  31  39
HETATM   39  C   UNK N   1      36.503  14.594  14.924  0.00  0.00     0.256 C 
HETATM   40  O   UNK N   1      37.547  14.537  15.557  0.00  0.00    -0.305 OA
ENDBRANCH  31  39
ENDBRANCH  29  31
BRANCH  28  41
HETATM   41  O   UNK N   1      36.122  16.809  10.767  0.00  0.00    -0.348 OA
HETATM   42  H   UNK N   1      35.692  17.156  10.011  0.00  0.00     0.219 HD
ENDBRANCH  28  41
ENDBRANCH  23  28
ENDBRANCH  21  23
BRANCH  20  43
HETATM   43  O   UNK N   1      33.421  14.948  11.196  0.00  0.00    -0.348 OA
HETATM   44  H   UNK N   1      33.605  15.531  11.906  0.00  0.00     0.219 HD
ENDBRANCH  20  43
ENDBRANCH   8  20
ENDBRANCH   6   8
ENDBRANCH   1   6
BRANCH   2  45
HETATM   45  C   UNK N   1      33.040  10.064   9.680  0.00  0.00     0.187 C 
BRANCH  45  46
HETATM   46  C   UNK N   1      33.413  10.039  11.162  0.00  0.00     0.074 C 
BRANCH  46  47
HETATM   47  C   UNK N   1      34.759   9.449  11.434  0.00  0.00    -0.056 A 
HETATM   48  C   UNK N   1      35.896  10.051  10.883  0.00  0.00     0.007 A 
HETATM   49  C   UNK N   1      37.159   9.496  11.102  0.00  0.00     0.001 A 
HETATM   50  C   UNK N   1      37.287   8.331  11.865  0.00  0.00     0.000 A 
HETATM   51  C   UNK N   1      36.151   7.724  12.412  0.00  0.00     0.001 A 
HETATM   52  C   UNK N   1      34.889   8.281  12.196  0.00  0.00     0.007 A 
ENDBRANCH  46  47
ENDBRANCH  45  46
BRANCH  45  53
HETATM   53  C   UNK N   1      31.920   9.086   9.443  0.00  0.00     0.163 C 
HETATM   54  O   UNK N   1      31.087   9.288   8.571  0.00  0.00    -0.648 OA
BRANCH  53  55
HETATM   55  O   UNK N   1      31.843   7.961  10.181  0.00  0.00    -0.775 OA
HETATM   56  H   UNK N   1      31.163   7.720  10.778  0.00  0.00     0.167 HD
ENDBRANCH  53  55
ENDBRANCH  45  53
ENDBRANCH   2  45
TORSDOF 19
ENDMDL
MODEL 4
REMARK VINA RESULT:      -7.7      9.755     14.291
REMARK  19 active torsions:
REMARK  status: ('A' for Active; 'I' for Inactive)
REMARK    1  A    between atoms: C_19  and  C_15 
REMARK    2  A    between atoms: C_24  and  C_15 
REMARK    3  A    between atoms: C_20  and  C_16 
REMARK    4  A    between atoms: C_22  and  C_16 
REMARK    5  A    between atoms: C_21  and  C_17 
REMARK    6  A    between atoms: C_25  and  C_17 
REMARK    7  A    between atoms: C_22  and  C_18 
REMARK    8  A    between atoms: C_22  and  N_35 
REMARK    9  A    between atoms: C_23  and  C_26 
REMARK   10  A    between atoms: C_27  and  C_24 
REMARK   11  A    between atoms: C_24  and  N_37 
REMARK   12  A    between atoms: C_29  and  C_25 
REMARK   13  A    between atoms: C_25  and  N_40 
REMARK   14  A    between atoms: C_28  and  C_26 
REMARK   15  A    between atoms: C_26  and  N_42 
REMARK   16  A    between atoms: C_27  and  O_44 
REMARK   17  A    between atoms: C_28  and  O_45 
REMARK   18  A    between atoms: O_47  and  C_29 
REMARK   19  A    between atoms: N_42  and  C_31 
ROOT
HETATM    1  C   UNK N   1      33.190  15.462   9.624  0.00  0.00     0.214 C 
HETATM    2  N   UNK N   1      33.388  16.726   9.460  0.00  0.00    -0.342 N 
ATOM      3  HN  UNK N   1      33.873  17.238  10.196  1.00  0.00     0.164 HD
HETATM    4  O   UNK N   1      32.532  14.749   8.689  0.00  0.00    -0.333 OA
HETATM    5  H   UNK N   1      32.148  14.225   8.012  0.00  0.00     0.220 HD
ENDROOT
BRANCH   1   6
HETATM    6  N   UNK N   1      33.743  14.819  10.773  0.00  0.00    -0.343 N 
HETATM    7  H   UNK N   1      33.111  14.501  11.457  0.00  0.00     0.164 HD
BRANCH   6   8
HETATM    8  C   UNK N   1      35.165  14.590  11.023  0.00  0.00     0.182 C 
BRANCH   8   9
HETATM    9  C   UNK N   1      35.935  14.007   9.803  0.00  0.00     0.131 C 
HETATM   10  C   UNK N   1      37.451  14.067  10.080  0.00  0.00     0.048 C 
HETATM   11  C   UNK N   1      38.222  13.315   9.010  0.00  0.00     0.140 C 
HETATM   12  N   UNK N   1      37.803  11.936   9.013  0.00  0.00    -0.227 N 
HETATM   13  C   UNK N   1      36.444  11.607   9.251  0.00  0.00     0.667 C 
HETATM   14  H   UNK N   1      38.461  11.222   8.850  0.00  0.00     0.177 HD
HETATM   15  N   UNK N   1      36.054  10.394   9.164  0.00  0.00    -0.235 N 
HETATM   16  N   UNK N   1      35.512  12.637   9.562  0.00  0.00    -0.220 N 
HETATM   17  H   UNK N   1      36.714   9.666   9.104  0.00  0.00     0.174 HD
ATOM     18  HN  UNK N   1      35.057  10.179   9.158  1.00  0.00     0.174 HD
HETATM   19  H   UNK N   1      34.555  12.415   9.617  0.00  0.00     0.178 HD
ENDBRANCH   8   9
BRANCH   8  20
HETATM   20  C   UNK N   1      35.300  13.769  12.280  0.00  0.00     0.137 C 
HETATM   21  N   UNK N   1      36.315  13.949  13.063  0.00  0.00    -0.361 N 
ATOM     22  HN  UNK N   1      36.942  14.722  12.840  1.00  0.00     0.162 HD
BRANCH  21  23
HETATM   23  C   UNK N   1      36.643  13.147  14.235  0.00  0.00     0.158 C 
BRANCH  23  24
HETATM   24  C   UNK N   1      37.811  12.195  13.935  0.00  0.00     0.037 C 
BRANCH  24  25
HETATM   25  C   UNK N   1      37.457  10.717  13.926  0.00  0.00    -0.020 C 
HETATM   26  C   UNK N   1      37.414  10.201  12.502  0.00  0.00     0.009 C 
HETATM   27  C   UNK N   1      38.531   9.965  14.684  0.00  0.00     0.009 C 
ENDBRANCH  24  25
ENDBRANCH  23  24
BRANCH  23  28
HETATM   28  C   UNK N   1      36.812  13.981  15.499  0.00  0.00     0.135 C 
HETATM   29  N   UNK N   1      36.126  13.805  16.589  0.00  0.00    -0.362 N 
ATOM     30  HN  UNK N   1      36.364  14.475  17.321  1.00  0.00     0.162 HD
BRANCH  29  31
HETATM   31  C   UNK N   1      35.085  12.855  16.998  0.00  0.00     0.149 C 
BRANCH  31  32
HETATM   32  C   UNK N   1      35.707  11.462  17.178  0.00  0.00     0.070 C 
BRANCH  32  33
HETATM   33  C   UNK N   1      35.107  10.698  18.311  0.00  0.00    -0.056 A 
HETATM   34  C   UNK N   1      35.249  11.147  19.625  0.00  0.00     0.007 A 
HETATM   35  C   UNK N   1      34.700  10.411  20.679  0.00  0.00     0.001 A 
HETATM   36  C   UNK N   1      34.006   9.225  20.417  0.00  0.00     0.000 A 
HETATM   37  C   UNK N   1      33.856   8.778  19.101  0.00  0.00     0.001 A 
HETATM   38  C   UNK N   1      34.405   9.515  18.050  0.00  0.00     0.007 A 
ENDBRANCH  32  33
ENDBRANCH  31  32
BRANCH  31  39
HETATM   39  C   UNK N   1      33.882  12.760  16.099  0.00  0.00     0.256 C 
HETATM   40  O   UNK N   1      33.786  11.911  15.226  0.00  0.00    -0.305 OA
ENDBRANCH  31  39
ENDBRANCH  29  31
BRANCH  28  41
HETATM   41  O   UNK N   1      37.734  14.963  15.496  0.00  0.00    -0.348 OA
HETATM   42  H   UNK N   1      37.653  15.887  15.627  0.00  0.00     0.219 HD
ENDBRANCH  28  41
ENDBRANCH  23  28
ENDBRANCH  21  23
BRANCH  20  43
HETATM   43  O   UNK N   1      34.397  12.794  12.521  0.00  0.00    -0.348 OA
HETATM   44  H   UNK N   1      33.815  12.426  13.157  0.00  0.00     0.219 HD
ENDBRANCH  20  43
ENDBRANCH   8  20
ENDBRANCH   6   8
ENDBRANCH   1   6
BRANCH   2  45
HETATM   45  C   UNK N   1      32.955  17.458   8.279  0.00  0.00     0.187 C 
BRANCH  45  46
HETATM   46  C   UNK N   1      31.930  18.527   8.656  0.00  0.00     0.074 C 
BRANCH  46  47
HETATM   47  C   UNK N   1      30.512  18.096   8.462  0.00  0.00    -0.056 A 
HETATM   48  C   UNK N   1      29.554  18.434   9.425  0.00  0.00     0.007 A 
HETATM   49  C   UNK N   1      28.231  18.013   9.274  0.00  0.00     0.001 A 
HETATM   50  C   UNK N   1      27.864  17.244   8.166  0.00  0.00     0.000 A 
HETATM   51  C   UNK N   1      28.821  16.900   7.205  0.00  0.00     0.001 A 
HETATM   52  C   UNK N   1      30.144  17.323   7.353  0.00  0.00     0.007 A 
ENDBRANCH  46  47
ENDBRANCH  45  46
BRANCH  45  53
HETATM   53  C   UNK N   1      34.147  18.128   7.648  0.00  0.00     0.163 C 
HETATM   54  O   UNK N   1      34.794  18.962   8.264  0.00  0.00    -0.648 OA
BRANCH  53  55
HETATM   55  O   UNK N   1      34.524  17.790   6.399  0.00  0.00    -0.775 OA
HETATM   56  H   UNK N   1      34.989  17.020   6.136  0.00  0.00     0.167 HD
ENDBRANCH  53  55
ENDBRANCH  45  53
ENDBRANCH   2  45
TORSDOF 19
ENDMDL
MODEL 5
REMARK VINA RESULT:      -7.7      1.918      7.722
REMARK  19 active torsions:
REMARK  status: ('A' for Active; 'I' for Inactive)
REMARK    1  A    between atoms: C_19  and  C_15 
REMARK    2  A    between atoms: C_24  and  C_15 
REMARK    3  A    between atoms: C_20  and  C_16 
REMARK    4  A    between atoms: C_22  and  C_16 
REMARK    5  A    between atoms: C_21  and  C_17 
REMARK    6  A    between atoms: C_25  and  C_17 
REMARK    7  A    between atoms: C_22  and  C_18 
REMARK    8  A    between atoms: C_22  and  N_35 
REMARK    9  A    between atoms: C_23  and  C_26 
REMARK   10  A    between atoms: C_27  and  C_24 
REMARK   11  A    between atoms: C_24  and  N_37 
REMARK   12  A    between atoms: C_29  and  C_25 
REMARK   13  A    between atoms: C_25  and  N_40 
REMARK   14  A    between atoms: C_28  and  C_26 
REMARK   15  A    between atoms: C_26  and  N_42 
REMARK   16  A    between atoms: C_27  and  O_44 
REMARK   17  A    between atoms: C_28  and  O_45 
REMARK   18  A    between atoms: O_47  and  C_29 
REMARK   19  A    between atoms: N_42  and  C_31 
ROOT
HETATM    1  C   UNK N   1      22.480  16.172   6.478  0.00  0.00     0.214 C 
HETATM    2  N   UNK N   1      21.594  15.610   7.228  0.00  0.00    -0.342 N 
ATOM      3  HN  UNK N   1      20.836  16.185   7.594  1.00  0.00     0.164 HD
HETATM    4  O   UNK N   1      23.514  15.457   5.991  0.00  0.00    -0.333 OA
HETATM    5  H   UNK N   1      24.192  14.955   5.581  0.00  0.00     0.220 HD
ENDROOT
BRANCH   1   6
HETATM    6  N   UNK N   1      22.307  17.541   6.111  0.00  0.00    -0.343 N 
HETATM    7  H   UNK N   1      21.740  18.094   6.695  0.00  0.00     0.164 HD
BRANCH   6   8
HETATM    8  C   UNK N   1      22.898  18.195   4.944  0.00  0.00     0.182 C 
BRANCH   8   9
HETATM    9  C   UNK N   1      21.975  18.206   3.692  0.00  0.00     0.131 C 
HETATM   10  C   UNK N   1      20.542  17.817   4.110  0.00  0.00     0.048 C 
HETATM   11  C   UNK N   1      19.572  18.026   2.961  0.00  0.00     0.140 C 
HETATM   12  N   UNK N   1      19.585  19.416   2.583  0.00  0.00    -0.227 N 
HETATM   13  C   UNK N   1      20.800  20.148   2.608  0.00  0.00     0.667 C 
HETATM   14  H   UNK N   1      18.750  19.858   2.306  0.00  0.00     0.177 HD
HETATM   15  N   UNK N   1      20.831  21.354   2.188  0.00  0.00    -0.235 N 
HETATM   16  N   UNK N   1      21.990  19.526   3.081  0.00  0.00    -0.220 N 
HETATM   17  H   UNK N   1      19.991  21.835   2.008  0.00  0.00     0.174 HD
ATOM     18  HN  UNK N   1      21.726  21.818   2.039  1.00  0.00     0.174 HD
HETATM   19  H   UNK N   1      22.846  20.002   2.992  0.00  0.00     0.178 HD
ENDBRANCH   8   9
BRANCH   8  20
HETATM   20  C   UNK N   1      24.256  17.590   4.697  0.00  0.00     0.137 C 
HETATM   21  N   UNK N   1      25.252  17.905   5.462  0.00  0.00    -0.361 N 
ATOM     22  HN  UNK N   1      25.048  18.487   6.275  1.00  0.00     0.162 HD
BRANCH  21  23
HETATM   23  C   UNK N   1      26.639  17.504   5.268  0.00  0.00     0.158 C 
BRANCH  23  24
HETATM   24  C   UNK N   1      27.566  18.730   5.258  0.00  0.00     0.037 C 
BRANCH  24  25
HETATM   25  C   UNK N   1      26.862  20.073   5.162  0.00  0.00    -0.020 C 
HETATM   26  C   UNK N   1      27.595  21.105   5.993  0.00  0.00     0.009 C 
HETATM   27  C   UNK N   1      26.876  20.516   3.714  0.00  0.00     0.009 C 
ENDBRANCH  24  25
ENDBRANCH  23  24
BRANCH  23  28
HETATM   28  C   UNK N   1      27.074  16.388   6.210  0.00  0.00     0.135 C 
HETATM   29  N   UNK N   1      28.037  16.495   7.077  0.00  0.00    -0.362 N 
ATOM     30  HN  UNK N   1      28.197  15.635   7.602  1.00  0.00     0.162 HD
BRANCH  29  31
HETATM   31  C   UNK N   1      28.942  17.582   7.468  0.00  0.00     0.149 C 
BRANCH  31  32
HETATM   32  C   UNK N   1      30.344  17.010   7.732  0.00  0.00     0.070 C 
BRANCH  32  33
HETATM   33  C   UNK N   1      31.276  17.198   6.581  0.00  0.00    -0.056 A 
HETATM   34  C   UNK N   1      30.790  17.242   5.273  0.00  0.00     0.007 A 
HETATM   35  C   UNK N   1      31.677  17.398   4.203  0.00  0.00     0.001 A 
HETATM   36  C   UNK N   1      33.050  17.512   4.443  0.00  0.00     0.000 A 
HETATM   37  C   UNK N   1      33.536  17.475   5.753  0.00  0.00     0.001 A 
HETATM   38  C   UNK N   1      32.650  17.320   6.820  0.00  0.00     0.007 A 
ENDBRANCH  32  33
ENDBRANCH  31  32
BRANCH  31  39
HETATM   39  C   UNK N   1      28.509  18.420   8.640  0.00  0.00     0.256 C 
HETATM   40  O   UNK N   1      27.765  17.989   9.509  0.00  0.00    -0.305 OA
ENDBRANCH  31  39
ENDBRANCH  29  31
BRANCH  28  41
HETATM   41  O   UNK N   1      26.422  15.211   6.148  0.00  0.00    -0.348 OA
HETATM   42  H   UNK N   1      25.526  14.992   6.312  0.00  0.00     0.219 HD
ENDBRANCH  28  41
ENDBRANCH  23  28
ENDBRANCH  21  23
BRANCH  20  43
HETATM   43  O   UNK N   1      24.428  16.793   3.621  0.00  0.00    -0.348 OA
HETATM   44  H   UNK N   1      24.123  16.592   2.758  0.00  0.00     0.219 HD
ENDBRANCH  20  43
ENDBRANCH   8  20
ENDBRANCH   6   8
ENDBRANCH   1   6
BRANCH   2  45
HETATM   45  C   UNK N   1      21.621  14.198   7.579  0.00  0.00     0.187 C 
BRANCH  45  46
HETATM   46  C   UNK N   1      21.266  14.005   9.054  0.00  0.00     0.074 C 
BRANCH  46  47
HETATM   47  C   UNK N   1      22.327  13.310   9.842  0.00  0.00    -0.056 A 
HETATM   48  C   UNK N   1      23.652  13.346   9.392  0.00  0.00     0.007 A 
HETATM   49  C   UNK N   1      24.652  12.677  10.102  0.00  0.00     0.001 A 
HETATM   50  C   UNK N   1      24.328  11.961  11.258  0.00  0.00     0.000 A 
HETATM   51  C   UNK N   1      23.004  11.918  11.707  0.00  0.00     0.001 A 
HETATM   52  C   UNK N   1      22.004  12.589  11.000  0.00  0.00     0.007 A 
ENDBRANCH  46  47
ENDBRANCH  45  46
BRANCH  45  53
HETATM   53  C   UNK N   1      20.617  13.458   6.735  0.00  0.00     0.163 C 
HETATM   54  O   UNK N   1      20.611  12.237   6.699  0.00  0.00    -0.648 OA
BRANCH  53  55
HETATM   55  O   UNK N   1      19.697  14.146   6.030  0.00  0.00    -0.775 OA
HETATM   56  H   UNK N   1      18.807  14.311   6.270  0.00  0.00     0.167 HD
ENDBRANCH  53  55
ENDBRANCH  45  53
ENDBRANCH   2  45
TORSDOF 19
ENDMDL
MODEL 6
REMARK VINA RESULT:      -7.6      2.672      7.326
REMARK  19 active torsions:
REMARK  status: ('A' for Active; 'I' for Inactive)
REMARK    1  A    between atoms: C_19  and  C_15 
REMARK    2  A    between atoms: C_24  and  C_15 
REMARK    3  A    between atoms: C_20  and  C_16 
REMARK    4  A    between atoms: C_22  and  C_16 
REMARK    5  A    between atoms: C_21  and  C_17 
REMARK    6  A    between atoms: C_25  and  C_17 
REMARK    7  A    between atoms: C_22  and  C_18 
REMARK    8  A    between atoms: C_22  and  N_35 
REMARK    9  A    between atoms: C_23  and  C_26 
REMARK   10  A    between atoms: C_27  and  C_24 
REMARK   11  A    between atoms: C_24  and  N_37 
REMARK   12  A    between atoms: C_29  and  C_25 
REMARK   13  A    between atoms: C_25  and  N_40 
REMARK   14  A    between atoms: C_28  and  C_26 
REMARK   15  A    between atoms: C_26  and  N_42 
REMARK   16  A    between atoms: C_27  and  O_44 
REMARK   17  A    between atoms: C_28  and  O_45 
REMARK   18  A    between atoms: O_47  and  C_29 
REMARK   19  A    between atoms: N_42  and  C_31 
ROOT
HETATM    1  C   UNK N   1      21.672  16.260   6.584  0.00  0.00     0.214 C 
HETATM    2  N   UNK N   1      20.879  15.289   6.889  0.00  0.00    -0.342 N 
ATOM      3  HN  UNK N   1      19.879  15.415   6.730  1.00  0.00     0.164 HD
HETATM    4  O   UNK N   1      22.998  16.148   6.800  0.00  0.00    -0.333 OA
HETATM    5  H   UNK N   1      23.929  16.054   6.869  0.00  0.00     0.220 HD
ENDROOT
BRANCH   1   6
HETATM    6  N   UNK N   1      21.134  17.419   5.949  0.00  0.00    -0.343 N 
HETATM    7  H   UNK N   1      20.195  17.641   6.140  0.00  0.00     0.164 HD
BRANCH   6   8
HETATM    8  C   UNK N   1      21.856  18.308   5.039  0.00  0.00     0.182 C 
BRANCH   8   9
HETATM    9  C   UNK N   1      20.937  19.069   4.040  0.00  0.00     0.131 C 
HETATM   10  C   UNK N   1      21.808  19.928   3.099  0.00  0.00     0.048 C 
HETATM   11  C   UNK N   1      20.968  20.514   1.978  0.00  0.00     0.140 C 
HETATM   12  N   UNK N   1      20.384  19.438   1.218  0.00  0.00    -0.227 N 
HETATM   13  C   UNK N   1      19.940  18.262   1.877  0.00  0.00     0.667 C 
HETATM   14  H   UNK N   1      20.293  19.519   0.241  0.00  0.00     0.177 HD
HETATM   15  N   UNK N   1      19.341  17.347   1.218  0.00  0.00    -0.235 N 
HETATM   16  N   UNK N   1      20.144  18.118   3.278  0.00  0.00    -0.220 N 
HETATM   17  H   UNK N   1      19.335  17.369   0.234  0.00  0.00     0.174 HD
ATOM     18  HN  UNK N   1      18.868  16.591   1.713  1.00  0.00     0.174 HD
HETATM   19  H   UNK N   1      19.737  17.353   3.744  0.00  0.00     0.178 HD
ENDBRANCH   8   9
BRANCH   8  20
HETATM   20  C   UNK N   1      22.957  17.520   4.378  0.00  0.00     0.137 C 
HETATM   21  N   UNK N   1      24.194  17.774   4.664  0.00  0.00    -0.361 N 
ATOM     22  HN  UNK N   1      24.370  18.445   5.412  1.00  0.00     0.162 HD
BRANCH  21  23
HETATM   23  C   UNK N   1      25.359  17.187   4.015  0.00  0.00     0.158 C 
BRANCH  23  24
HETATM   24  C   UNK N   1      26.268  18.282   3.433  0.00  0.00     0.037 C 
BRANCH  24  25
HETATM   25  C   UNK N   1      25.986  19.690   3.929  0.00  0.00    -0.020 C 
HETATM   26  C   UNK N   1      27.235  20.285   4.545  0.00  0.00     0.009 C 
HETATM   27  C   UNK N   1      25.576  20.540   2.744  0.00  0.00     0.009 C 
ENDBRANCH  24  25
ENDBRANCH  23  24
BRANCH  23  28
HETATM   28  C   UNK N   1      26.076  16.165   4.887  0.00  0.00     0.135 C 
HETATM   29  N   UNK N   1      26.773  15.169   4.425  0.00  0.00    -0.362 N 
ATOM     30  HN  UNK N   1      27.159  14.578   5.162  1.00  0.00     0.162 HD
BRANCH  29  31
HETATM   31  C   UNK N   1      27.127  14.709   3.078  0.00  0.00     0.149 C 
BRANCH  31  32
HETATM   32  C   UNK N   1      26.652  13.259   2.891  0.00  0.00     0.070 C 
BRANCH  32  33
HETATM   33  C   UNK N   1      25.551  13.131   1.892  0.00  0.00    -0.056 A 
HETATM   34  C   UNK N   1      25.271  11.899   1.297  0.00  0.00     0.007 A 
HETATM   35  C   UNK N   1      24.250  11.797   0.348  0.00  0.00     0.001 A 
HETATM   36  C   UNK N   1      23.508  12.929  -0.006  0.00  0.00     0.000 A 
HETATM   37  C   UNK N   1      23.784  14.161   0.593  0.00  0.00     0.001 A 
HETATM   38  C   UNK N   1      24.803  14.261   1.542  0.00  0.00     0.007 A 
ENDBRANCH  32  33
ENDBRANCH  31  32
BRANCH  31  39
HETATM   39  C   UNK N   1      28.579  14.819   2.698  0.00  0.00     0.256 C 
HETATM   40  O   UNK N   1      29.070  14.153   1.798  0.00  0.00    -0.305 OA
ENDBRANCH  31  39
ENDBRANCH  29  31
BRANCH  28  41
HETATM   41  O   UNK N   1      25.991  16.296   6.225  0.00  0.00    -0.348 OA
HETATM   42  H   UNK N   1      26.635  16.200   6.898  0.00  0.00     0.219 HD
ENDBRANCH  28  41
ENDBRANCH  23  28
ENDBRANCH  21  23
BRANCH  20  43
HETATM   43  O   UNK N   1      22.632  16.616   3.429  0.00  0.00    -0.348 OA
HETATM   44  H   UNK N   1      22.650  15.709   3.194  0.00  0.00     0.219 HD
ENDBRANCH  20  43
ENDBRANCH   8  20
ENDBRANCH   6   8
ENDBRANCH   1   6
BRANCH   2  45
HETATM   45  C   UNK N   1      21.336  14.025   7.447  0.00  0.00     0.187 C 
BRANCH  45  46
HETATM   46  C   UNK N   1      20.982  13.934   8.931  0.00  0.00     0.074 C 
BRANCH  46  47
HETATM   47  C   UNK N   1      22.031  13.268   9.760  0.00  0.00    -0.056 A 
HETATM   48  C   UNK N   1      23.368  13.324   9.351  0.00  0.00     0.007 A 
HETATM   49  C   UNK N   1      24.358  12.681  10.098  0.00  0.00     0.001 A 
HETATM   50  C   UNK N   1      24.011  11.972  11.252  0.00  0.00     0.000 A 
HETATM   51  C   UNK N   1      22.675  11.909  11.660  0.00  0.00     0.001 A 
HETATM   52  C   UNK N   1      21.686  12.554  10.915  0.00  0.00     0.007 A 
ENDBRANCH  46  47
ENDBRANCH  45  46
BRANCH  45  53
HETATM   53  C   UNK N   1      20.667  12.891   6.716  0.00  0.00     0.163 C 
HETATM   54  O   UNK N   1      21.008  11.734   6.912  0.00  0.00    -0.648 OA
BRANCH  53  55
HETATM   55  O   UNK N   1      19.663  13.147   5.855  0.00  0.00    -0.775 OA
HETATM   56  H   UNK N   1      18.827  13.521   6.053  0.00  0.00     0.167 HD
ENDBRANCH  53  55
ENDBRANCH  45  53
ENDBRANCH   2  45
TORSDOF 19
ENDMDL
MODEL 7
REMARK VINA RESULT:      -7.6      3.170      7.908
REMARK  19 active torsions:
REMARK  status: ('A' for Active; 'I' for Inactive)
REMARK    1  A    between atoms: C_19  and  C_15 
REMARK    2  A    between atoms: C_24  and  C_15 
REMARK    3  A    between atoms: C_20  and  C_16 
REMARK    4  A    between atoms: C_22  and  C_16 
REMARK    5  A    between atoms: C_21  and  C_17 
REMARK    6  A    between atoms: C_25  and  C_17 
REMARK    7  A    between atoms: C_22  and  C_18 
REMARK    8  A    between atoms: C_22  and  N_35 
REMARK    9  A    between atoms: C_23  and  C_26 
REMARK   10  A    between atoms: C_27  and  C_24 
REMARK   11  A    between atoms: C_24  and  N_37 
REMARK   12  A    between atoms: C_29  and  C_25 
REMARK   13  A    between atoms: C_25  and  N_40 
REMARK   14  A    between atoms: C_28  and  C_26 
REMARK   15  A    between atoms: C_26  and  N_42 
REMARK   16  A    between atoms: C_27  and  O_44 
REMARK   17  A    between atoms: C_28  and  O_45 
REMARK   18  A    between atoms: O_47  and  C_29 
REMARK   19  A    between atoms: N_42  and  C_31 
ROOT
HETATM    1  C   UNK N   1      20.419  16.256   5.490  0.00  0.00     0.214 C 
HETATM    2  N   UNK N   1      21.139  15.206   5.699  0.00  0.00    -0.342 N 
ATOM      3  HN  UNK N   1      22.090  15.334   6.044  1.00  0.00     0.164 HD
HETATM    4  O   UNK N   1      19.165  16.137   5.011  0.00  0.00    -0.333 OA
HETATM    5  H   UNK N   1      18.265  16.066   4.755  0.00  0.00     0.220 HD
ENDROOT
BRANCH   1   6
HETATM    6  N   UNK N   1      20.944  17.535   5.843  0.00  0.00    -0.343 N 
HETATM    7  H   UNK N   1      20.760  17.860   6.754  0.00  0.00     0.164 HD
BRANCH   6   8
HETATM    8  C   UNK N   1      21.731  18.408   4.973  0.00  0.00     0.182 C 
BRANCH   8   9
HETATM    9  C   UNK N   1      20.884  19.185   3.925  0.00  0.00     0.131 C 
HETATM   10  C   UNK N   1      21.824  19.989   3.003  0.00  0.00     0.048 C 
HETATM   11  C   UNK N   1      21.053  20.586   1.840  0.00  0.00     0.140 C 
HETATM   12  N   UNK N   1      20.455  19.520   1.077  0.00  0.00    -0.227 N 
HETATM   13  C   UNK N   1      19.938  18.376   1.739  0.00  0.00     0.667 C 
HETATM   14  H   UNK N   1      20.404  19.585   0.096  0.00  0.00     0.177 HD
HETATM   15  N   UNK N   1      19.327  17.473   1.074  0.00  0.00    -0.235 N 
HETATM   16  N   UNK N   1      20.082  18.252   3.150  0.00  0.00    -0.220 N 
HETATM   17  H   UNK N   1      19.360  17.476   0.091  0.00  0.00     0.174 HD
ATOM     18  HN  UNK N   1      18.805  16.747   1.564  1.00  0.00     0.174 HD
HETATM   19  H   UNK N   1      19.626  17.513   3.614  0.00  0.00     0.178 HD
ENDBRANCH   8   9
BRANCH   8  20
HETATM   20  C   UNK N   1      22.850  17.596   4.374  0.00  0.00     0.137 C 
HETATM   21  N   UNK N   1      24.069  17.787   4.768  0.00  0.00    -0.361 N 
ATOM     22  HN  UNK N   1      24.209  18.423   5.551  1.00  0.00     0.162 HD
BRANCH  21  23
HETATM   23  C   UNK N   1      25.259  17.173   4.192  0.00  0.00     0.158 C 
BRANCH  23  24
HETATM   24  C   UNK N   1      26.136  18.228   3.500  0.00  0.00     0.037 C 
BRANCH  24  25
HETATM   25  C   UNK N   1      25.931  19.656   3.977  0.00  0.00    -0.020 C 
HETATM   26  C   UNK N   1      27.217  20.199   4.564  0.00  0.00     0.009 C 
HETATM   27  C   UNK N   1      25.543  20.506   2.785  0.00  0.00     0.009 C 
ENDBRANCH  24  25
ENDBRANCH  23  24
BRANCH  23  28
HETATM   28  C   UNK N   1      26.001  16.275   5.174  0.00  0.00     0.135 C 
HETATM   29  N   UNK N   1      26.475  15.101   4.879  0.00  0.00    -0.362 N 
ATOM     30  HN  UNK N   1      26.920  14.641   5.673  1.00  0.00     0.162 HD
BRANCH  29  31
HETATM   31  C   UNK N   1      26.512  14.294   3.653  0.00  0.00     0.149 C 
BRANCH  31  32
HETATM   32  C   UNK N   1      25.379  13.256   3.692  0.00  0.00     0.070 C 
BRANCH  32  33
HETATM   33  C   UNK N   1      24.749  13.032   2.357  0.00  0.00    -0.056 A 
HETATM   34  C   UNK N   1      24.635  11.743   1.833  0.00  0.00     0.007 A 
HETATM   35  C   UNK N   1      24.061  11.550   0.573  0.00  0.00     0.001 A 
HETATM   36  C   UNK N   1      23.599  12.647  -0.162  0.00  0.00     0.000 A 
HETATM   37  C   UNK N   1      23.706  13.937   0.366  0.00  0.00     0.001 A 
HETATM   38  C   UNK N   1      24.279  14.128   1.624  0.00  0.00     0.007 A 
ENDBRANCH  32  33
ENDBRANCH  31  32
BRANCH  31  39
HETATM   39  C   UNK N   1      27.816  13.610   3.347  0.00  0.00     0.256 C 
HETATM   40  O   UNK N   1      28.232  13.479   2.205  0.00  0.00    -0.305 OA
ENDBRANCH  31  39
ENDBRANCH  29  31
BRANCH  28  41
HETATM   41  O   UNK N   1      26.185  16.721   6.431  0.00  0.00    -0.348 OA
HETATM   42  H   UNK N   1      26.879  17.220   6.815  0.00  0.00     0.219 HD
ENDBRANCH  28  41
ENDBRANCH  23  28
ENDBRANCH  21  23
BRANCH  20  43
HETATM   43  O   UNK N   1      22.568  16.741   3.368  0.00  0.00    -0.348 OA
HETATM   44  H   UNK N   1      22.247  15.886   3.153  0.00  0.00     0.219 HD
ENDBRANCH  20  43
ENDBRANCH   8  20
ENDBRANCH   6   8
ENDBRANCH   1   6
BRANCH   2  45
HETATM   45  C   UNK N   1      20.665  13.850   5.468  0.00  0.00     0.187 C 
BRANCH  45  46
HETATM   46  C   UNK N   1      21.587  13.117   4.494  0.00  0.00     0.074 C 
BRANCH  46  47
HETATM   47  C   UNK N   1      21.001  12.937   3.131  0.00  0.00    -0.056 A 
HETATM   48  C   UNK N   1      20.907  11.651   2.588  0.00  0.00     0.007 A 
HETATM   49  C   UNK N   1      20.390  11.468   1.303  0.00  0.00     0.001 A 
HETATM   50  C   UNK N   1      19.973  12.573   0.554  0.00  0.00     0.000 A 
HETATM   51  C   UNK N   1      20.071  13.860   1.093  0.00  0.00     0.001 A 
HETATM   52  C   UNK N   1      20.586  14.043   2.378  0.00  0.00     0.007 A 
ENDBRANCH  46  47
ENDBRANCH  45  46
BRANCH  45  53
HETATM   53  C   UNK N   1      20.646  13.103   6.776  0.00  0.00     0.163 C 
HETATM   54  O   UNK N   1      20.383  13.679   7.820  0.00  0.00    -0.648 OA
BRANCH  53  55
HETATM   55  O   UNK N   1      20.897  11.779   6.796  0.00  0.00    -0.775 OA
HETATM   56  H   UNK N   1      20.958  11.202   6.061  0.00  0.00     0.167 HD
ENDBRANCH  53  55
ENDBRANCH  45  53
ENDBRANCH   2  45
TORSDOF 19
ENDMDL
MODEL 8
REMARK VINA RESULT:      -7.5      2.734      7.231
REMARK  19 active torsions:
REMARK  status: ('A' for Active; 'I' for Inactive)
REMARK    1  A    between atoms: C_19  and  C_15 
REMARK    2  A    between atoms: C_24  and  C_15 
REMARK    3  A    between atoms: C_20  and  C_16 
REMARK    4  A    between atoms: C_22  and  C_16 
REMARK    5  A    between atoms: C_21  and  C_17 
REMARK    6  A    between atoms: C_25  and  C_17 
REMARK    7  A    between atoms: C_22  and  C_18 
REMARK    8  A    between atoms: C_22  and  N_35 
REMARK    9  A    between atoms: C_23  and  C_26 
REMARK   10  A    between atoms: C_27  and  C_24 
REMARK   11  A    between atoms: C_24  and  N_37 
REMARK   12  A    between atoms: C_29  and  C_25 
REMARK   13  A    between atoms: C_25  and  N_40 
REMARK   14  A    between atoms: C_28  and  C_26 
REMARK   15  A    between atoms: C_26  and  N_42 
REMARK   16  A    between atoms: C_27  and  O_44 
REMARK   17  A    between atoms: C_28  and  O_45 
REMARK   18  A    between atoms: O_47  and  C_29 
REMARK   19  A    between atoms: N_42  and  C_31 
ROOT
HETATM    1  C   UNK N   1      21.128  16.457   6.117  0.00  0.00     0.214 C 
HETATM    2  N   UNK N   1      21.696  15.862   7.111  0.00  0.00    -0.342 N 
ATOM      3  HN  UNK N   1      22.173  16.435   7.808  1.00  0.00     0.164 HD
HETATM    4  O   UNK N   1      20.507  15.740   5.159  0.00  0.00    -0.333 OA
HETATM    5  H   UNK N   1      20.003  15.261   4.530  0.00  0.00     0.220 HD
ENDROOT
BRANCH   1   6
HETATM    6  N   UNK N   1      21.102  17.884   6.088  0.00  0.00    -0.343 N 
HETATM    7  H   UNK N   1      20.533  18.337   6.751  0.00  0.00     0.164 HD
BRANCH   6   8
HETATM    8  C   UNK N   1      21.849  18.734   5.162  0.00  0.00     0.182 C 
BRANCH   8   9
HETATM    9  C   UNK N   1      20.973  19.373   4.046  0.00  0.00     0.131 C 
HETATM   10  C   UNK N   1      21.887  20.070   3.016  0.00  0.00     0.048 C 
HETATM   11  C   UNK N   1      21.088  20.517   1.806  0.00  0.00     0.140 C 
HETATM   12  N   UNK N   1      20.488  19.361   1.188  0.00  0.00    -0.227 N 
HETATM   13  C   UNK N   1      19.997  18.300   1.991  0.00  0.00     0.667 C 
HETATM   14  H   UNK N   1      20.419  19.309   0.207  0.00  0.00     0.177 HD
HETATM   15  N   UNK N   1      19.384  17.318   1.451  0.00  0.00    -0.235 N 
HETATM   16  N   UNK N   1      20.169  18.346   3.404  0.00  0.00    -0.220 N 
HETATM   17  H   UNK N   1      19.399  17.204   0.474  0.00  0.00     0.174 HD
ATOM     18  HN  UNK N   1      18.880  16.651   2.034  1.00  0.00     0.174 HD
HETATM   19  H   UNK N   1      19.730  17.664   3.961  0.00  0.00     0.178 HD
ENDBRANCH   8   9
BRANCH   8  20
HETATM   20  C   UNK N   1      23.027  17.951   4.642  0.00  0.00     0.137 C 
HETATM   21  N   UNK N   1      24.207  18.158   5.133  0.00  0.00    -0.361 N 
ATOM     22  HN  UNK N   1      24.274  18.787   5.933  1.00  0.00     0.162 HD
BRANCH  21  23
HETATM   23  C   UNK N   1      25.450  17.574   4.644  0.00  0.00     0.158 C 
BRANCH  23  24
HETATM   24  C   UNK N   1      26.567  18.629   4.599  0.00  0.00     0.037 C 
BRANCH  24  25
HETATM   25  C   UNK N   1      26.095  20.072   4.534  0.00  0.00    -0.020 C 
HETATM   26  C   UNK N   1      27.021  20.959   5.339  0.00  0.00     0.009 C 
HETATM   27  C   UNK N   1      26.128  20.519   3.087  0.00  0.00     0.009 C 
ENDBRANCH  24  25
ENDBRANCH  23  24
BRANCH  23  28
HETATM   28  C   UNK N   1      25.824  16.284   5.362  0.00  0.00     0.135 C 
HETATM   29  N   UNK N   1      26.281  15.221   4.768  0.00  0.00    -0.362 N 
ATOM     30  HN  UNK N   1      26.453  14.449   5.411  1.00  0.00     0.162 HD
BRANCH  29  31
HETATM   31  C   UNK N   1      26.604  14.890   3.375  0.00  0.00     0.149 C 
BRANCH  31  32
HETATM   32  C   UNK N   1      26.238  13.423   3.101  0.00  0.00     0.070 C 
BRANCH  32  33
HETATM   33  C   UNK N   1      25.193  13.270   2.046  0.00  0.00    -0.056 A 
HETATM   34  C   UNK N   1      25.126  12.107   1.275  0.00  0.00     0.007 A 
HETATM   35  C   UNK N   1      24.156  11.986   0.277  0.00  0.00     0.001 A 
HETATM   36  C   UNK N   1      23.250  13.028   0.051  0.00  0.00     0.000 A 
HETATM   37  C   UNK N   1      23.312  14.189   0.826  0.00  0.00     0.001 A 
HETATM   38  C   UNK N   1      24.281  14.309   1.823  0.00  0.00     0.007 A 
ENDBRANCH  32  33
ENDBRANCH  31  32
BRANCH  31  39
HETATM   39  C   UNK N   1      28.021  15.148   2.942  0.00  0.00     0.256 C 
HETATM   40  O   UNK N   1      28.476  16.278   2.837  0.00  0.00    -0.305 OA
ENDBRANCH  31  39
ENDBRANCH  29  31
BRANCH  28  41
HETATM   41  O   UNK N   1      25.679  16.233   6.700  0.00  0.00    -0.348 OA
HETATM   42  H   UNK N   1      24.916  16.280   7.241  0.00  0.00     0.219 HD
ENDBRANCH  28  41
ENDBRANCH  23  28
ENDBRANCH  21  23
BRANCH  20  43
HETATM   43  O   UNK N   1      22.840  17.104   3.607  0.00  0.00    -0.348 OA
HETATM   44  H   UNK N   1      22.839  16.206   3.341  0.00  0.00     0.219 HD
ENDBRANCH  20  43
ENDBRANCH   8  20
ENDBRANCH   6   8
ENDBRANCH   1   6
BRANCH   2  45
HETATM   45  C   UNK N   1      21.692  14.418   7.289  0.00  0.00     0.187 C 
BRANCH  45  46
HETATM   46  C   UNK N   1      23.099  13.850   7.101  0.00  0.00     0.074 C 
BRANCH  46  47
HETATM   47  C   UNK N   1      23.179  12.771   6.070  0.00  0.00    -0.056 A 
HETATM   48  C   UNK N   1      24.189  11.807   6.163  0.00  0.00     0.007 A 
HETATM   49  C   UNK N   1      24.297  10.809   5.191  0.00  0.00     0.001 A 
HETATM   50  C   UNK N   1      23.400  10.779   4.119  0.00  0.00     0.000 A 
HETATM   51  C   UNK N   1      22.393  11.745   4.021  0.00  0.00     0.001 A 
HETATM   52  C   UNK N   1      22.284  12.741   4.993  0.00  0.00     0.007 A 
ENDBRANCH  46  47
ENDBRANCH  45  46
BRANCH  45  53
HETATM   53  C   UNK N   1      21.218  14.092   8.681  0.00  0.00     0.163 C 
HETATM   54  O   UNK N   1      20.024  14.027   8.934  0.00  0.00    -0.648 OA
BRANCH  53  55
HETATM   55  O   UNK N   1      22.115  13.846   9.655  0.00  0.00    -0.775 OA
HETATM   56  H   UNK N   1      23.047  13.813   9.572  0.00  0.00     0.167 HD
ENDBRANCH  53  55
ENDBRANCH  45  53
ENDBRANCH   2  45
TORSDOF 19
ENDMDL
MODEL 9
REMARK VINA RESULT:      -7.5      2.129      3.338
REMARK  19 active torsions:
REMARK  status: ('A' for Active; 'I' for Inactive)
REMARK    1  A    between atoms: C_19  and  C_15 
REMARK    2  A    between atoms: C_24  and  C_15 
REMARK    3  A    between atoms: C_20  and  C_16 
REMARK    4  A    between atoms: C_22  and  C_16 
REMARK    5  A    between atoms: C_21  and  C_17 
REMARK    6  A    between atoms: C_25  and  C_17 
REMARK    7  A    between atoms: C_22  and  C_18 
REMARK    8  A    between atoms: C_22  and  N_35 
REMARK    9  A    between atoms: C_23  and  C_26 
REMARK   10  A    between atoms: C_27  and  C_24 
REMARK   11  A    between atoms: C_24  and  N_37 
REMARK   12  A    between atoms: C_29  and  C_25 
REMARK   13  A    between atoms: C_25  and  N_40 
REMARK   14  A    between atoms: C_28  and  C_26 
REMARK   15  A    between atoms: C_26  and  N_42 
REMARK   16  A    between atoms: C_27  and  O_44 
REMARK   17  A    between atoms: C_28  and  O_45 
REMARK   18  A    between atoms: O_47  and  C_29 
REMARK   19  A    between atoms: N_42  and  C_31 
ROOT
HETATM    1  C   UNK N   1      26.106  16.082   6.333  0.00  0.00     0.214 C 
HETATM    2  N   UNK N   1      26.772  17.050   6.864  0.00  0.00    -0.342 N 
ATOM      3  HN  UNK N   1      26.274  17.910   7.094  1.00  0.00     0.164 HD
HETATM    4  O   UNK N   1      26.728  14.936   5.989  0.00  0.00    -0.333 OA
HETATM    5  H   UNK N   1      27.129  14.106   5.820  0.00  0.00     0.220 HD
ENDROOT
BRANCH   1   6
HETATM    6  N   UNK N   1      24.693  16.215   6.184  0.00  0.00    -0.343 N 
HETATM    7  H   UNK N   1      24.154  16.226   7.008  0.00  0.00     0.164 HD
BRANCH   6   8
HETATM    8  C   UNK N   1      23.973  16.337   4.917  0.00  0.00     0.182 C 
BRANCH   8   9
HETATM    9  C   UNK N   1      23.063  17.595   4.826  0.00  0.00     0.131 C 
HETATM   10  C   UNK N   1      23.554  18.499   3.677  0.00  0.00     0.048 C 
HETATM   11  C   UNK N   1      22.567  19.623   3.419  0.00  0.00     0.140 C 
HETATM   12  N   UNK N   1      21.295  19.055   3.053  0.00  0.00    -0.227 N 
HETATM   13  C   UNK N   1      20.843  17.863   3.675  0.00  0.00     0.667 C 
HETATM   14  H   UNK N   1      20.738  19.495   2.369  0.00  0.00     0.177 HD
HETATM   15  N   UNK N   1      19.677  17.408   3.418  0.00  0.00    -0.235 N 
HETATM   16  N   UNK N   1      21.684  17.190   4.606  0.00  0.00    -0.220 N 
HETATM   17  H   UNK N   1      19.157  17.777   2.668  0.00  0.00     0.174 HD
ATOM     18  HN  UNK N   1      19.285  16.661   3.991  1.00  0.00     0.174 HD
HETATM   19  H   UNK N   1      21.322  16.429   5.114  0.00  0.00     0.178 HD
ENDBRANCH   8   9
BRANCH   8  20
HETATM   20  C   UNK N   1      23.252  15.039   4.653  0.00  0.00     0.137 C 
HETATM   21  N   UNK N   1      23.096  14.181   5.610  0.00  0.00    -0.361 N 
ATOM     22  HN  UNK N   1      23.390  14.468   6.543  1.00  0.00     0.162 HD
BRANCH  21  23
HETATM   23  C   UNK N   1      22.539  12.842   5.473  0.00  0.00     0.158 C 
BRANCH  23  24
HETATM   24  C   UNK N   1      23.486  11.793   6.078  0.00  0.00     0.037 C 
BRANCH  24  25
HETATM   25  C   UNK N   1      22.819  10.507   6.539  0.00  0.00    -0.020 C 
HETATM   26  C   UNK N   1      22.752   9.517   5.395  0.00  0.00     0.009 C 
HETATM   27  C   UNK N   1      23.655   9.910   7.652  0.00  0.00     0.009 C 
ENDBRANCH  24  25
ENDBRANCH  23  24
BRANCH  23  28
HETATM   28  C   UNK N   1      21.096  12.745   5.952  0.00  0.00     0.135 C 
HETATM   29  N   UNK N   1      20.651  13.281   7.049  0.00  0.00    -0.362 N 
ATOM     30  HN  UNK N   1      19.663  13.089   7.213  1.00  0.00     0.162 HD
BRANCH  29  31
HETATM   31  C   UNK N   1      21.258  14.103   8.102  0.00  0.00     0.149 C 
BRANCH  31  32
HETATM   32  C   UNK N   1      21.003  13.451   9.470  0.00  0.00     0.070 C 
BRANCH  32  33
HETATM   33  C   UNK N   1      22.251  12.952  10.120  0.00  0.00    -0.056 A 
HETATM   34  C   UNK N   1      23.493  13.144   9.512  0.00  0.00     0.007 A 
HETATM   35  C   UNK N   1      24.652  12.654  10.122  0.00  0.00     0.001 A 
HETATM   36  C   UNK N   1      24.567  11.973  11.341  0.00  0.00     0.000 A 
HETATM   37  C   UNK N   1      23.325  11.786  11.953  0.00  0.00     0.001 A 
HETATM   38  C   UNK N   1      22.169  12.277  11.344  0.00  0.00     0.007 A 
ENDBRANCH  32  33
ENDBRANCH  31  32
BRANCH  31  39
HETATM   39  C   UNK N   1      20.837  15.547   8.144  0.00  0.00     0.256 C 
HETATM   40  O   UNK N   1      20.868  16.264   7.155  0.00  0.00    -0.305 OA
ENDBRANCH  31  39
ENDBRANCH  29  31
BRANCH  28  41
HETATM   41  O   UNK N   1      20.217  12.063   5.192  0.00  0.00    -0.348 OA
HETATM   42  H   UNK N   1      20.190  11.904   4.270  0.00  0.00     0.219 HD
ENDBRANCH  28  41
ENDBRANCH  23  28
ENDBRANCH  21  23
BRANCH  20  43
HETATM   43  O   UNK N   1      22.857  14.759   3.393  0.00  0.00    -0.348 OA
HETATM   44  H   UNK N   1      22.129  14.742   2.802  0.00  0.00     0.219 HD
ENDBRANCH  20  43
ENDBRANCH   8  20
ENDBRANCH   6   8
ENDBRANCH   1   6
BRANCH   2  45
HETATM   45  C   UNK N   1      28.197  16.980   7.151  0.00  0.00     0.187 C 
BRANCH  45  46
HETATM   46  C   UNK N   1      28.974  17.943   6.254  0.00  0.00     0.074 C 
BRANCH  46  47
HETATM   47  C   UNK N   1      28.123  18.995   5.621  0.00  0.00    -0.056 A 
HETATM   48  C   UNK N   1      27.682  20.077   6.391  0.00  0.00     0.007 A 
HETATM   49  C   UNK N   1      26.860  21.053   5.822  0.00  0.00     0.001 A 
HETATM   50  C   UNK N   1      26.471  20.945   4.484  0.00  0.00     0.000 A 
HETATM   51  C   UNK N   1      26.905  19.862   3.714  0.00  0.00     0.001 A 
HETATM   52  C   UNK N   1      27.729  18.887   4.280  0.00  0.00     0.007 A 
ENDBRANCH  46  47
ENDBRANCH  45  46
BRANCH  45  53
HETATM   53  C   UNK N   1      28.431  17.359   8.590  0.00  0.00     0.163 C 
HETATM   54  O   UNK N   1      29.522  17.184   9.112  0.00  0.00    -0.648 OA
BRANCH  53  55
HETATM   55  O   UNK N   1      27.438  17.921   9.306  0.00  0.00    -0.775 OA
HETATM   56  H   UNK N   1      26.516  17.834   9.162  0.00  0.00     0.167 HD
ENDBRANCH  53  55
ENDBRANCH  45  53
ENDBRANCH   2  45
TORSDOF 19
ENDMDL
