MODEL 1
REMARK VINA RESULT:      -8.2      0.000      0.000
REMARK  18 active torsions:
REMARK  status: ('A' for Active; 'I' for Inactive)
REMARK    1  A    between atoms: P_1  and  O_8 
REMARK    2  A    between atoms: P_1  and  O_12 
REMARK    3  A    between atoms: P_1  and  O_14 
REMARK    4  A    between atoms: P_2  and  O_7 
REMARK    5  A    between atoms: P_2  and  O_12 
REMARK    6  A    between atoms: P_2  and  O_15 
REMARK    7  A    between atoms: C_26  and  O_5 
REMARK    8  A    between atoms: C_27  and  O_6 
REMARK    9  A    between atoms: O_7  and  C_34 
REMARK   10  A    between atoms: C_35  and  O_8 
REMARK   11  A    between atoms: C_30  and  O_9 
REMARK   12  A    between atoms: C_31  and  O_10 
REMARK   13  A    between atoms: C_32  and  O_11 
REMARK   14  A    between atoms: O_13  and  C_36 
REMARK   15  A    between atoms: C_29  and  N_18 
REMARK   16  A    between atoms: N_25  and  C_40 
REMARK   17  A    between atoms: C_28  and  C_34 
REMARK   18  A    between atoms: C_33  and  C_36 
ROOT
HETATM    1  O   UNK N   1      35.765  16.505  10.942  0.00  0.00    -0.294 OA
ENDROOT
BRANCH   1   2
HETATM    2  P   UNK N   1      35.543  14.873  11.532  0.00  0.00     0.401 P 
HETATM    3  O   UNK N   1      36.418  13.959  10.635  0.00  0.00    -0.631 OA
BRANCH   2   4
HETATM    4  O   UNK N   1      36.114  14.629  13.162  0.00  0.00    -0.195 OA
BRANCH   4   5
HETATM    5  P   UNK N   1      35.829  12.957  13.578  0.00  0.00     0.404 P 
HETATM    6  O   UNK N   1      37.126  12.372  14.201  0.00  0.00    -0.631 OA
BRANCH   5   7
HETATM    7  O   UNK N   1      34.564  12.789  14.776  0.00  0.00    -0.263 OA
BRANCH   7   8
HETATM    8  C   UNK N   1      35.135  12.782  16.063  0.00  0.00     0.303 C 
HETATM    9  O   UNK N   1      34.542  13.760  16.891  0.00  0.00    -0.348 OA
HETATM   10  C   UNK N   1      35.352  13.850  18.034  0.00  0.00     0.179 C 
HETATM   11  C   UNK N   1      35.068  12.630  18.916  0.00  0.00     0.180 C 
HETATM   12  C   UNK N   1      35.475  11.388  18.119  0.00  0.00     0.183 C 
HETATM   13  C   UNK N   1      34.879  11.410  16.708  0.00  0.00     0.205 C 
BRANCH  10  14
HETATM   14  C   UNK N   1      35.114  15.178  18.742  0.00  0.00     0.198 C 
BRANCH  14  15
HETATM   15  O   UNK N   1      36.087  16.111  18.385  0.00  0.00    -0.398 OA
HETATM   16  H   UNK N   1      36.950  16.538  18.268  0.00  0.00     0.209 HD
ENDBRANCH  14  15
ENDBRANCH  10  14
BRANCH  11  17
HETATM   17  O   UNK N   1      35.812  12.691  20.095  0.00  0.00    -0.390 OA
HETATM   18  H   UNK N   1      36.273  12.015  20.617  0.00  0.00     0.210 HD
ENDBRANCH  11  17
BRANCH  12  19
HETATM   19  O   UNK N   1      35.074  10.233  18.791  0.00  0.00    -0.390 OA
HETATM   20  H   UNK N   1      34.160  10.086  19.081  0.00  0.00     0.210 HD
ENDBRANCH  12  19
BRANCH  13  21
HETATM   21  O   UNK N   1      35.455  10.398  15.938  0.00  0.00    -0.388 OA
HETATM   22  H   UNK N   1      35.201   9.463  15.993  0.00  0.00     0.210 HD
ENDBRANCH  13  21
ENDBRANCH   7   8
ENDBRANCH   5   7
BRANCH   5  23
HETATM   23  O   UNK N   1      35.413  11.997  12.192  0.00  0.00    -0.307 OA
HETATM   24  H   UNK N   1      35.427  11.743  11.255  0.00  0.00     0.222 HD
ENDBRANCH   5  23
ENDBRANCH   4   5
ENDBRANCH   2   4
BRANCH   2  25
HETATM   25  O   UNK N   1      33.914  14.297  11.369  0.00  0.00    -0.307 OA
HETATM   26  H   UNK N   1      33.261  13.854  11.934  0.00  0.00     0.222 HD
ENDBRANCH   2  25
ENDBRANCH   1   2
BRANCH   1  27
HETATM   27  C   UNK N   1      35.355  16.477   9.608  0.00  0.00     0.215 C 
BRANCH  27  28
HETATM   28  C   UNK N   1      34.013  17.208   9.418  0.00  0.00     0.180 C 
HETATM   29  O   UNK N   1      33.034  16.285   8.966  0.00  0.00    -0.353 OA
HETATM   30  C   UNK N   1      32.933  16.452   7.564  0.00  0.00     0.262 C 
HETATM   31  C   UNK N   1      34.057  17.388   7.153  0.00  0.00     0.198 C 
HETATM   32  C   UNK N   1      34.123  18.278   8.338  0.00  0.00     0.182 C 
BRANCH  30  33
HETATM   33  N   UNK N   1      31.558  16.846   7.214  0.00  0.00    -0.297 N 
HETATM   34  C   UNK N   1      30.585  17.463   7.910  0.00  0.00     0.142 A 
HETATM   35  N   UNK N   1      30.593  17.864   9.205  0.00  0.00    -0.336 N 
HETATM   36  C   UNK N   1      29.516  17.654   7.109  0.00  0.00     0.122 A 
HETATM   37  C   UNK N   1      29.481  18.494   9.696  0.00  0.00     0.183 A 
ATOM     38  HN  UNK N   1      31.406  17.700   9.798  1.00  0.00     0.168 HD
HETATM   39  N   UNK N   1      28.391  18.713   8.890  0.00  0.00    -0.337 N 
HETATM   40  C   UNK N   1      28.388  18.297   7.588  0.00  0.00     0.131 A 
ATOM     41  HN  UNK N   1      27.574  19.192   9.267  1.00  0.00     0.168 HD
HETATM   42  N   UNK N   1      29.765  17.153   5.887  0.00  0.00    -0.346 N 
HETATM   43  C   UNK N   1      31.030  16.655   5.977  0.00  0.00     0.188 A 
ATOM     44  HN  UNK N   1      29.146  17.146   5.076  1.00  0.00     0.167 HD
BRANCH  40  45
HETATM   45  N   UNK N   1      27.270  18.530   6.762  0.00  0.00    -0.383 N 
HETATM   46  H   UNK N   1      26.559  17.852   6.693  0.00  0.00     0.157 HD
HETATM   47  H   UNK N   1      27.201  19.370   6.255  0.00  0.00     0.157 HD
ENDBRANCH  40  45
ENDBRANCH  30  33
BRANCH  31  48
HETATM   48  O   UNK N   1      33.890  18.029   5.926  0.00  0.00    -0.388 OA
HETATM   49  H   UNK N   1      33.947  17.712   5.011  0.00  0.00     0.210 HD
ENDBRANCH  31  48
BRANCH  32  50
HETATM   50  O   UNK N   1      35.326  18.985   8.394  0.00  0.00    -0.390 OA
HETATM   51  H   UNK N   1      35.383  19.876   8.016  0.00  0.00     0.210 HD
ENDBRANCH  32  50
ENDBRANCH  27  28
ENDBRANCH   1  27
TORSDOF 18
ENDMDL
MODEL 2
REMARK VINA RESULT:      -8.0      5.120     11.204
REMARK  18 active torsions:
REMARK  status: ('A' for Active; 'I' for Inactive)
REMARK    1  A    between atoms: P_1  and  O_8 
REMARK    2  A    between atoms: P_1  and  O_12 
REMARK    3  A    between atoms: P_1  and  O_14 
REMARK    4  A    between atoms: P_2  and  O_7 
REMARK    5  A    between atoms: P_2  and  O_12 
REMARK    6  A    between atoms: P_2  and  O_15 
REMARK    7  A    between atoms: C_26  and  O_5 
REMARK    8  A    between atoms: C_27  and  O_6 
REMARK    9  A    between atoms: O_7  and  C_34 
REMARK   10  A    between atoms: C_35  and  O_8 
REMARK   11  A    between atoms: C_30  and  O_9 
REMARK   12  A    between atoms: C_31  and  O_10 
REMARK   13  A    between atoms: C_32  and  O_11 
REMARK   14  A    between atoms: O_13  and  C_36 
REMARK   15  A    between atoms: C_29  and  N_18 
REMARK   16  A    between atoms: N_25  and  C_40 
REMARK   17  A    between atoms: C_28  and  C_34 
REMARK   18  A    between atoms: C_33  and  C_36 
ROOT
HETATM    1  O   UNK N   1      35.090  14.156  10.437  0.00  0.00    -0.294 OA
ENDROOT
BRANCH   1   2
HETATM    2  P   UNK N   1      34.107  15.424   9.739  0.00  0.00     0.401 P 
HETATM    3  O   UNK N   1      34.666  16.764  10.284  0.00  0.00    -0.631 OA
BRANCH   2   4
HETATM    4  O   UNK N   1      34.223  15.531   8.002  0.00  0.00    -0.195 OA
BRANCH   4   5
HETATM    5  P   UNK N   1      33.034  16.690   7.462  0.00  0.00     0.404 P 
HETATM    6  O   UNK N   1      33.306  17.023   5.970  0.00  0.00    -0.631 OA
BRANCH   5   7
HETATM    7  O   UNK N   1      31.407  16.049   7.557  0.00  0.00    -0.263 OA
BRANCH   7   8
HETATM    8  C   UNK N   1      30.481  17.084   7.325  0.00  0.00     0.303 C 
HETATM    9  O   UNK N   1      29.655  16.792   6.218  0.00  0.00    -0.348 OA
HETATM   10  C   UNK N   1      28.971  17.980   5.915  0.00  0.00     0.179 C 
HETATM   11  C   UNK N   1      27.865  18.171   6.957  0.00  0.00     0.180 C 
HETATM   12  C   UNK N   1      28.545  18.328   8.319  0.00  0.00     0.183 C 
HETATM   13  C   UNK N   1      29.575  17.219   8.559  0.00  0.00     0.205 C 
BRANCH  10  14
HETATM   14  C   UNK N   1      28.453  17.935   4.482  0.00  0.00     0.198 C 
BRANCH  14  15
HETATM   15  O   UNK N   1      28.271  19.224   3.981  0.00  0.00    -0.398 OA
HETATM   16  H   UNK N   1      28.122  19.955   3.361  0.00  0.00     0.209 HD
ENDBRANCH  14  15
ENDBRANCH  10  14
BRANCH  11  17
HETATM   17  O   UNK N   1      27.117  19.316   6.675  0.00  0.00    -0.390 OA
HETATM   18  H   UNK N   1      26.536  19.871   7.219  0.00  0.00     0.210 HD
ENDBRANCH  11  17
BRANCH  12  19
HETATM   19  O   UNK N   1      27.590  18.324   9.336  0.00  0.00    -0.390 OA
HETATM   20  H   UNK N   1      27.417  19.098   9.896  0.00  0.00     0.210 HD
ENDBRANCH  12  19
BRANCH  13  21
HETATM   21  O   UNK N   1      30.337  17.522   9.689  0.00  0.00    -0.388 OA
HETATM   22  H   UNK N   1      30.155  18.267  10.283  0.00  0.00     0.210 HD
ENDBRANCH  13  21
ENDBRANCH   7   8
ENDBRANCH   5   7
BRANCH   5  23
HETATM   23  O   UNK N   1      33.101  18.170   8.368  0.00  0.00    -0.307 OA
HETATM   24  H   UNK N   1      32.777  19.030   8.683  0.00  0.00     0.222 HD
ENDBRANCH   5  23
ENDBRANCH   4   5
ENDBRANCH   2   4
BRANCH   2  25
HETATM   25  O   UNK N   1      32.444  15.355  10.231  0.00  0.00    -0.307 OA
HETATM   26  H   UNK N   1      31.698  14.745  10.119  0.00  0.00     0.222 HD
ENDBRANCH   2  25
ENDBRANCH   1   2
BRANCH   1  27
HETATM   27  C   UNK N   1      34.946  14.292  11.818  0.00  0.00     0.215 C 
BRANCH  27  28
HETATM   28  C   UNK N   1      35.243  12.967  12.546  0.00  0.00     0.180 C 
HETATM   29  O   UNK N   1      34.415  12.865  13.694  0.00  0.00    -0.353 OA
HETATM   30  C   UNK N   1      35.205  13.255  14.802  0.00  0.00     0.262 C 
HETATM   31  C   UNK N   1      36.507  13.802  14.241  0.00  0.00     0.198 C 
HETATM   32  C   UNK N   1      36.681  12.933  13.051  0.00  0.00     0.182 C 
BRANCH  30  33
HETATM   33  N   UNK N   1      35.293  12.140  15.759  0.00  0.00    -0.297 N 
HETATM   34  C   UNK N   1      35.281  12.094  17.104  0.00  0.00     0.142 A 
HETATM   35  N   UNK N   1      35.234  13.121  17.988  0.00  0.00    -0.336 N 
HETATM   36  C   UNK N   1      35.325  10.807  17.507  0.00  0.00     0.122 A 
HETATM   37  C   UNK N   1      35.214  12.829  19.324  0.00  0.00     0.183 A 
ATOM     38  HN  UNK N   1      35.213  14.088  17.664  1.00  0.00     0.168 HD
HETATM   39  N   UNK N   1      35.240  11.524  19.752  0.00  0.00    -0.337 N 
HETATM   40  C   UNK N   1      35.297  10.493  18.856  0.00  0.00     0.131 A 
ATOM     41  HN  UNK N   1      35.215  11.321  20.751  1.00  0.00     0.168 HD
HETATM   42  N   UNK N   1      35.383   9.995  16.438  0.00  0.00    -0.346 N 
HETATM   43  C   UNK N   1      35.366  10.839  15.370  0.00  0.00     0.188 A 
ATOM     44  HN  UNK N   1      35.429   8.975  16.429  1.00  0.00     0.167 HD
BRANCH  40  45
HETATM   45  N   UNK N   1      35.316   9.156  19.298  0.00  0.00    -0.383 N 
HETATM   46  H   UNK N   1      34.599   8.820  19.884  0.00  0.00     0.157 HD
HETATM   47  H   UNK N   1      36.047   8.558  19.023  0.00  0.00     0.157 HD
ENDBRANCH  40  45
ENDBRANCH  30  33
BRANCH  31  48
HETATM   48  O   UNK N   1      37.581  13.831  15.129  0.00  0.00    -0.388 OA
HETATM   49  H   UNK N   1      38.452  14.258  15.085  0.00  0.00     0.210 HD
ENDBRANCH  31  48
BRANCH  32  50
HETATM   50  O   UNK N   1      37.591  13.473  12.139  0.00  0.00    -0.390 OA
HETATM   51  H   UNK N   1      37.428  14.347  11.752  0.00  0.00     0.210 HD
ENDBRANCH  32  50
ENDBRANCH  27  28
ENDBRANCH   1  27
TORSDOF 18
ENDMDL
MODEL 3
REMARK VINA RESULT:      -8.0      5.008     11.375
REMARK  18 active torsions:
REMARK  status: ('A' for Active; 'I' for Inactive)
REMARK    1  A    between atoms: P_1  and  O_8 
REMARK    2  A    between atoms: P_1  and  O_12 
REMARK    3  A    between atoms: P_1  and  O_14 
REMARK    4  A    between atoms: P_2  and  O_7 
REMARK    5  A    between atoms: P_2  and  O_12 
REMARK    6  A    between atoms: P_2  and  O_15 
REMARK    7  A    between atoms: C_26  and  O_5 
REMARK    8  A    between atoms: C_27  and  O_6 
REMARK    9  A    between atoms: O_7  and  C_34 
REMARK   10  A    between atoms: C_35  and  O_8 
REMARK   11  A    between atoms: C_30  and  O_9 
REMARK   12  A    between atoms: C_31  and  O_10 
REMARK   13  A    between atoms: C_32  and  O_11 
REMARK   14  A    between atoms: O_13  and  C_36 
REMARK   15  A    between atoms: C_29  and  N_18 
REMARK   16  A    between atoms: N_25  and  C_40 
REMARK   17  A    between atoms: C_28  and  C_34 
REMARK   18  A    between atoms: C_33  and  C_36 
ROOT
HETATM    1  O   UNK N   1      35.131  14.031  10.698  0.00  0.00    -0.294 OA
ENDROOT
BRANCH   1   2
HETATM    2  P   UNK N   1      35.488  15.668  10.198  0.00  0.00     0.401 P 
HETATM    3  O   UNK N   1      37.001  15.890  10.463  0.00  0.00    -0.631 OA
BRANCH   2   4
HETATM    4  O   UNK N   1      35.257  15.951   8.493  0.00  0.00    -0.195 OA
BRANCH   4   5
HETATM    5  P   UNK N   1      34.397  17.461   8.319  0.00  0.00     0.404 P 
HETATM    6  O   UNK N   1      35.242  18.592   8.965  0.00  0.00    -0.631 OA
BRANCH   5   7
HETATM    7  O   UNK N   1      34.167  17.891   6.637  0.00  0.00    -0.263 OA
BRANCH   7   8
HETATM    8  C   UNK N   1      33.330  16.941   6.020  0.00  0.00     0.303 C 
HETATM    9  O   UNK N   1      32.252  17.565   5.355  0.00  0.00    -0.348 OA
HETATM   10  C   UNK N   1      31.354  16.539   5.017  0.00  0.00     0.179 C 
HETATM   11  C   UNK N   1      31.929  15.779   3.818  0.00  0.00     0.180 C 
HETATM   12  C   UNK N   1      33.249  15.149   4.269  0.00  0.00     0.183 C 
HETATM   13  C   UNK N   1      34.147  16.175   4.967  0.00  0.00     0.205 C 
BRANCH  10  14
HETATM   14  C   UNK N   1      29.969  17.120   4.759  0.00  0.00     0.198 C 
BRANCH  14  15
HETATM   15  O   UNK N   1      29.765  17.327   3.394  0.00  0.00    -0.398 OA
HETATM   16  H   UNK N   1      29.484  17.186   2.477  0.00  0.00     0.209 HD
ENDBRANCH  14  15
ENDBRANCH  10  14
BRANCH  11  17
HETATM   17  O   UNK N   1      31.050  14.775   3.406  0.00  0.00    -0.390 OA
HETATM   18  H   UNK N   1      30.828  13.906   3.774  0.00  0.00     0.210 HD
ENDBRANCH  11  17
BRANCH  12  19
HETATM   19  O   UNK N   1      33.915  14.593   3.176  0.00  0.00    -0.390 OA
HETATM   20  H   UNK N   1      34.192  15.119   2.409  0.00  0.00     0.210 HD
ENDBRANCH  12  19
BRANCH  13  21
HETATM   21  O   UNK N   1      35.225  15.524   5.570  0.00  0.00    -0.388 OA
HETATM   22  H   UNK N   1      35.390  14.571   5.501  0.00  0.00     0.210 HD
ENDBRANCH  13  21
ENDBRANCH   7   8
ENDBRANCH   5   7
BRANCH   5  23
HETATM   23  O   UNK N   1      32.846  17.429   9.100  0.00  0.00    -0.307 OA
HETATM   24  H   UNK N   1      31.938  17.722   9.274  0.00  0.00     0.222 HD
ENDBRANCH   5  23
ENDBRANCH   4   5
ENDBRANCH   2   4
BRANCH   2  25
HETATM   25  O   UNK N   1      34.652  16.871  11.130  0.00  0.00    -0.307 OA
HETATM   26  H   UNK N   1      34.222  16.919  11.998  0.00  0.00     0.222 HD
ENDBRANCH   2  25
ENDBRANCH   1   2
BRANCH   1  27
HETATM   27  C   UNK N   1      34.774  14.122  12.044  0.00  0.00     0.215 C 
BRANCH  27  28
HETATM   28  C   UNK N   1      35.189  12.859  12.822  0.00  0.00     0.180 C 
HETATM   29  O   UNK N   1      34.407  12.754  14.001  0.00  0.00    -0.353 OA
HETATM   30  C   UNK N   1      35.201  13.253  15.062  0.00  0.00     0.262 C 
HETATM   31  C   UNK N   1      36.442  13.862  14.431  0.00  0.00     0.198 C 
HETATM   32  C   UNK N   1      36.640  12.951  13.278  0.00  0.00     0.182 C 
BRANCH  30  33
HETATM   33  N   UNK N   1      35.399  12.195  16.066  0.00  0.00    -0.297 N 
HETATM   34  C   UNK N   1      35.356  12.199  17.412  0.00  0.00     0.142 A 
HETATM   35  N   UNK N   1      35.157  13.246  18.250  0.00  0.00    -0.336 N 
HETATM   36  C   UNK N   1      35.548  10.944  17.868  0.00  0.00     0.122 A 
HETATM   37  C   UNK N   1      35.136  13.004  19.597  0.00  0.00     0.183 A 
ATOM     38  HN  UNK N   1      35.026  14.190  17.886  1.00  0.00     0.168 HD
HETATM   39  N   UNK N   1      35.311  11.730  20.078  0.00  0.00    -0.337 N 
HETATM   40  C   UNK N   1      35.521  10.681  19.227  0.00  0.00     0.131 A 
ATOM     41  HN  UNK N   1      35.283  11.564  21.085  1.00  0.00     0.168 HD
HETATM   42  N   UNK N   1      35.735  10.105  16.835  0.00  0.00    -0.346 N 
HETATM   43  C   UNK N   1      35.643  10.900  15.733  0.00  0.00     0.188 A 
ATOM     44  HN  UNK N   1      35.907   9.100  16.870  1.00  0.00     0.167 HD
BRANCH  40  45
HETATM   45  N   UNK N   1      35.693   9.375  19.725  0.00  0.00    -0.383 N 
HETATM   46  H   UNK N   1      35.680   9.212  20.697  0.00  0.00     0.157 HD
HETATM   47  H   UNK N   1      35.826   8.625  19.103  0.00  0.00     0.157 HD
ENDBRANCH  40  45
ENDBRANCH  30  33
BRANCH  31  48
HETATM   48  O   UNK N   1      37.539  14.010  15.278  0.00  0.00    -0.388 OA
HETATM   49  H   UNK N   1      37.724  13.674  16.169  0.00  0.00     0.210 HD
ENDBRANCH  31  48
BRANCH  32  50
HETATM   50  O   UNK N   1      37.480  13.509  12.310  0.00  0.00    -0.390 OA
HETATM   51  H   UNK N   1      38.340  13.103  12.122  0.00  0.00     0.210 HD
ENDBRANCH  32  50
ENDBRANCH  27  28
ENDBRANCH   1  27
TORSDOF 18
ENDMDL
MODEL 4
REMARK VINA RESULT:      -7.9      4.636      7.142
REMARK  18 active torsions:
REMARK  status: ('A' for Active; 'I' for Inactive)
REMARK    1  A    between atoms: P_1  and  O_8 
REMARK    2  A    between atoms: P_1  and  O_12 
REMARK    3  A    between atoms: P_1  and  O_14 
REMARK    4  A    between atoms: P_2  and  O_7 
REMARK    5  A    between atoms: P_2  and  O_12 
REMARK    6  A    between atoms: P_2  and  O_15 
REMARK    7  A    between atoms: C_26  and  O_5 
REMARK    8  A    between atoms: C_27  and  O_6 
REMARK    9  A    between atoms: O_7  and  C_34 
REMARK   10  A    between atoms: C_35  and  O_8 
REMARK   11  A    between atoms: C_30  and  O_9 
REMARK   12  A    between atoms: C_31  and  O_10 
REMARK   13  A    between atoms: C_32  and  O_11 
REMARK   14  A    between atoms: O_13  and  C_36 
REMARK   15  A    between atoms: C_29  and  N_18 
REMARK   16  A    between atoms: N_25  and  C_40 
REMARK   17  A    between atoms: C_28  and  C_34 
REMARK   18  A    between atoms: C_33  and  C_36 
ROOT
HETATM    1  O   UNK N   1      30.105  16.558   7.401  0.00  0.00    -0.294 OA
ENDROOT
BRANCH   1   2
HETATM    2  P   UNK N   1      31.853  16.606   7.440  0.00  0.00     0.401 P 
HETATM    3  O   UNK N   1      32.318  16.898   5.989  0.00  0.00    -0.631 OA
BRANCH   2   4
HETATM    4  O   UNK N   1      32.502  17.897   8.417  0.00  0.00    -0.195 OA
BRANCH   4   5
HETATM    5  P   UNK N   1      34.236  17.697   8.476  0.00  0.00     0.404 P 
HETATM    6  O   UNK N   1      34.904  19.079   8.244  0.00  0.00    -0.631 OA
BRANCH   5   7
HETATM    7  O   UNK N   1      34.774  17.123  10.041  0.00  0.00    -0.263 OA
BRANCH   7   8
HETATM    8  C   UNK N   1      35.101  15.756   9.952  0.00  0.00     0.303 C 
HETATM    9  O   UNK N   1      36.490  15.552  10.103  0.00  0.00    -0.348 OA
HETATM   10  C   UNK N   1      36.732  14.219   9.733  0.00  0.00     0.179 C 
HETATM   11  C   UNK N   1      36.262  13.315  10.877  0.00  0.00     0.180 C 
HETATM   12  C   UNK N   1      34.752  13.518  11.026  0.00  0.00     0.183 C 
HETATM   13  C   UNK N   1      34.393  15.006  11.091  0.00  0.00     0.205 C 
BRANCH  10  14
HETATM   14  C   UNK N   1      38.203  14.033   9.380  0.00  0.00     0.198 C 
BRANCH  14  15
HETATM   15  O   UNK N   1      38.980  15.045   9.945  0.00  0.00    -0.398 OA
HETATM   16  H   UNK N   1      39.431  15.596  10.604  0.00  0.00     0.209 HD
ENDBRANCH  14  15
ENDBRANCH  10  14
BRANCH  11  17
HETATM   17  O   UNK N   1      36.526  11.975  10.584  0.00  0.00    -0.390 OA
HETATM   18  H   UNK N   1      36.289  11.409   9.833  0.00  0.00     0.210 HD
ENDBRANCH  11  17
BRANCH  12  19
HETATM   19  O   UNK N   1      34.289  12.861  12.167  0.00  0.00    -0.390 OA
HETATM   20  H   UNK N   1      33.492  12.308  12.166  0.00  0.00     0.210 HD
ENDBRANCH  12  19
BRANCH  13  21
HETATM   21  O   UNK N   1      33.010  15.161  10.988  0.00  0.00    -0.388 OA
HETATM   22  H   UNK N   1      32.378  14.858  11.660  0.00  0.00     0.210 HD
ENDBRANCH  13  21
ENDBRANCH   7   8
ENDBRANCH   5   7
BRANCH   5  23
HETATM   23  O   UNK N   1      34.813  16.604   7.256  0.00  0.00    -0.307 OA
HETATM   24  H   UNK N   1      35.478  16.078   6.783  0.00  0.00     0.222 HD
ENDBRANCH   5  23
ENDBRANCH   4   5
ENDBRANCH   2   4
BRANCH   2  25
HETATM   25  O   UNK N   1      32.574  15.090   7.884  0.00  0.00    -0.307 OA
HETATM   26  H   UNK N   1      33.472  14.745   8.009  0.00  0.00     0.222 HD
ENDBRANCH   2  25
ENDBRANCH   1   2
BRANCH   1  27
HETATM   27  C   UNK N   1      29.740  17.243   6.241  0.00  0.00     0.215 C 
BRANCH  27  28
HETATM   28  C   UNK N   1      28.217  17.458   6.173  0.00  0.00     0.180 C 
HETATM   29  O   UNK N   1      27.812  17.533   4.815  0.00  0.00    -0.353 OA
HETATM   30  C   UNK N   1      27.676  18.908   4.506  0.00  0.00     0.262 C 
HETATM   31  C   UNK N   1      28.221  19.680   5.696  0.00  0.00     0.198 C 
HETATM   32  C   UNK N   1      27.824  18.785   6.810  0.00  0.00     0.182 C 
BRANCH  30  33
HETATM   33  N   UNK N   1      26.290  19.184   4.094  0.00  0.00    -0.297 N 
HETATM   34  C   UNK N   1      25.120  18.584   4.384  0.00  0.00     0.142 A 
HETATM   35  N   UNK N   1      24.897  17.476   5.133  0.00  0.00    -0.336 N 
HETATM   36  C   UNK N   1      24.113  19.266   3.799  0.00  0.00     0.122 A 
HETATM   37  C   UNK N   1      23.606  17.057   5.305  0.00  0.00     0.183 A 
ATOM     38  HN  UNK N   1      25.673  16.967   5.556  1.00  0.00     0.168 HD
HETATM   39  N   UNK N   1      22.567  17.749   4.732  0.00  0.00    -0.337 N 
HETATM   40  C   UNK N   1      22.800  18.860   3.971  0.00  0.00     0.131 A 
ATOM     41  HN  UNK N   1      21.609  17.430   4.878  1.00  0.00     0.168 HD
HETATM   42  N   UNK N   1      24.606  20.307   3.108  0.00  0.00    -0.346 N 
HETATM   43  C   UNK N   1      25.952  20.234   3.300  0.00  0.00     0.188 A 
ATOM     44  HN  UNK N   1      24.088  20.996   2.562  1.00  0.00     0.167 HD
BRANCH  40  45
HETATM   45  N   UNK N   1      21.731  19.571   3.392  0.00  0.00    -0.383 N 
HETATM   46  H   UNK N   1      20.824  19.493   3.770  0.00  0.00     0.157 HD
HETATM   47  H   UNK N   1      21.889  20.145   2.608  0.00  0.00     0.157 HD
ENDBRANCH  40  45
ENDBRANCH  30  33
BRANCH  31  48
HETATM   48  O   UNK N   1      27.794  21.003   5.803  0.00  0.00    -0.388 OA
HETATM   49  H   UNK N   1      27.766  21.620   6.551  0.00  0.00     0.210 HD
ENDBRANCH  31  48
BRANCH  32  50
HETATM   50  O   UNK N   1      28.538  19.060   7.979  0.00  0.00    -0.390 OA
HETATM   51  H   UNK N   1      29.094  19.852   8.033  0.00  0.00     0.210 HD
ENDBRANCH  32  50
ENDBRANCH  27  28
ENDBRANCH   1  27
TORSDOF 18
ENDMDL
MODEL 5
REMARK VINA RESULT:      -7.9      2.593      3.888
REMARK  18 active torsions:
REMARK  status: ('A' for Active; 'I' for Inactive)
REMARK    1  A    between atoms: P_1  and  O_8 
REMARK    2  A    between atoms: P_1  and  O_12 
REMARK    3  A    between atoms: P_1  and  O_14 
REMARK    4  A    between atoms: P_2  and  O_7 
REMARK    5  A    between atoms: P_2  and  O_12 
REMARK    6  A    between atoms: P_2  and  O_15 
REMARK    7  A    between atoms: C_26  and  O_5 
REMARK    8  A    between atoms: C_27  and  O_6 
REMARK    9  A    between atoms: O_7  and  C_34 
REMARK   10  A    between atoms: C_35  and  O_8 
REMARK   11  A    between atoms: C_30  and  O_9 
REMARK   12  A    between atoms: C_31  and  O_10 
REMARK   13  A    between atoms: C_32  and  O_11 
REMARK   14  A    between atoms: O_13  and  C_36 
REMARK   15  A    between atoms: C_29  and  N_18 
REMARK   16  A    between atoms: N_25  and  C_40 
REMARK   17  A    between atoms: C_28  and  C_34 
REMARK   18  A    between atoms: C_33  and  C_36 
ROOT
HETATM    1  O   UNK N   1      35.853  16.610  10.717  0.00  0.00    -0.294 OA
ENDROOT
BRANCH   1   2
HETATM    2  P   UNK N   1      35.585  15.106  11.568  0.00  0.00     0.401 P 
HETATM    3  O   UNK N   1      36.499  14.050  10.894  0.00  0.00    -0.631 OA
BRANCH   2   4
HETATM    4  O   UNK N   1      36.062  15.150  13.245  0.00  0.00    -0.195 OA
BRANCH   4   5
HETATM    5  P   UNK N   1      36.096  13.504  13.829  0.00  0.00     0.404 P 
HETATM    6  O   UNK N   1      35.992  13.525  15.378  0.00  0.00    -0.631 OA
BRANCH   5   7
HETATM    7  O   UNK N   1      34.736  12.574  13.236  0.00  0.00    -0.263 OA
BRANCH   7   8
HETATM    8  C   UNK N   1      35.193  11.334  12.750  0.00  0.00     0.303 C 
HETATM    9  O   UNK N   1      35.444  10.431  13.806  0.00  0.00    -0.348 OA
HETATM   10  C   UNK N   1      36.137   9.349  13.241  0.00  0.00     0.179 C 
HETATM   11  C   UNK N   1      35.131   8.491  12.467  0.00  0.00     0.180 C 
HETATM   12  C   UNK N   1      34.567   9.359  11.339  0.00  0.00     0.183 C 
HETATM   13  C   UNK N   1      34.098  10.720  11.863  0.00  0.00     0.205 C 
BRANCH  10  14
HETATM   14  C   UNK N   1      36.881   8.580  14.325  0.00  0.00     0.198 C 
BRANCH  14  15
HETATM   15  O   UNK N   1      36.082   7.562  14.848  0.00  0.00    -0.398 OA
HETATM   16  H   UNK N   1      35.736   6.679  15.047  0.00  0.00     0.209 HD
ENDBRANCH  14  15
ENDBRANCH  10  14
BRANCH  11  17
HETATM   17  O   UNK N   1      35.759   7.369  11.923  0.00  0.00    -0.390 OA
HETATM   18  H   UNK N   1      35.438   6.481  11.702  0.00  0.00     0.210 HD
ENDBRANCH  11  17
BRANCH  12  19
HETATM   19  O   UNK N   1      33.512   8.698  10.707  0.00  0.00    -0.390 OA
HETATM   20  H   UNK N   1      33.215   7.813  10.971  0.00  0.00     0.210 HD
ENDBRANCH  12  19
BRANCH  13  21
HETATM   21  O   UNK N   1      33.814  11.565  10.788  0.00  0.00    -0.388 OA
HETATM   22  H   UNK N   1      33.499  11.257   9.924  0.00  0.00     0.210 HD
ENDBRANCH  13  21
ENDBRANCH   7   8
ENDBRANCH   5   7
BRANCH   5  23
HETATM   23  O   UNK N   1      37.562  12.682  13.394  0.00  0.00    -0.307 OA
HETATM   24  H   UNK N   1      38.412  12.243  13.560  0.00  0.00     0.222 HD
ENDBRANCH   5  23
ENDBRANCH   4   5
ENDBRANCH   2   4
BRANCH   2  25
HETATM   25  O   UNK N   1      33.962  14.509  11.417  0.00  0.00    -0.307 OA
HETATM   26  H   UNK N   1      33.336  14.337  10.695  0.00  0.00     0.222 HD
ENDBRANCH   2  25
ENDBRANCH   1   2
BRANCH   1  27
HETATM   27  C   UNK N   1      35.310  16.420   9.445  0.00  0.00     0.215 C 
BRANCH  27  28
HETATM   28  C   UNK N   1      33.983  17.185   9.282  0.00  0.00     0.180 C 
HETATM   29  O   UNK N   1      32.965  16.282   8.881  0.00  0.00    -0.353 OA
HETATM   30  C   UNK N   1      32.824  16.422   7.480  0.00  0.00     0.262 C 
HETATM   31  C   UNK N   1      33.960  17.317   7.013  0.00  0.00     0.198 C 
HETATM   32  C   UNK N   1      34.088  18.229   8.176  0.00  0.00     0.182 C 
BRANCH  30  33
HETATM   33  N   UNK N   1      31.450  16.848   7.165  0.00  0.00    -0.297 N 
HETATM   34  C   UNK N   1      30.495  17.449   7.899  0.00  0.00     0.142 A 
HETATM   35  N   UNK N   1      30.525  17.798   9.209  0.00  0.00    -0.336 N 
HETATM   36  C   UNK N   1      29.418  17.686   7.121  0.00  0.00     0.122 A 
HETATM   37  C   UNK N   1      29.429  18.421   9.740  0.00  0.00     0.183 A 
ATOM     38  HN  UNK N   1      31.344  17.599   9.783  1.00  0.00     0.168 HD
HETATM   39  N   UNK N   1      28.331  18.687   8.958  0.00  0.00    -0.337 N 
HETATM   40  C   UNK N   1      28.305  18.324   7.641  0.00  0.00     0.131 A 
ATOM     41  HN  UNK N   1      27.526  19.162   9.366  1.00  0.00     0.168 HD
HETATM   42  N   UNK N   1      29.644  17.231   5.876  0.00  0.00    -0.346 N 
HETATM   43  C   UNK N   1      30.902  16.714   5.928  0.00  0.00     0.188 A 
ATOM     44  HN  UNK N   1      29.013  17.266   5.075  1.00  0.00     0.167 HD
BRANCH  40  45
HETATM   45  N   UNK N   1      27.179  18.605   6.841  0.00  0.00    -0.383 N 
HETATM   46  H   UNK N   1      26.626  19.398   7.029  0.00  0.00     0.157 HD
HETATM   47  H   UNK N   1      26.946  18.009   6.094  0.00  0.00     0.157 HD
ENDBRANCH  40  45
ENDBRANCH  30  33
BRANCH  31  48
HETATM   48  O   UNK N   1      33.771  17.937   5.779  0.00  0.00    -0.388 OA
HETATM   49  H   UNK N   1      32.983  18.307   5.349  0.00  0.00     0.210 HD
ENDBRANCH  31  48
BRANCH  32  50
HETATM   50  O   UNK N   1      35.312  18.902   8.178  0.00  0.00    -0.390 OA
HETATM   51  H   UNK N   1      36.088  18.496   8.596  0.00  0.00     0.210 HD
ENDBRANCH  32  50
ENDBRANCH  27  28
ENDBRANCH   1  27
TORSDOF 18
ENDMDL
MODEL 6
REMARK VINA RESULT:      -7.8      2.182      3.543
REMARK  18 active torsions:
REMARK  status: ('A' for Active; 'I' for Inactive)
REMARK    1  A    between atoms: P_1  and  O_8 
REMARK    2  A    between atoms: P_1  and  O_12 
REMARK    3  A    between atoms: P_1  and  O_14 
REMARK    4  A    between atoms: P_2  and  O_7 
REMARK    5  A    between atoms: P_2  and  O_12 
REMARK    6  A    between atoms: P_2  and  O_15 
REMARK    7  A    between atoms: C_26  and  O_5 
REMARK    8  A    between atoms: C_27  and  O_6 
REMARK    9  A    between atoms: O_7  and  C_34 
REMARK   10  A    between atoms: C_35  and  O_8 
REMARK   11  A    between atoms: C_30  and  O_9 
REMARK   12  A    between atoms: C_31  and  O_10 
REMARK   13  A    between atoms: C_32  and  O_11 
REMARK   14  A    between atoms: O_13  and  C_36 
REMARK   15  A    between atoms: C_29  and  N_18 
REMARK   16  A    between atoms: N_25  and  C_40 
REMARK   17  A    between atoms: C_28  and  C_34 
REMARK   18  A    between atoms: C_33  and  C_36 
ROOT
HETATM    1  O   UNK N   1      34.873  14.848   9.278  0.00  0.00    -0.294 OA
ENDROOT
BRANCH   1   2
HETATM    2  P   UNK N   1      35.958  14.061   8.154  0.00  0.00     0.401 P 
HETATM    3  O   UNK N   1      37.375  14.142   8.779  0.00  0.00    -0.631 OA
BRANCH   2   4
HETATM    4  O   UNK N   1      35.632  12.362   7.932  0.00  0.00    -0.195 OA
BRANCH   4   5
HETATM    5  P   UNK N   1      35.050  11.731   9.452  0.00  0.00     0.404 P 
HETATM    6  O   UNK N   1      34.772  10.212   9.286  0.00  0.00    -0.631 OA
BRANCH   5   7
HETATM    7  O   UNK N   1      36.239  11.898  10.726  0.00  0.00    -0.263 OA
BRANCH   7   8
HETATM    8  C   UNK N   1      35.617  12.402  11.885  0.00  0.00     0.303 C 
HETATM    9  O   UNK N   1      35.375  11.374  12.823  0.00  0.00    -0.348 OA
HETATM   10  C   UNK N   1      34.527  11.923  13.797  0.00  0.00     0.179 C 
HETATM   11  C   UNK N   1      35.365  12.835  14.698  0.00  0.00     0.180 C 
HETATM   12  C   UNK N   1      35.908  13.967  13.822  0.00  0.00     0.183 C 
HETATM   13  C   UNK N   1      36.558  13.422  12.546  0.00  0.00     0.205 C 
BRANCH  10  14
HETATM   14  C   UNK N   1      33.812  10.812  14.557  0.00  0.00     0.198 C 
BRANCH  14  15
HETATM   15  O   UNK N   1      34.493  10.501  15.735  0.00  0.00    -0.398 OA
HETATM   16  H   UNK N   1      35.086  10.060  16.362  0.00  0.00     0.209 HD
ENDBRANCH  14  15
ENDBRANCH  10  14
BRANCH  11  17
HETATM   17  O   UNK N   1      34.581  13.373  15.720  0.00  0.00    -0.390 OA
HETATM   18  H   UNK N   1      34.759  13.558  16.656  0.00  0.00     0.210 HD
ENDBRANCH  11  17
BRANCH  12  19
HETATM   19  O   UNK N   1      36.828  14.732  14.540  0.00  0.00    -0.390 OA
HETATM   20  H   UNK N   1      37.711  14.947  14.199  0.00  0.00     0.210 HD
ENDBRANCH  12  19
BRANCH  13  21
HETATM   21  O   UNK N   1      36.825  14.474  11.668  0.00  0.00    -0.388 OA
HETATM   22  H   UNK N   1      37.477  15.172  11.839  0.00  0.00     0.210 HD
ENDBRANCH  13  21
ENDBRANCH   7   8
ENDBRANCH   5   7
BRANCH   5  23
HETATM   23  O   UNK N   1      33.578  12.499   9.962  0.00  0.00    -0.307 OA
HETATM   24  H   UNK N   1      32.663  12.807   9.867  0.00  0.00     0.222 HD
ENDBRANCH   5  23
ENDBRANCH   4   5
ENDBRANCH   2   4
BRANCH   2  25
HETATM   25  O   UNK N   1      36.059  14.864   6.618  0.00  0.00    -0.307 OA
HETATM   26  H   UNK N   1      35.493  15.445   6.086  0.00  0.00     0.222 HD
ENDBRANCH   2  25
ENDBRANCH   1   2
BRANCH   1  27
HETATM   27  C   UNK N   1      35.155  16.211   9.175  0.00  0.00     0.215 C 
BRANCH  27  28
HETATM   28  C   UNK N   1      33.864  17.043   9.063  0.00  0.00     0.180 C 
HETATM   29  O   UNK N   1      32.798  16.205   8.646  0.00  0.00    -0.353 OA
HETATM   30  C   UNK N   1      32.642  16.405   7.253  0.00  0.00     0.262 C 
HETATM   31  C   UNK N   1      33.813  17.263   6.801  0.00  0.00     0.198 C 
HETATM   32  C   UNK N   1      34.002  18.122   7.995  0.00  0.00     0.182 C 
BRANCH  30  33
HETATM   33  N   UNK N   1      31.286  16.907   6.978  0.00  0.00    -0.297 N 
HETATM   34  C   UNK N   1      30.350  17.474   7.762  0.00  0.00     0.142 A 
HETATM   35  N   UNK N   1      30.388  17.700   9.099  0.00  0.00    -0.336 N 
HETATM   36  C   UNK N   1      29.286  17.819   7.009  0.00  0.00     0.122 A 
HETATM   37  C   UNK N   1      29.313  18.313   9.684  0.00  0.00     0.183 A 
ATOM     38  HN  UNK N   1      31.197  17.421   9.653  1.00  0.00     0.168 HD
HETATM   39  N   UNK N   1      28.229  18.687   8.929  0.00  0.00    -0.337 N 
HETATM   40  C   UNK N   1      28.194  18.447   7.584  0.00  0.00     0.131 A 
ATOM     41  HN  UNK N   1      27.439  19.152   9.378  1.00  0.00     0.168 HD
HETATM   42  N   UNK N   1      29.499  17.471   5.728  0.00  0.00    -0.346 N 
HETATM   43  C   UNK N   1      30.738  16.906   5.734  0.00  0.00     0.188 A 
ATOM     44  HN  UNK N   1      28.874  17.601   4.933  1.00  0.00     0.167 HD
BRANCH  40  45
HETATM   45  N   UNK N   1      27.083  18.840   6.813  0.00  0.00    -0.383 N 
HETATM   46  H   UNK N   1      26.317  18.229   6.705  0.00  0.00     0.157 HD
HETATM   47  H   UNK N   1      27.072  19.723   6.381  0.00  0.00     0.157 HD
ENDBRANCH  40  45
ENDBRANCH  30  33
BRANCH  31  48
HETATM   48  O   UNK N   1      33.635  17.937   5.594  0.00  0.00    -0.388 OA
HETATM   49  H   UNK N   1      33.918  18.814   5.290  0.00  0.00     0.210 HD
ENDBRANCH  31  48
BRANCH  32  50
HETATM   50  O   UNK N   1      35.257  18.736   8.002  0.00  0.00    -0.390 OA
HETATM   51  H   UNK N   1      35.761  18.819   7.177  0.00  0.00     0.210 HD
ENDBRANCH  32  50
ENDBRANCH  27  28
ENDBRANCH   1  27
TORSDOF 18
ENDMDL
MODEL 7
REMARK VINA RESULT:      -7.8      1.299      2.672
REMARK  18 active torsions:
REMARK  status: ('A' for Active; 'I' for Inactive)
REMARK    1  A    between atoms: P_1  and  O_8 
REMARK    2  A    between atoms: P_1  and  O_12 
REMARK    3  A    between atoms: P_1  and  O_14 
REMARK    4  A    between atoms: P_2  and  O_7 
REMARK    5  A    between atoms: P_2  and  O_12 
REMARK    6  A    between atoms: P_2  and  O_15 
REMARK    7  A    between atoms: C_26  and  O_5 
REMARK    8  A    between atoms: C_27  and  O_6 
REMARK    9  A    between atoms: O_7  and  C_34 
REMARK   10  A    between atoms: C_35  and  O_8 
REMARK   11  A    between atoms: C_30  and  O_9 
REMARK   12  A    between atoms: C_31  and  O_10 
REMARK   13  A    between atoms: C_32  and  O_11 
REMARK   14  A    between atoms: O_13  and  C_36 
REMARK   15  A    between atoms: C_29  and  N_18 
REMARK   16  A    between atoms: N_25  and  C_40 
REMARK   17  A    between atoms: C_28  and  C_34 
REMARK   18  A    between atoms: C_33  and  C_36 
ROOT
HETATM    1  O   UNK N   1      35.994  16.247  10.606  0.00  0.00    -0.294 OA
ENDROOT
BRANCH   1   2
HETATM    2  P   UNK N   1      35.923  14.840  11.642  0.00  0.00     0.401 P 
HETATM    3  O   UNK N   1      34.430  14.636  12.007  0.00  0.00    -0.631 OA
BRANCH   2   4
HETATM    4  O   UNK N   1      36.429  13.363  10.862  0.00  0.00    -0.195 OA
BRANCH   4   5
HETATM    5  P   UNK N   1      36.172  12.055  11.990  0.00  0.00     0.404 P 
HETATM    6  O   UNK N   1      36.691  10.738  11.350  0.00  0.00    -0.631 OA
BRANCH   5   7
HETATM    7  O   UNK N   1      37.068  12.289  13.476  0.00  0.00    -0.263 OA
BRANCH   7   8
HETATM    8  C   UNK N   1      36.427  11.600  14.524  0.00  0.00     0.303 C 
HETATM    9  O   UNK N   1      37.333  10.771  15.220  0.00  0.00    -0.348 OA
HETATM   10  C   UNK N   1      36.554   9.945  16.046  0.00  0.00     0.179 C 
HETATM   11  C   UNK N   1      36.075  10.779  17.238  0.00  0.00     0.180 C 
HETATM   12  C   UNK N   1      35.190  11.898  16.684  0.00  0.00     0.183 C 
HETATM   13  C   UNK N   1      35.874  12.629  15.524  0.00  0.00     0.205 C 
BRANCH  10  14
HETATM   14  C   UNK N   1      37.349   8.710  16.452  0.00  0.00     0.198 C 
BRANCH  14  15
HETATM   15  O   UNK N   1      37.509   7.846  15.368  0.00  0.00    -0.398 OA
HETATM   16  H   UNK N   1      37.302   7.260  14.624  0.00  0.00     0.209 HD
ENDBRANCH  14  15
ENDBRANCH  10  14
BRANCH  11  17
HETATM   17  O   UNK N   1      35.334   9.993  18.122  0.00  0.00    -0.390 OA
HETATM   18  H   UNK N   1      35.586   9.306  18.759  0.00  0.00     0.210 HD
ENDBRANCH  11  17
BRANCH  12  19
HETATM   19  O   UNK N   1      34.867  12.802  17.697  0.00  0.00    -0.390 OA
HETATM   20  H   UNK N   1      34.045  13.318  17.697  0.00  0.00     0.210 HD
ENDBRANCH  12  19
BRANCH  13  21
HETATM   21  O   UNK N   1      34.958  13.473  14.894  0.00  0.00    -0.388 OA
HETATM   22  H   UNK N   1      35.087  14.428  14.785  0.00  0.00     0.210 HD
ENDBRANCH  13  21
ENDBRANCH   7   8
ENDBRANCH   5   7
BRANCH   5  23
HETATM   23  O   UNK N   1      34.494  11.843  12.382  0.00  0.00    -0.307 OA
HETATM   24  H   UNK N   1      33.580  11.556  12.228  0.00  0.00     0.222 HD
ENDBRANCH   5  23
ENDBRANCH   4   5
ENDBRANCH   2   4
BRANCH   2  25
HETATM   25  O   UNK N   1      36.765  15.048  13.146  0.00  0.00    -0.307 OA
HETATM   26  H   UNK N   1      36.547  15.347  14.043  0.00  0.00     0.222 HD
ENDBRANCH   2  25
ENDBRANCH   1   2
BRANCH   1  27
HETATM   27  C   UNK N   1      35.260  15.908   9.468  0.00  0.00     0.215 C 
BRANCH  27  28
HETATM   28  C   UNK N   1      33.948  16.712   9.387  0.00  0.00     0.180 C 
HETATM   29  O   UNK N   1      32.945  15.915   8.778  0.00  0.00    -0.353 OA
HETATM   30  C   UNK N   1      32.874  16.316   7.422  0.00  0.00     0.262 C 
HETATM   31  C   UNK N   1      34.038  17.264   7.184  0.00  0.00     0.198 C 
HETATM   32  C   UNK N   1      34.115  17.941   8.502  0.00  0.00     0.182 C 
BRANCH  30  33
HETATM   33  N   UNK N   1      31.521  16.815   7.127  0.00  0.00    -0.297 N 
HETATM   34  C   UNK N   1      30.589  17.419   7.889  0.00  0.00     0.142 A 
HETATM   35  N   UNK N   1      30.630  17.699   9.214  0.00  0.00    -0.336 N 
HETATM   36  C   UNK N   1      29.527  17.740   7.122  0.00  0.00     0.122 A 
HETATM   37  C   UNK N   1      29.560  18.342   9.775  0.00  0.00     0.183 A 
ATOM     38  HN  UNK N   1      31.437  17.437   9.780  1.00  0.00     0.168 HD
HETATM   39  N   UNK N   1      28.477  18.693   9.006  0.00  0.00    -0.337 N 
HETATM   40  C   UNK N   1      28.440  18.398   7.672  0.00  0.00     0.131 A 
ATOM     41  HN  UNK N   1      27.691  19.180   9.436  1.00  0.00     0.168 HD
HETATM   42  N   UNK N   1      29.737  17.340   5.857  0.00  0.00    -0.346 N 
HETATM   43  C   UNK N   1      30.972  16.767   5.884  0.00  0.00     0.188 A 
ATOM     44  HN  UNK N   1      29.112  17.441   5.057  1.00  0.00     0.167 HD
BRANCH  40  45
HETATM   45  N   UNK N   1      27.330  18.766   6.886  0.00  0.00    -0.383 N 
HETATM   46  H   UNK N   1      27.189  18.348   6.005  0.00  0.00     0.157 HD
HETATM   47  H   UNK N   1      26.697  19.443   7.216  0.00  0.00     0.157 HD
ENDBRANCH  40  45
ENDBRANCH  30  33
BRANCH  31  48
HETATM   48  O   UNK N   1      33.916  18.105   6.080  0.00  0.00    -0.388 OA
HETATM   49  H   UNK N   1      33.351  18.875   5.906  0.00  0.00     0.210 HD
ENDBRANCH  31  48
BRANCH  32  50
HETATM   50  O   UNK N   1      35.343  18.582   8.688  0.00  0.00    -0.390 OA
HETATM   51  H   UNK N   1      35.502  19.101   9.491  0.00  0.00     0.210 HD
ENDBRANCH  32  50
ENDBRANCH  27  28
ENDBRANCH   1  27
TORSDOF 18
ENDMDL
MODEL 8
REMARK VINA RESULT:      -7.7      5.063     10.519
REMARK  18 active torsions:
REMARK  status: ('A' for Active; 'I' for Inactive)
REMARK    1  A    between atoms: P_1  and  O_8 
REMARK    2  A    between atoms: P_1  and  O_12 
REMARK    3  A    between atoms: P_1  and  O_14 
REMARK    4  A    between atoms: P_2  and  O_7 
REMARK    5  A    between atoms: P_2  and  O_12 
REMARK    6  A    between atoms: P_2  and  O_15 
REMARK    7  A    between atoms: C_26  and  O_5 
REMARK    8  A    between atoms: C_27  and  O_6 
REMARK    9  A    between atoms: O_7  and  C_34 
REMARK   10  A    between atoms: C_35  and  O_8 
REMARK   11  A    between atoms: C_30  and  O_9 
REMARK   12  A    between atoms: C_31  and  O_10 
REMARK   13  A    between atoms: C_32  and  O_11 
REMARK   14  A    between atoms: O_13  and  C_36 
REMARK   15  A    between atoms: C_29  and  N_18 
REMARK   16  A    between atoms: N_25  and  C_40 
REMARK   17  A    between atoms: C_28  and  C_34 
REMARK   18  A    between atoms: C_33  and  C_36 
ROOT
HETATM    1  O   UNK N   1      35.374  17.182  10.161  0.00  0.00    -0.294 OA
ENDROOT
BRANCH   1   2
HETATM    2  P   UNK N   1      34.365  17.304   8.738  0.00  0.00     0.401 P 
HETATM    3  O   UNK N   1      34.865  18.541   7.948  0.00  0.00    -0.631 OA
BRANCH   2   4
HETATM    4  O   UNK N   1      34.515  15.950   7.648  0.00  0.00    -0.195 OA
BRANCH   4   5
HETATM    5  P   UNK N   1      32.943  15.660   6.944  0.00  0.00     0.404 P 
HETATM    6  O   UNK N   1      31.979  15.179   8.063  0.00  0.00    -0.631 OA
BRANCH   5   7
HETATM    7  O   UNK N   1      32.253  17.119   6.265  0.00  0.00    -0.263 OA
BRANCH   7   8
HETATM    8  C   UNK N   1      30.848  17.033   6.302  0.00  0.00     0.303 C 
HETATM    9  O   UNK N   1      30.313  17.853   7.320  0.00  0.00    -0.348 OA
HETATM   10  C   UNK N   1      28.961  17.491   7.444  0.00  0.00     0.179 C 
HETATM   11  C   UNK N   1      28.196  18.097   6.263  0.00  0.00     0.180 C 
HETATM   12  C   UNK N   1      28.759  17.469   4.986  0.00  0.00     0.183 C 
HETATM   13  C   UNK N   1      30.290  17.534   4.960  0.00  0.00     0.205 C 
BRANCH  10  14
HETATM   14  C   UNK N   1      28.425  17.928   8.801  0.00  0.00     0.198 C 
BRANCH  14  15
HETATM   15  O   UNK N   1      27.369  17.109   9.203  0.00  0.00    -0.398 OA
HETATM   16  H   UNK N   1      26.676  16.708   9.750  0.00  0.00     0.209 HD
ENDBRANCH  14  15
ENDBRANCH  10  14
BRANCH  11  17
HETATM   17  O   UNK N   1      26.833  17.810   6.362  0.00  0.00    -0.390 OA
HETATM   18  H   UNK N   1      26.049  18.198   5.943  0.00  0.00     0.210 HD
ENDBRANCH  11  17
BRANCH  12  19
HETATM   19  O   UNK N   1      28.233  18.109   3.863  0.00  0.00    -0.390 OA
HETATM   20  H   UNK N   1      28.131  19.073   3.809  0.00  0.00     0.210 HD
ENDBRANCH  12  19
BRANCH  13  21
HETATM   21  O   UNK N   1      30.776  16.751   3.911  0.00  0.00    -0.388 OA
HETATM   22  H   UNK N   1      30.728  17.006   2.976  0.00  0.00     0.210 HD
ENDBRANCH  13  21
ENDBRANCH   7   8
ENDBRANCH   5   7
BRANCH   5  23
HETATM   23  O   UNK N   1      32.991  14.441   5.708  0.00  0.00    -0.307 OA
HETATM   24  H   UNK N   1      33.319  13.641   5.268  0.00  0.00     0.222 HD
ENDBRANCH   5  23
ENDBRANCH   4   5
ENDBRANCH   2   4
BRANCH   2  25
HETATM   25  O   UNK N   1      32.694  17.604   9.102  0.00  0.00    -0.307 OA
HETATM   26  H   UNK N   1      32.085  18.359   9.055  0.00  0.00     0.222 HD
ENDBRANCH   2  25
ENDBRANCH   1   2
BRANCH   1  27
HETATM   27  C   UNK N   1      35.897  15.888  10.137  0.00  0.00     0.215 C 
BRANCH  27  28
HETATM   28  C   UNK N   1      35.738  15.193  11.502  0.00  0.00     0.180 C 
HETATM   29  O   UNK N   1      36.805  14.277  11.691  0.00  0.00    -0.353 OA
HETATM   30  C   UNK N   1      36.303  12.994  11.363  0.00  0.00     0.262 C 
HETATM   31  C   UNK N   1      34.923  13.204  10.764  0.00  0.00     0.198 C 
HETATM   32  C   UNK N   1      34.455  14.371  11.550  0.00  0.00     0.182 C 
BRANCH  30  33
HETATM   33  N   UNK N   1      36.407  12.112  12.538  0.00  0.00    -0.297 N 
HETATM   34  C   UNK N   1      36.220  12.325  13.854  0.00  0.00     0.142 A 
HETATM   35  N   UNK N   1      35.919  13.484  14.490  0.00  0.00    -0.336 N 
HETATM   36  C   UNK N   1      36.377  11.163  14.521  0.00  0.00     0.122 A 
HETATM   37  C   UNK N   1      35.757  13.455  15.849  0.00  0.00     0.183 A 
ATOM     38  HN  UNK N   1      35.816  14.355  13.969  1.00  0.00     0.168 HD
HETATM   39  N   UNK N   1      35.896  12.278  16.542  0.00  0.00    -0.337 N 
HETATM   40  C   UNK N   1      36.209  11.116  15.894  0.00  0.00     0.131 A 
ATOM     41  HN  UNK N   1      35.763  12.270  17.553  1.00  0.00     0.168 HD
HETATM   42  N   UNK N   1      36.684  10.179  13.659  0.00  0.00    -0.346 N 
HETATM   43  C   UNK N   1      36.701  10.788  12.442  0.00  0.00     0.188 A 
ATOM     44  HN  UNK N   1      36.865   9.197  13.870  1.00  0.00     0.167 HD
BRANCH  40  45
HETATM   45  N   UNK N   1      36.343   9.909  16.608  0.00  0.00    -0.383 N 
HETATM   46  H   UNK N   1      37.082   9.795  17.251  0.00  0.00     0.157 HD
HETATM   47  H   UNK N   1      35.699   9.179  16.465  0.00  0.00     0.157 HD
ENDBRANCH  40  45
ENDBRANCH  30  33
BRANCH  31  48
HETATM   48  O   UNK N   1      34.083  12.092  10.779  0.00  0.00    -0.388 OA
HETATM   49  H   UNK N   1      33.955  11.380  11.425  0.00  0.00     0.210 HD
ENDBRANCH  31  48
BRANCH  32  50
HETATM   50  O   UNK N   1      33.375  15.014  10.939  0.00  0.00    -0.390 OA
HETATM   51  H   UNK N   1      32.469  14.729  11.133  0.00  0.00     0.210 HD
ENDBRANCH  32  50
ENDBRANCH  27  28
ENDBRANCH   1  27
TORSDOF 18
ENDMDL
MODEL 9
REMARK VINA RESULT:      -7.7      1.932      3.328
REMARK  18 active torsions:
REMARK  status: ('A' for Active; 'I' for Inactive)
REMARK    1  A    between atoms: P_1  and  O_8 
REMARK    2  A    between atoms: P_1  and  O_12 
REMARK    3  A    between atoms: P_1  and  O_14 
REMARK    4  A    between atoms: P_2  and  O_7 
REMARK    5  A    between atoms: P_2  and  O_12 
REMARK    6  A    between atoms: P_2  and  O_15 
REMARK    7  A    between atoms: C_26  and  O_5 
REMARK    8  A    between atoms: C_27  and  O_6 
REMARK    9  A    between atoms: O_7  and  C_34 
REMARK   10  A    between atoms: C_35  and  O_8 
REMARK   11  A    between atoms: C_30  and  O_9 
REMARK   12  A    between atoms: C_31  and  O_10 
REMARK   13  A    between atoms: C_32  and  O_11 
REMARK   14  A    between atoms: O_13  and  C_36 
REMARK   15  A    between atoms: C_29  and  N_18 
REMARK   16  A    between atoms: N_25  and  C_40 
REMARK   17  A    between atoms: C_28  and  C_34 
REMARK   18  A    between atoms: C_33  and  C_36 
ROOT
HETATM    1  O   UNK N   1      35.877  16.606  10.761  0.00  0.00    -0.294 OA
ENDROOT
BRANCH   1   2
HETATM    2  P   UNK N   1      35.801  15.146  11.721  0.00  0.00     0.401 P 
HETATM    3  O   UNK N   1      36.764  14.130  11.053  0.00  0.00    -0.631 OA
BRANCH   2   4
HETATM    4  O   UNK N   1      36.379  15.346  13.355  0.00  0.00    -0.195 OA
BRANCH   4   5
HETATM    5  P   UNK N   1      36.348  13.777  14.122  0.00  0.00     0.404 P 
HETATM    6  O   UNK N   1      37.129  13.864  15.462  0.00  0.00    -0.631 OA
BRANCH   5   7
HETATM    7  O   UNK N   1      34.716  13.274  14.512  0.00  0.00    -0.263 OA
BRANCH   7   8
HETATM    8  C   UNK N   1      34.543  11.923  14.149  0.00  0.00     0.303 C 
HETATM    9  O   UNK N   1      34.654  11.752  12.752  0.00  0.00    -0.348 OA
HETATM   10  C   UNK N   1      34.204  10.449  12.481  0.00  0.00     0.179 C 
HETATM   11  C   UNK N   1      35.305   9.469  12.900  0.00  0.00     0.180 C 
HETATM   12  C   UNK N   1      35.497   9.620  14.411  0.00  0.00     0.183 C 
HETATM   13  C   UNK N   1      35.654  11.091  14.810  0.00  0.00     0.205 C 
BRANCH  10  14
HETATM   14  C   UNK N   1      33.810  10.326  11.015  0.00  0.00     0.198 C 
BRANCH  14  15
HETATM   15  O   UNK N   1      33.931  11.555  10.364  0.00  0.00    -0.398 OA
HETATM   16  H   UNK N   1      34.043  12.506  10.214  0.00  0.00     0.209 HD
ENDBRANCH  14  15
ENDBRANCH  10  14
BRANCH  11  17
HETATM   17  O   UNK N   1      34.931   8.157  12.607  0.00  0.00    -0.390 OA
HETATM   18  H   UNK N   1      35.190   7.543  11.901  0.00  0.00     0.210 HD
ENDBRANCH  11  17
BRANCH  12  19
HETATM   19  O   UNK N   1      36.609   8.888  14.830  0.00  0.00    -0.390 OA
HETATM   20  H   UNK N   1      37.520   9.192  14.691  0.00  0.00     0.210 HD
ENDBRANCH  12  19
BRANCH  13  21
HETATM   21  O   UNK N   1      35.589  11.211  16.199  0.00  0.00    -0.388 OA
HETATM   22  H   UNK N   1      36.230  11.707  16.732  0.00  0.00     0.210 HD
ENDBRANCH  13  21
ENDBRANCH   7   8
ENDBRANCH   5   7
BRANCH   5  23
HETATM   23  O   UNK N   1      37.088  12.550  13.141  0.00  0.00    -0.307 OA
HETATM   24  H   UNK N   1      37.262  12.059  12.323  0.00  0.00     0.222 HD
ENDBRANCH   5  23
ENDBRANCH   4   5
ENDBRANCH   2   4
BRANCH   2  25
HETATM   25  O   UNK N   1      34.233  14.401  11.720  0.00  0.00    -0.307 OA
HETATM   26  H   UNK N   1      33.880  13.498  11.720  0.00  0.00     0.222 HD
ENDBRANCH   2  25
ENDBRANCH   1   2
BRANCH   1  27
HETATM   27  C   UNK N   1      35.252  16.290   9.554  0.00  0.00     0.215 C 
BRANCH  27  28
HETATM   28  C   UNK N   1      33.934  17.069   9.383  0.00  0.00     0.180 C 
HETATM   29  O   UNK N   1      32.934  16.197   8.879  0.00  0.00    -0.353 OA
HETATM   30  C   UNK N   1      32.855  16.430   7.485  0.00  0.00     0.262 C 
HETATM   31  C   UNK N   1      34.011  17.351   7.129  0.00  0.00     0.198 C 
HETATM   32  C   UNK N   1      34.088  18.183   8.355  0.00  0.00     0.182 C 
BRANCH  30  33
HETATM   33  N   UNK N   1      31.497  16.881   7.139  0.00  0.00    -0.297 N 
HETATM   34  C   UNK N   1      30.529  17.483   7.855  0.00  0.00     0.142 A 
HETATM   35  N   UNK N   1      30.527  17.810   9.171  0.00  0.00    -0.336 N 
HETATM   36  C   UNK N   1      29.479  17.748   7.052  0.00  0.00     0.122 A 
HETATM   37  C   UNK N   1      29.426  18.441   9.682  0.00  0.00     0.183 A 
ATOM     38  HN  UNK N   1      31.327  17.591   9.765  1.00  0.00     0.168 HD
HETATM   39  N   UNK N   1      28.354  18.734   8.874  0.00  0.00    -0.337 N 
HETATM   40  C   UNK N   1      28.360  18.393   7.551  0.00  0.00     0.131 A 
ATOM     41  HN  UNK N   1      27.544  19.213   9.267  1.00  0.00     0.168 HD
HETATM   42  N   UNK N   1      29.733  17.310   5.807  0.00  0.00    -0.346 N 
HETATM   43  C   UNK N   1      30.982  16.775   5.885  0.00  0.00     0.188 A 
ATOM     44  HN  UNK N   1      29.126  17.366   4.988  1.00  0.00     0.167 HD
BRANCH  40  45
HETATM   45  N   UNK N   1      27.262  18.703   6.724  0.00  0.00    -0.383 N 
HETATM   46  H   UNK N   1      26.531  19.269   7.066  0.00  0.00     0.157 HD
HETATM   47  H   UNK N   1      27.224  18.352   5.806  0.00  0.00     0.157 HD
ENDBRANCH  40  45
ENDBRANCH  30  33
BRANCH  31  48
HETATM   48  O   UNK N   1      33.877  18.052   5.932  0.00  0.00    -0.388 OA
HETATM   49  H   UNK N   1      33.312  17.914   5.155  0.00  0.00     0.210 HD
ENDBRANCH  31  48
BRANCH  32  50
HETATM   50  O   UNK N   1      35.311  18.851   8.455  0.00  0.00    -0.390 OA
HETATM   51  H   UNK N   1      35.998  18.708   7.786  0.00  0.00     0.210 HD
ENDBRANCH  32  50
ENDBRANCH  27  28
ENDBRANCH   1  27
TORSDOF 18
ENDMDL
