MODEL 1
REMARK VINA RESULT:      -7.5      0.000      0.000
REMARK  20 active torsions:
REMARK  status: ('A' for Active; 'I' for Inactive)
REMARK    1  A    between atoms: C_5  and  N_4 
REMARK    2  A    between atoms: C_7  and  C_8 
REMARK    3  A    between atoms: C_8  and  O_9 
REMARK    4  A    between atoms: P_10  and  O_9 
REMARK    5  A    between atoms: P_10  and  O_11 
REMARK    6  A    between atoms: P_10  and  O_13 
REMARK    7  A    between atoms: P_14  and  O_13 
REMARK    8  A    between atoms: P_14  and  O_15 
REMARK    9  A    between atoms: P_14  and  O_17 
REMARK   10  A    between atoms: P_18  and  O_17 
REMARK   11  A    between atoms: P_18  and  O_19 
REMARK   12  A    between atoms: P_18  and  O_21 
REMARK   13  A    between atoms: O_21  and  C_22 
REMARK   14  A    between atoms: C_23  and  C_22 
REMARK   15  A    between atoms: C_25  and  N_30 
REMARK   16  A    between atoms: C_26  and  O_27 
REMARK   17  A    between atoms: C_28  and  O_29 
REMARK   18  A    between atoms: C_35  and  N_36 
REMARK   19  A    between atoms: C_43  and  O_44 
REMARK   20  A    between atoms: C_45  and  O_46 
REMARK       I    between atoms: C_53  and  N_54 
ROOT
HETATM    1  P   UNK N   1      21.636  13.736   3.619  0.00  0.00     0.410 P 
HETATM    2  O   UNK N   1      20.810  13.479   4.905  0.00  0.00    -0.631 OA
ENDROOT
BRANCH   1   3
HETATM    3  O   UNK N   1      23.339  13.458   3.992  0.00  0.00    -0.195 OA
BRANCH   3   4
HETATM    4  P   UNK N   1      24.302  13.610   2.517  0.00  0.00     0.401 P 
HETATM    5  O   UNK N   1      24.000  12.131   2.204  0.00  0.00    -0.631 OA
BRANCH   4   6
HETATM    6  O   UNK N   1      26.029  13.282   2.232  0.00  0.00    -0.294 OA
BRANCH   6   7
HETATM    7  C   UNK N   1      26.834  13.530   3.390  0.00  0.00     0.215 C 
BRANCH   7   8
HETATM    8  C   UNK N   1      27.953  14.546   3.131  0.00  0.00     0.180 C 
HETATM    9  O   UNK N   1      28.868  14.491   4.174  0.00  0.00    -0.353 OA
HETATM   10  C   UNK N   1      28.825  15.736   4.806  0.00  0.00     0.262 C 
HETATM   11  C   UNK N   1      28.552  16.781   3.727  0.00  0.00     0.198 C 
HETATM   12  C   UNK N   1      27.571  16.016   2.863  0.00  0.00     0.182 C 
BRANCH  10  13
HETATM   13  N   UNK N   1      30.077  15.828   5.536  0.00  0.00    -0.296 N 
HETATM   14  C   UNK N   1      31.210  15.087   5.408  0.00  0.00     0.190 A 
HETATM   15  N   UNK N   1      31.997  15.239   6.501  0.00  0.00    -0.340 N 
HETATM   16  C   UNK N   1      33.246  14.545   6.754  0.00  0.00     0.157 C 
HETATM   17  C   UNK N   1      31.326  16.070   7.326  0.00  0.00     0.149 A 
HETATM   18  C   UNK N   1      30.182  16.437   6.722  0.00  0.00     0.159 A 
HETATM   19  C   UNK N   1      31.596  16.499   8.616  0.00  0.00     0.290 A 
HETATM   20  N   UNK N   1      29.257  17.231   7.323  0.00  0.00    -0.174 N 
HETATM   21  C   UNK N   1      29.520  17.694   8.580  0.00  0.00     0.680 A 
HETATM   22  H   UNK N   1      28.419  17.467   6.863  0.00  0.00     0.186 HD
HETATM   23  N   UNK N   1      30.673  17.325   9.228  0.00  0.00    -0.154 N 
HETATM   24  N   UNK N   1      28.593  18.538   9.223  0.00  0.00    -0.234 N 
ATOM     25  HN  UNK N   1      30.850  17.666  10.174  1.00  0.00     0.187 HD
HETATM   26  H   UNK N   1      27.752  18.785   8.773  0.00  0.00     0.174 HD
HETATM   27  H   UNK N   1      28.785  18.882  10.125  0.00  0.00     0.174 HD
HETATM   28  O   UNK N   1      32.594  16.141   9.212  0.00  0.00    -0.265 OA
ENDBRANCH  10  13
BRANCH  11  29
HETATM   29  O   UNK N   1      29.694  17.033   2.966  0.00  0.00    -0.388 OA
HETATM   30  H   UNK N   1      30.456  16.434   2.933  0.00  0.00     0.210 HD
ENDBRANCH  11  29
BRANCH  12  31
HETATM   31  O   UNK N   1      26.264  16.309   3.251  0.00  0.00    -0.390 OA
HETATM   32  H   UNK N   1      25.844  17.184   3.250  0.00  0.00     0.210 HD
ENDBRANCH  12  31
ENDBRANCH   7   8
ENDBRANCH   6   7
ENDBRANCH   4   6
BRANCH   4  33
HETATM   33  O   UNK N   1      25.230  13.398   3.968  0.00  0.00    -0.307 OA
HETATM   34  H   UNK N   1      26.007  13.850   4.333  0.00  0.00     0.222 HD
ENDBRANCH   4  33
ENDBRANCH   3   4
ENDBRANCH   1   3
BRANCH   1  35
HETATM   35  O   UNK N   1      20.992  12.678   2.400  0.00  0.00    -0.307 OA
HETATM   36  H   UNK N   1      21.277  11.788   2.139  0.00  0.00     0.222 HD
ENDBRANCH   1  35
BRANCH   1  37
HETATM   37  O   UNK N   1      21.336  15.395   3.212  0.00  0.00    -0.195 OA
BRANCH  37  38
HETATM   38  P   UNK N   1      20.414  15.421   1.749  0.00  0.00     0.401 P 
HETATM   39  O   UNK N   1      21.278  14.759   0.639  0.00  0.00    -0.631 OA
BRANCH  38  40
HETATM   40  O   UNK N   1      18.891  14.569   1.811  0.00  0.00    -0.307 OA
HETATM   41  H   UNK N   1      18.879  13.605   1.926  0.00  0.00     0.222 HD
ENDBRANCH  38  40
BRANCH  38  42
HETATM   42  O   UNK N   1      20.276  17.110   1.360  0.00  0.00    -0.294 OA
BRANCH  42  43
HETATM   43  C   UNK N   1      19.512  17.717   2.345  0.00  0.00     0.215 C 
BRANCH  43  44
HETATM   44  C   UNK N   1      19.809  19.194   2.327  0.00  0.00     0.180 C 
HETATM   45  O   UNK N   1      20.132  19.608   3.634  0.00  0.00    -0.353 OA
HETATM   46  C   UNK N   1      21.411  20.174   3.565  0.00  0.00     0.262 C 
HETATM   47  C   UNK N   1      21.662  20.590   2.128  0.00  0.00     0.198 C 
HETATM   48  C   UNK N   1      20.973  19.465   1.422  0.00  0.00     0.182 C 
BRANCH  46  49
HETATM   49  N   UNK N   1      22.423  19.270   4.132  0.00  0.00    -0.297 N 
HETATM   50  C   UNK N   1      23.729  19.232   3.759  0.00  0.00     0.188 A 
HETATM   51  N   UNK N   1      24.379  18.177   4.329  0.00  0.00    -0.346 N 
HETATM   52  C   UNK N   1      23.434  17.563   5.066  0.00  0.00     0.122 A 
ATOM     53  HN  UNK N   1      25.358  17.912   4.222  1.00  0.00     0.167 HD
HETATM   54  C   UNK N   1      23.497  16.381   5.787  0.00  0.00     0.131 A 
HETATM   55  C   UNK N   1      22.272  18.237   4.973  0.00  0.00     0.142 A 
HETATM   56  N   UNK N   1      22.363  15.959   6.425  0.00  0.00    -0.337 N 
HETATM   57  C   UNK N   1      21.199  16.685   6.350  0.00  0.00     0.183 A 
ATOM     58  HN  UNK N   1      22.382  15.094   6.963  1.00  0.00     0.168 HD
HETATM   59  N   UNK N   1      21.143  17.826   5.599  0.00  0.00    -0.336 N 
ATOM     60  HN  UNK N   1      20.274  18.354   5.512  1.00  0.00     0.168 HD
BRANCH  54  61
HETATM   61  N   UNK N   1      24.667  15.598   5.814  0.00  0.00    -0.383 N 
HETATM   62  H   UNK N   1      24.613  14.622   5.699  0.00  0.00     0.157 HD
HETATM   63  H   UNK N   1      25.542  16.029   5.947  0.00  0.00     0.157 HD
ENDBRANCH  54  61
ENDBRANCH  46  49
BRANCH  47  64
HETATM   64  O   UNK N   1      20.989  21.793   1.902  0.00  0.00    -0.388 OA
HETATM   65  H   UNK N   1      20.484  22.459   2.396  0.00  0.00     0.210 HD
ENDBRANCH  47  64
BRANCH  48  66
HETATM   66  O   UNK N   1      20.534  19.830   0.146  0.00  0.00    -0.390 OA
HETATM   67  H   UNK N   1      21.145  20.230  -0.492  0.00  0.00     0.210 HD
ENDBRANCH  48  66
ENDBRANCH  43  44
ENDBRANCH  42  43
ENDBRANCH  38  42
ENDBRANCH  37  38
ENDBRANCH   1  37
TORSDOF 20
ENDMDL
MODEL 2
REMARK VINA RESULT:      -7.3      5.651     13.230
REMARK  20 active torsions:
REMARK  status: ('A' for Active; 'I' for Inactive)
REMARK    1  A    between atoms: C_5  and  N_4 
REMARK    2  A    between atoms: C_7  and  C_8 
REMARK    3  A    between atoms: C_8  and  O_9 
REMARK    4  A    between atoms: P_10  and  O_9 
REMARK    5  A    between atoms: P_10  and  O_11 
REMARK    6  A    between atoms: P_10  and  O_13 
REMARK    7  A    between atoms: P_14  and  O_13 
REMARK    8  A    between atoms: P_14  and  O_15 
REMARK    9  A    between atoms: P_14  and  O_17 
REMARK   10  A    between atoms: P_18  and  O_17 
REMARK   11  A    between atoms: P_18  and  O_19 
REMARK   12  A    between atoms: P_18  and  O_21 
REMARK   13  A    between atoms: O_21  and  C_22 
REMARK   14  A    between atoms: C_23  and  C_22 
REMARK   15  A    between atoms: C_25  and  N_30 
REMARK   16  A    between atoms: C_26  and  O_27 
REMARK   17  A    between atoms: C_28  and  O_29 
REMARK   18  A    between atoms: C_35  and  N_36 
REMARK   19  A    between atoms: C_43  and  O_44 
REMARK   20  A    between atoms: C_45  and  O_46 
REMARK       I    between atoms: C_53  and  N_54 
ROOT
HETATM    1  P   UNK N   1      34.393  17.655   8.562  0.00  0.00     0.410 P 
HETATM    2  O   UNK N   1      32.860  17.863   8.650  0.00  0.00    -0.631 OA
ENDROOT
BRANCH   1   3
HETATM    3  O   UNK N   1      34.727  16.577   7.204  0.00  0.00    -0.195 OA
BRANCH   3   4
HETATM    4  P   UNK N   1      33.284  16.434   6.192  0.00  0.00     0.401 P 
HETATM    5  O   UNK N   1      34.071  15.494   5.257  0.00  0.00    -0.631 OA
BRANCH   4   6
HETATM    6  O   UNK N   1      32.782  17.375   4.767  0.00  0.00    -0.294 OA
BRANCH   6   7
HETATM    7  C   UNK N   1      32.667  16.571   3.588  0.00  0.00     0.215 C 
BRANCH   7   8
HETATM    8  C   UNK N   1      31.212  16.301   3.188  0.00  0.00     0.180 C 
HETATM    9  O   UNK N   1      30.406  17.312   3.695  0.00  0.00    -0.353 OA
HETATM   10  C   UNK N   1      29.542  16.709   4.613  0.00  0.00     0.262 C 
HETATM   11  C   UNK N   1      29.234  15.309   4.089  0.00  0.00     0.198 C 
HETATM   12  C   UNK N   1      30.591  14.932   3.532  0.00  0.00     0.182 C 
BRANCH  10  13
HETATM   13  N   UNK N   1      28.436  17.639   4.750  0.00  0.00    -0.296 N 
HETATM   14  C   UNK N   1      27.778  18.349   3.796  0.00  0.00     0.190 A 
HETATM   15  N   UNK N   1      27.072  19.358   4.363  0.00  0.00    -0.340 N 
HETATM   16  C   UNK N   1      26.310  20.368   3.653  0.00  0.00     0.157 C 
HETATM   17  C   UNK N   1      27.321  19.282   5.688  0.00  0.00     0.149 A 
HETATM   18  C   UNK N   1      28.124  18.228   5.911  0.00  0.00     0.159 A 
HETATM   19  C   UNK N   1      26.953  20.107   6.739  0.00  0.00     0.290 A 
HETATM   20  N   UNK N   1      28.601  17.916   7.145  0.00  0.00    -0.174 N 
HETATM   21  C   UNK N   1      28.222  18.695   8.201  0.00  0.00     0.680 A 
HETATM   22  H   UNK N   1      29.204  17.149   7.275  0.00  0.00     0.186 HD
HETATM   23  N   UNK N   1      27.414  19.787   8.002  0.00  0.00    -0.154 N 
HETATM   24  N   UNK N   1      28.679  18.386   9.497  0.00  0.00    -0.234 N 
ATOM     25  HN  UNK N   1      27.150  20.370   8.798  1.00  0.00     0.187 HD
HETATM   26  H   UNK N   1      29.280  17.619   9.642  0.00  0.00     0.174 HD
HETATM   27  H   UNK N   1      28.398  18.939  10.261  0.00  0.00     0.174 HD
HETATM   28  O   UNK N   1      26.274  21.101   6.564  0.00  0.00    -0.265 OA
ENDBRANCH  10  13
BRANCH  11  29
HETATM   29  O   UNK N   1      28.328  15.352   3.029  0.00  0.00    -0.388 OA
HETATM   30  H   UNK N   1      27.473  15.807   3.077  0.00  0.00     0.210 HD
ENDBRANCH  11  29
BRANCH  12  31
HETATM   31  O   UNK N   1      31.326  14.237   4.493  0.00  0.00    -0.390 OA
HETATM   32  H   UNK N   1      31.940  13.503   4.330  0.00  0.00     0.210 HD
ENDBRANCH  12  31
ENDBRANCH   7   8
ENDBRANCH   6   7
ENDBRANCH   4   6
BRANCH   4  33
HETATM   33  O   UNK N   1      34.198  17.889   5.949  0.00  0.00    -0.307 OA
HETATM   34  H   UNK N   1      34.360  18.672   6.498  0.00  0.00     0.222 HD
ENDBRANCH   4  33
ENDBRANCH   3   4
ENDBRANCH   1   3
BRANCH   1  35
HETATM   35  O   UNK N   1      35.097  19.235   8.407  0.00  0.00    -0.307 OA
HETATM   36  H   UNK N   1      34.736  20.037   7.995  0.00  0.00     0.222 HD
ENDBRANCH   1  35
BRANCH   1  37
HETATM   37  O   UNK N   1      34.839  16.931  10.074  0.00  0.00    -0.195 OA
BRANCH  37  38
HETATM   38  P   UNK N   1      34.240  15.308  10.080  0.00  0.00     0.401 P 
HETATM   39  O   UNK N   1      34.142  14.851  11.562  0.00  0.00    -0.631 OA
BRANCH  38  40
HETATM   40  O   UNK N   1      32.666  15.091   9.354  0.00  0.00    -0.307 OA
HETATM   41  H   UNK N   1      32.593  14.749   8.449  0.00  0.00     0.222 HD
ENDBRANCH  38  40
BRANCH  38  42
HETATM   42  O   UNK N   1      35.508  14.381   9.334  0.00  0.00    -0.294 OA
BRANCH  42  43
HETATM   43  C   UNK N   1      36.718  14.808   9.861  0.00  0.00     0.215 C 
BRANCH  43  44
HETATM   44  C   UNK N   1      37.780  13.819   9.458  0.00  0.00     0.180 C 
HETATM   45  O   UNK N   1      38.436  13.360  10.618  0.00  0.00    -0.353 OA
HETATM   46  C   UNK N   1      38.288  11.967  10.631  0.00  0.00     0.262 C 
HETATM   47  C   UNK N   1      38.002  11.513   9.213  0.00  0.00     0.198 C 
HETATM   48  C   UNK N   1      37.148  12.654   8.756  0.00  0.00     0.182 C 
BRANCH  46  49
HETATM   49  N   UNK N   1      37.292  11.548  11.627  0.00  0.00    -0.297 N 
HETATM   50  C   UNK N   1      36.580  10.391  11.577  0.00  0.00     0.188 A 
HETATM   51  N   UNK N   1      35.610  10.361  12.535  0.00  0.00    -0.346 N 
HETATM   52  C   UNK N   1      35.743  11.535  13.179  0.00  0.00     0.122 A 
ATOM     53  HN  UNK N   1      34.937   9.618  12.722  1.00  0.00     0.167 HD
HETATM   54  C   UNK N   1      34.966  12.093  14.183  0.00  0.00     0.131 A 
HETATM   55  C   UNK N   1      36.770  12.231  12.656  0.00  0.00     0.142 A 
HETATM   56  N   UNK N   1      35.307  13.334  14.642  0.00  0.00    -0.337 N 
HETATM   57  C   UNK N   1      36.385  14.008  14.121  0.00  0.00     0.183 A 
ATOM     58  HN  UNK N   1      34.754  13.767  15.381  1.00  0.00     0.168 HD
HETATM   59  N   UNK N   1      37.115  13.463  13.102  0.00  0.00    -0.336 N 
ATOM     60  HN  UNK N   1      37.897  13.970  12.688  1.00  0.00     0.168 HD
BRANCH  54  61
HETATM   61  N   UNK N   1      33.821  11.437  14.675  0.00  0.00    -0.383 N 
HETATM   62  H   UNK N   1      33.343  10.785  14.113  0.00  0.00     0.157 HD
HETATM   63  H   UNK N   1      33.498  11.630  15.585  0.00  0.00     0.157 HD
ENDBRANCH  54  61
ENDBRANCH  46  49
BRANCH  47  64
HETATM   64  O   UNK N   1      39.211  11.498   8.511  0.00  0.00    -0.388 OA
HETATM   65  H   UNK N   1      39.838  12.120   8.110  0.00  0.00     0.210 HD
ENDBRANCH  47  64
BRANCH  48  66
HETATM   66  O   UNK N   1      37.192  12.828   7.370  0.00  0.00    -0.390 OA
HETATM   67  H   UNK N   1      36.450  13.237   6.899  0.00  0.00     0.210 HD
ENDBRANCH  48  66
ENDBRANCH  43  44
ENDBRANCH  42  43
ENDBRANCH  38  42
ENDBRANCH  37  38
ENDBRANCH   1  37
TORSDOF 20
ENDMDL
MODEL 3
REMARK VINA RESULT:      -7.3      5.253     11.648
REMARK  20 active torsions:
REMARK  status: ('A' for Active; 'I' for Inactive)
REMARK    1  A    between atoms: C_5  and  N_4 
REMARK    2  A    between atoms: C_7  and  C_8 
REMARK    3  A    between atoms: C_8  and  O_9 
REMARK    4  A    between atoms: P_10  and  O_9 
REMARK    5  A    between atoms: P_10  and  O_11 
REMARK    6  A    between atoms: P_10  and  O_13 
REMARK    7  A    between atoms: P_14  and  O_13 
REMARK    8  A    between atoms: P_14  and  O_15 
REMARK    9  A    between atoms: P_14  and  O_17 
REMARK   10  A    between atoms: P_18  and  O_17 
REMARK   11  A    between atoms: P_18  and  O_19 
REMARK   12  A    between atoms: P_18  and  O_21 
REMARK   13  A    between atoms: O_21  and  C_22 
REMARK   14  A    between atoms: C_23  and  C_22 
REMARK   15  A    between atoms: C_25  and  N_30 
REMARK   16  A    between atoms: C_26  and  O_27 
REMARK   17  A    between atoms: C_28  and  O_29 
REMARK   18  A    between atoms: C_35  and  N_36 
REMARK   19  A    between atoms: C_43  and  O_44 
REMARK   20  A    between atoms: C_45  and  O_46 
REMARK       I    between atoms: C_53  and  N_54 
ROOT
HETATM    1  P   UNK N   1      32.849  13.802   6.240  0.00  0.00     0.410 P 
HETATM    2  O   UNK N   1      32.674  12.566   5.321  0.00  0.00    -0.631 OA
ENDROOT
BRANCH   1   3
HETATM    3  O   UNK N   1      33.533  15.114   5.275  0.00  0.00    -0.195 OA
BRANCH   3   4
HETATM    4  P   UNK N   1      32.976  14.973   3.602  0.00  0.00     0.401 P 
HETATM    5  O   UNK N   1      33.368  16.447   3.380  0.00  0.00    -0.631 OA
BRANCH   4   6
HETATM    6  O   UNK N   1      31.384  15.323   2.887  0.00  0.00    -0.294 OA
BRANCH   6   7
HETATM    7  C   UNK N   1      30.611  14.140   2.658  0.00  0.00     0.215 C 
BRANCH   7   8
HETATM    8  C   UNK N   1      29.141  14.301   3.061  0.00  0.00     0.180 C 
HETATM    9  O   UNK N   1      28.895  15.634   3.364  0.00  0.00    -0.353 OA
HETATM   10  C   UNK N   1      28.555  15.679   4.718  0.00  0.00     0.262 C 
HETATM   11  C   UNK N   1      27.797  14.392   5.035  0.00  0.00     0.198 C 
HETATM   12  C   UNK N   1      28.580  13.410   4.189  0.00  0.00     0.182 C 
BRANCH  10  13
HETATM   13  N   UNK N   1      27.852  16.938   4.885  0.00  0.00    -0.296 N 
HETATM   14  C   UNK N   1      27.464  17.844   3.949  0.00  0.00     0.190 A 
HETATM   15  N   UNK N   1      27.173  19.031   4.535  0.00  0.00    -0.340 N 
HETATM   16  C   UNK N   1      26.800  20.252   3.846  0.00  0.00     0.157 C 
HETATM   17  C   UNK N   1      27.410  18.859   5.853  0.00  0.00     0.149 A 
HETATM   18  C   UNK N   1      27.794  17.587   6.054  0.00  0.00     0.159 A 
HETATM   19  C   UNK N   1      27.381  19.749   6.915  0.00  0.00     0.290 A 
HETATM   20  N   UNK N   1      28.159  17.114   7.275  0.00  0.00    -0.174 N 
HETATM   21  C   UNK N   1      28.104  17.965   8.341  0.00  0.00     0.680 A 
HETATM   22  H   UNK N   1      28.455  16.182   7.388  0.00  0.00     0.186 HD
HETATM   23  N   UNK N   1      27.728  19.274   8.165  0.00  0.00    -0.154 N 
HETATM   24  N   UNK N   1      28.452  17.501   9.625  0.00  0.00    -0.234 N 
ATOM     25  HN  UNK N   1      27.706  19.904   8.968  1.00  0.00     0.187 HD
HETATM   26  H   UNK N   1      28.747  16.571   9.753  0.00  0.00     0.174 HD
HETATM   27  H   UNK N   1      28.402  18.110  10.397  0.00  0.00     0.174 HD
HETATM   28  O   UNK N   1      27.092  20.920   6.758  0.00  0.00    -0.265 OA
ENDBRANCH  10  13
BRANCH  11  29
HETATM   29  O   UNK N   1      26.491  14.440   4.546  0.00  0.00    -0.388 OA
HETATM   30  H   UNK N   1      25.995  13.653   4.273  0.00  0.00     0.210 HD
ENDBRANCH  11  29
BRANCH  12  31
HETATM   31  O   UNK N   1      29.586  12.817   4.952  0.00  0.00    -0.390 OA
HETATM   32  H   UNK N   1      29.881  11.894   4.899  0.00  0.00     0.210 HD
ENDBRANCH  12  31
ENDBRANCH   7   8
ENDBRANCH   6   7
ENDBRANCH   4   6
BRANCH   4  33
HETATM   33  O   UNK N   1      31.711  15.199   4.769  0.00  0.00    -0.307 OA
HETATM   34  H   UNK N   1      30.751  15.069   4.743  0.00  0.00     0.222 HD
ENDBRANCH   4  33
ENDBRANCH   3   4
ENDBRANCH   1   3
BRANCH   1  35
HETATM   35  O   UNK N   1      31.281  14.149   6.903  0.00  0.00    -0.307 OA
HETATM   36  H   UNK N   1      30.409  13.815   6.640  0.00  0.00     0.222 HD
ENDBRANCH   1  35
BRANCH   1  37
HETATM   37  O   UNK N   1      33.942  13.291   7.485  0.00  0.00    -0.195 OA
BRANCH  37  38
HETATM   38  P   UNK N   1      35.530  13.811   7.039  0.00  0.00     0.401 P 
HETATM   39  O   UNK N   1      35.900  13.097   5.708  0.00  0.00    -0.631 OA
BRANCH  38  40
HETATM   40  O   UNK N   1      35.709  15.529   6.785  0.00  0.00    -0.307 OA
HETATM   41  H   UNK N   1      35.090  16.148   7.203  0.00  0.00     0.222 HD
ENDBRANCH  38  40
BRANCH  38  42
HETATM   42  O   UNK N   1      36.559  13.158   8.280  0.00  0.00    -0.294 OA
BRANCH  42  43
HETATM   43  C   UNK N   1      37.498  14.123   8.611  0.00  0.00     0.215 C 
BRANCH  43  44
HETATM   44  C   UNK N   1      37.494  14.289  10.108  0.00  0.00     0.180 C 
HETATM   45  O   UNK N   1      37.033  15.584  10.419  0.00  0.00    -0.353 OA
HETATM   46  C   UNK N   1      35.915  15.419  11.245  0.00  0.00     0.262 C 
HETATM   47  C   UNK N   1      35.999  14.043  11.877  0.00  0.00     0.198 C 
HETATM   48  C   UNK N   1      36.575  13.279  10.727  0.00  0.00     0.182 C 
BRANCH  46  49
HETATM   49  N   UNK N   1      34.670  15.689  10.513  0.00  0.00    -0.297 N 
HETATM   50  C   UNK N   1      33.590  14.863  10.482  0.00  0.00     0.188 A 
HETATM   51  N   UNK N   1      32.661  15.292   9.582  0.00  0.00    -0.346 N 
HETATM   52  C   UNK N   1      33.197  16.408   9.055  0.00  0.00     0.122 A 
ATOM     53  HN  UNK N   1      31.762  14.864   9.357  1.00  0.00     0.167 HD
HETATM   54  C   UNK N   1      32.742  17.214   8.024  0.00  0.00     0.131 A 
HETATM   55  C   UNK N   1      34.385  16.663   9.637  0.00  0.00     0.142 A 
HETATM   56  N   UNK N   1      33.512  18.284   7.659  0.00  0.00    -0.337 N 
HETATM   57  C   UNK N   1      34.701  18.548   8.294  0.00  0.00     0.183 A 
ATOM     58  HN  UNK N   1      33.200  18.894   6.904  1.00  0.00     0.168 HD
HETATM   59  N   UNK N   1      35.157  17.718   9.281  0.00  0.00    -0.336 N 
ATOM     60  HN  UNK N   1      36.054  17.889   9.736  1.00  0.00     0.168 HD
BRANCH  54  61
HETATM   61  N   UNK N   1      31.558  16.912   7.324  0.00  0.00    -0.383 N 
HETATM   62  H   UNK N   1      31.173  16.007   7.369  0.00  0.00     0.157 HD
HETATM   63  H   UNK N   1      31.114  17.608   6.788  0.00  0.00     0.157 HD
ENDBRANCH  54  61
ENDBRANCH  46  49
BRANCH  47  64
HETATM   64  O   UNK N   1      36.916  14.105  12.930  0.00  0.00    -0.388 OA
HETATM   65  H   UNK N   1      36.981  14.462  13.829  0.00  0.00     0.210 HD
ENDBRANCH  47  64
BRANCH  48  66
HETATM   66  O   UNK N   1      37.288  12.151  11.143  0.00  0.00    -0.390 OA
HETATM   67  H   UNK N   1      38.112  12.244  11.645  0.00  0.00     0.210 HD
ENDBRANCH  48  66
ENDBRANCH  43  44
ENDBRANCH  42  43
ENDBRANCH  38  42
ENDBRANCH  37  38
ENDBRANCH   1  37
TORSDOF 20
ENDMDL
MODEL 4
REMARK VINA RESULT:      -7.2      1.766      2.742
REMARK  20 active torsions:
REMARK  status: ('A' for Active; 'I' for Inactive)
REMARK    1  A    between atoms: C_5  and  N_4 
REMARK    2  A    between atoms: C_7  and  C_8 
REMARK    3  A    between atoms: C_8  and  O_9 
REMARK    4  A    between atoms: P_10  and  O_9 
REMARK    5  A    between atoms: P_10  and  O_11 
REMARK    6  A    between atoms: P_10  and  O_13 
REMARK    7  A    between atoms: P_14  and  O_13 
REMARK    8  A    between atoms: P_14  and  O_15 
REMARK    9  A    between atoms: P_14  and  O_17 
REMARK   10  A    between atoms: P_18  and  O_17 
REMARK   11  A    between atoms: P_18  and  O_19 
REMARK   12  A    between atoms: P_18  and  O_21 
REMARK   13  A    between atoms: O_21  and  C_22 
REMARK   14  A    between atoms: C_23  and  C_22 
REMARK   15  A    between atoms: C_25  and  N_30 
REMARK   16  A    between atoms: C_26  and  O_27 
REMARK   17  A    between atoms: C_28  and  O_29 
REMARK   18  A    between atoms: C_35  and  N_36 
REMARK   19  A    between atoms: C_43  and  O_44 
REMARK   20  A    between atoms: C_45  and  O_46 
REMARK       I    between atoms: C_53  and  N_54 
ROOT
HETATM    1  P   UNK N   1      22.969  13.656   2.585  0.00  0.00     0.410 P 
HETATM    2  O   UNK N   1      22.571  13.059   3.959  0.00  0.00    -0.631 OA
ENDROOT
BRANCH   1   3
HETATM    3  O   UNK N   1      24.732  13.707   2.495  0.00  0.00    -0.195 OA
BRANCH   3   4
HETATM    4  P   UNK N   1      25.261  15.362   2.162  0.00  0.00     0.401 P 
HETATM    5  O   UNK N   1      26.669  14.817   1.854  0.00  0.00    -0.631 OA
BRANCH   4   6
HETATM    6  O   UNK N   1      26.001  16.571   3.239  0.00  0.00    -0.294 OA
BRANCH   6   7
HETATM    7  C   UNK N   1      27.337  16.225   3.620  0.00  0.00     0.215 C 
BRANCH   7   8
HETATM    8  C   UNK N   1      27.928  17.183   4.660  0.00  0.00     0.180 C 
HETATM    9  O   UNK N   1      29.215  16.771   4.980  0.00  0.00    -0.353 OA
HETATM   10  C   UNK N   1      29.195  16.415   6.331  0.00  0.00     0.262 C 
HETATM   11  C   UNK N   1      28.206  17.347   7.028  0.00  0.00     0.198 C 
HETATM   12  C   UNK N   1      27.137  17.443   5.959  0.00  0.00     0.182 C 
BRANCH  10  13
HETATM   13  N   UNK N   1      30.583  16.464   6.750  0.00  0.00    -0.296 N 
HETATM   14  C   UNK N   1      31.190  17.293   7.641  0.00  0.00     0.190 A 
HETATM   15  N   UNK N   1      32.535  17.258   7.475  0.00  0.00    -0.340 N 
HETATM   16  C   UNK N   1      33.503  18.067   8.192  0.00  0.00     0.157 C 
HETATM   17  C   UNK N   1      32.758  16.410   6.448  0.00  0.00     0.149 A 
HETATM   18  C   UNK N   1      31.576  15.920   6.036  0.00  0.00     0.159 A 
HETATM   19  C   UNK N   1      33.921  16.065   5.779  0.00  0.00     0.290 A 
HETATM   20  N   UNK N   1      31.460  15.077   4.976  0.00  0.00    -0.174 N 
HETATM   21  C   UNK N   1      32.597  14.697   4.325  0.00  0.00     0.680 A 
HETATM   22  H   UNK N   1      30.578  14.750   4.685  0.00  0.00     0.186 HD
HETATM   23  N   UNK N   1      33.818  15.191   4.713  0.00  0.00    -0.154 N 
HETATM   24  N   UNK N   1      32.515  13.806   3.236  0.00  0.00    -0.234 N 
ATOM     25  HN  UNK N   1      34.659  14.910   4.208  1.00  0.00     0.187 HD
HETATM   26  H   UNK N   1      31.640  13.467   2.937  0.00  0.00     0.174 HD
HETATM   27  H   UNK N   1      33.335  13.520   2.772  0.00  0.00     0.174 HD
HETATM   28  O   UNK N   1      35.000  16.534   6.089  0.00  0.00    -0.265 OA
ENDBRANCH  10  13
BRANCH  11  29
HETATM   29  O   UNK N   1      28.752  18.618   7.210  0.00  0.00    -0.388 OA
HETATM   30  H   UNK N   1      29.705  18.786   7.267  0.00  0.00     0.210 HD
ENDBRANCH  11  29
BRANCH  12  31
HETATM   31  O   UNK N   1      26.148  16.487   6.185  0.00  0.00    -0.390 OA
HETATM   32  H   UNK N   1      26.286  15.575   6.489  0.00  0.00     0.210 HD
ENDBRANCH  12  31
ENDBRANCH   7   8
ENDBRANCH   6   7
ENDBRANCH   4   6
BRANCH   4  33
HETATM   33  O   UNK N   1      25.172  14.956   3.847  0.00  0.00    -0.307 OA
HETATM   34  H   UNK N   1      24.474  14.579   4.405  0.00  0.00     0.222 HD
ENDBRANCH   4  33
ENDBRANCH   3   4
ENDBRANCH   1   3
BRANCH   1  35
HETATM   35  O   UNK N   1      22.224  12.654   1.377  0.00  0.00    -0.307 OA
HETATM   36  H   UNK N   1      22.114  11.690   1.353  0.00  0.00     0.222 HD
ENDBRANCH   1  35
BRANCH   1  37
HETATM   37  O   UNK N   1      22.284  15.249   2.568  0.00  0.00    -0.195 OA
BRANCH  37  38
HETATM   38  P   UNK N   1      20.639  15.111   2.051  0.00  0.00     0.401 P 
HETATM   39  O   UNK N   1      20.645  14.998   0.500  0.00  0.00    -0.631 OA
BRANCH  38  40
HETATM   40  O   UNK N   1      19.772  13.732   2.679  0.00  0.00    -0.307 OA
HETATM   41  H   UNK N   1      19.936  13.429   3.586  0.00  0.00     0.222 HD
ENDBRANCH  38  40
BRANCH  38  42
HETATM   42  O   UNK N   1      19.933  16.649   2.456  0.00  0.00    -0.294 OA
BRANCH  42  43
HETATM   43  C   UNK N   1      20.236  17.541   1.438  0.00  0.00     0.215 C 
BRANCH  43  44
HETATM   44  C   UNK N   1      20.168  18.936   2.002  0.00  0.00     0.180 C 
HETATM   45  O   UNK N   1      19.855  18.857   3.373  0.00  0.00    -0.353 OA
HETATM   46  C   UNK N   1      20.894  19.504   4.054  0.00  0.00     0.262 C 
HETATM   47  C   UNK N   1      21.579  20.443   3.081  0.00  0.00     0.198 C 
HETATM   48  C   UNK N   1      21.496  19.613   1.838  0.00  0.00     0.182 C 
BRANCH  46  49
HETATM   49  N   UNK N   1      21.784  18.533   4.708  0.00  0.00    -0.297 N 
HETATM   50  C   UNK N   1      23.142  18.581   4.679  0.00  0.00     0.188 A 
HETATM   51  N   UNK N   1      23.691  17.455   5.219  0.00  0.00    -0.346 N 
HETATM   52  C   UNK N   1      22.631  16.710   5.583  0.00  0.00     0.122 A 
ATOM     53  HN  UNK N   1      24.680  17.229   5.323  1.00  0.00     0.167 HD
HETATM   54  C   UNK N   1      22.582  15.424   6.098  0.00  0.00     0.131 A 
HETATM   55  C   UNK N   1      21.491  17.370   5.307  0.00  0.00     0.142 A 
HETATM   56  N   UNK N   1      21.353  14.882   6.350  0.00  0.00    -0.337 N 
HETATM   57  C   UNK N   1      20.203  15.591   6.098  0.00  0.00     0.183 A 
ATOM     58  HN  UNK N   1      21.288  13.938   6.730  1.00  0.00     0.168 HD
HETATM   59  N   UNK N   1      20.267  16.841   5.550  0.00  0.00    -0.336 N 
ATOM     60  HN  UNK N   1      19.418  17.362   5.331  1.00  0.00     0.168 HD
BRANCH  54  61
HETATM   61  N   UNK N   1      23.753  14.667   6.296  0.00  0.00    -0.383 N 
HETATM   62  H   UNK N   1      24.044  14.017   5.616  0.00  0.00     0.157 HD
HETATM   63  H   UNK N   1      24.283  14.789   7.117  0.00  0.00     0.157 HD
ENDBRANCH  54  61
ENDBRANCH  46  49
BRANCH  47  64
HETATM   64  O   UNK N   1      20.789  21.589   2.956  0.00  0.00    -0.388 OA
HETATM   65  H   UNK N   1      19.883  21.882   3.138  0.00  0.00     0.210 HD
ENDBRANCH  47  64
BRANCH  48  66
HETATM   66  O   UNK N   1      21.516  20.392   0.678  0.00  0.00    -0.390 OA
HETATM   67  H   UNK N   1      21.835  21.308   0.702  0.00  0.00     0.210 HD
ENDBRANCH  48  66
ENDBRANCH  43  44
ENDBRANCH  42  43
ENDBRANCH  38  42
ENDBRANCH  37  38
ENDBRANCH   1  37
TORSDOF 20
ENDMDL
MODEL 5
REMARK VINA RESULT:      -7.2      1.879      3.022
REMARK  20 active torsions:
REMARK  status: ('A' for Active; 'I' for Inactive)
REMARK    1  A    between atoms: C_5  and  N_4 
REMARK    2  A    between atoms: C_7  and  C_8 
REMARK    3  A    between atoms: C_8  and  O_9 
REMARK    4  A    between atoms: P_10  and  O_9 
REMARK    5  A    between atoms: P_10  and  O_11 
REMARK    6  A    between atoms: P_10  and  O_13 
REMARK    7  A    between atoms: P_14  and  O_13 
REMARK    8  A    between atoms: P_14  and  O_15 
REMARK    9  A    between atoms: P_14  and  O_17 
REMARK   10  A    between atoms: P_18  and  O_17 
REMARK   11  A    between atoms: P_18  and  O_19 
REMARK   12  A    between atoms: P_18  and  O_21 
REMARK   13  A    between atoms: O_21  and  C_22 
REMARK   14  A    between atoms: C_23  and  C_22 
REMARK   15  A    between atoms: C_25  and  N_30 
REMARK   16  A    between atoms: C_26  and  O_27 
REMARK   17  A    between atoms: C_28  and  O_29 
REMARK   18  A    between atoms: C_35  and  N_36 
REMARK   19  A    between atoms: C_43  and  O_44 
REMARK   20  A    between atoms: C_45  and  O_46 
REMARK       I    between atoms: C_53  and  N_54 
ROOT
HETATM    1  P   UNK N   1      22.479  14.177   2.454  0.00  0.00     0.410 P 
HETATM    2  O   UNK N   1      22.527  12.628   2.396  0.00  0.00    -0.631 OA
ENDROOT
BRANCH   1   3
HETATM    3  O   UNK N   1      24.115  14.768   2.757  0.00  0.00    -0.195 OA
BRANCH   3   4
HETATM    4  P   UNK N   1      25.280  13.469   2.460  0.00  0.00     0.401 P 
HETATM    5  O   UNK N   1      25.443  13.311   3.985  0.00  0.00    -0.631 OA
BRANCH   4   6
HETATM    6  O   UNK N   1      27.053  13.527   2.311  0.00  0.00    -0.294 OA
BRANCH   6   7
HETATM    7  C   UNK N   1      27.720  13.194   3.533  0.00  0.00     0.215 C 
BRANCH   7   8
HETATM    8  C   UNK N   1      28.872  14.149   3.863  0.00  0.00     0.180 C 
HETATM    9  O   UNK N   1      28.416  15.132   4.731  0.00  0.00    -0.353 OA
HETATM   10  C   UNK N   1      28.519  16.346   4.047  0.00  0.00     0.262 C 
HETATM   11  C   UNK N   1      29.749  16.254   3.148  0.00  0.00     0.198 C 
HETATM   12  C   UNK N   1      29.640  14.811   2.700  0.00  0.00     0.182 C 
BRANCH  10  13
HETATM   13  N   UNK N   1      28.513  17.360   5.086  0.00  0.00    -0.296 N 
HETATM   14  C   UNK N   1      28.758  17.238   6.417  0.00  0.00     0.190 A 
HETATM   15  N   UNK N   1      28.299  18.326   7.082  0.00  0.00    -0.340 N 
HETATM   16  C   UNK N   1      28.314  18.514   8.521  0.00  0.00     0.157 C 
HETATM   17  C   UNK N   1      27.739  19.121   6.146  0.00  0.00     0.149 A 
HETATM   18  C   UNK N   1      27.897  18.539   4.944  0.00  0.00     0.159 A 
HETATM   19  C   UNK N   1      27.030  20.307   6.253  0.00  0.00     0.290 A 
HETATM   20  N   UNK N   1      27.391  19.070   3.800  0.00  0.00    -0.174 N 
HETATM   21  C   UNK N   1      26.719  20.256   3.878  0.00  0.00     0.680 A 
HETATM   22  H   UNK N   1      27.505  18.611   2.936  0.00  0.00     0.186 HD
HETATM   23  N   UNK N   1      26.529  20.867   5.093  0.00  0.00    -0.154 N 
HETATM   24  N   UNK N   1      26.201  20.845   2.708  0.00  0.00    -0.234 N 
ATOM     25  HN  UNK N   1      26.013  21.746   5.140  1.00  0.00     0.187 HD
HETATM   26  H   UNK N   1      26.312  20.399   1.837  0.00  0.00     0.174 HD
HETATM   27  H   UNK N   1      25.727  21.706   2.760  0.00  0.00     0.174 HD
HETATM   28  O   UNK N   1      26.820  20.830   7.331  0.00  0.00    -0.265 OA
ENDBRANCH  10  13
BRANCH  11  29
HETATM   29  O   UNK N   1      30.926  16.391   3.885  0.00  0.00    -0.388 OA
HETATM   30  H   UNK N   1      31.354  17.244   4.053  0.00  0.00     0.210 HD
ENDBRANCH  11  29
BRANCH  12  31
HETATM   31  O   UNK N   1      28.949  14.738   1.491  0.00  0.00    -0.390 OA
HETATM   32  H   UNK N   1      29.261  15.054   0.628  0.00  0.00     0.210 HD
ENDBRANCH  12  31
ENDBRANCH   7   8
ENDBRANCH   6   7
ENDBRANCH   4   6
BRANCH   4  33
HETATM   33  O   UNK N   1      25.922  15.072   2.282  0.00  0.00    -0.307 OA
HETATM   34  H   UNK N   1      26.789  15.416   2.015  0.00  0.00     0.222 HD
ENDBRANCH   4  33
ENDBRANCH   3   4
ENDBRANCH   1   3
BRANCH   1  35
HETATM   35  O   UNK N   1      21.799  14.705   0.945  0.00  0.00    -0.307 OA
HETATM   36  H   UNK N   1      21.701  14.225   0.107  0.00  0.00     0.222 HD
ENDBRANCH   1  35
BRANCH   1  37
HETATM   37  O   UNK N   1      21.414  14.549   3.771  0.00  0.00    -0.195 OA
BRANCH  37  38
HETATM   38  P   UNK N   1      20.110  15.496   3.143  0.00  0.00     0.401 P 
HETATM   39  O   UNK N   1      19.374  14.632   2.080  0.00  0.00    -0.631 OA
BRANCH  38  40
HETATM   40  O   UNK N   1      18.926  16.009   4.319  0.00  0.00    -0.307 OA
HETATM   41  H   UNK N   1      19.146  15.998   5.264  0.00  0.00     0.222 HD
ENDBRANCH  38  40
BRANCH  38  42
HETATM   42  O   UNK N   1      20.895  16.799   2.299  0.00  0.00    -0.294 OA
BRANCH  42  43
HETATM   43  C   UNK N   1      19.927  17.496   1.592  0.00  0.00     0.215 C 
BRANCH  43  44
HETATM   44  C   UNK N   1      19.960  18.933   2.043  0.00  0.00     0.180 C 
HETATM   45  O   UNK N   1      20.005  18.966   3.451  0.00  0.00    -0.353 OA
HETATM   46  C   UNK N   1      21.161  19.677   3.793  0.00  0.00     0.262 C 
HETATM   47  C   UNK N   1      21.550  20.538   2.607  0.00  0.00     0.198 C 
HETATM   48  C   UNK N   1      21.183  19.607   1.495  0.00  0.00     0.182 C 
BRANCH  46  49
HETATM   49  N   UNK N   1      22.217  18.774   4.274  0.00  0.00    -0.297 N 
HETATM   50  C   UNK N   1      23.443  18.636   3.703  0.00  0.00     0.188 A 
HETATM   51  N   UNK N   1      24.137  17.602   4.258  0.00  0.00    -0.346 N 
HETATM   52  C   UNK N   1      23.303  17.104   5.190  0.00  0.00     0.122 A 
ATOM     53  HN  UNK N   1      25.075  17.278   4.021  1.00  0.00     0.167 HD
HETATM   54  C   UNK N   1      23.438  15.987   6.000  0.00  0.00     0.131 A 
HETATM   55  C   UNK N   1      22.167  17.827   5.221  0.00  0.00     0.142 A 
HETATM   56  N   UNK N   1      22.409  15.682   6.847  0.00  0.00    -0.337 N 
HETATM   57  C   UNK N   1      21.276  16.459   6.891  0.00  0.00     0.183 A 
ATOM     58  HN  UNK N   1      22.483  14.867   7.454  1.00  0.00     0.168 HD
HETATM   59  N   UNK N   1      21.141  17.532   6.055  0.00  0.00    -0.336 N 
ATOM     60  HN  UNK N   1      20.290  18.095   6.059  1.00  0.00     0.168 HD
BRANCH  54  61
HETATM   61  N   UNK N   1      24.567  15.149   5.913  0.00  0.00    -0.383 N 
HETATM   62  H   UNK N   1      24.469  14.175   6.010  0.00  0.00     0.157 HD
HETATM   63  H   UNK N   1      25.456  15.540   5.754  0.00  0.00     0.157 HD
ENDBRANCH  54  61
ENDBRANCH  46  49
BRANCH  47  64
HETATM   64  O   UNK N   1      20.719  21.662   2.597  0.00  0.00    -0.388 OA
HETATM   65  H   UNK N   1      20.608  22.500   3.072  0.00  0.00     0.210 HD
ENDBRANCH  47  64
BRANCH  48  66
HETATM   66  O   UNK N   1      20.885  20.287   0.310  0.00  0.00    -0.390 OA
HETATM   67  H   UNK N   1      21.420  20.149  -0.487  0.00  0.00     0.210 HD
ENDBRANCH  48  66
ENDBRANCH  43  44
ENDBRANCH  42  43
ENDBRANCH  38  42
ENDBRANCH  37  38
ENDBRANCH   1  37
TORSDOF 20
ENDMDL
MODEL 6
REMARK VINA RESULT:      -7.1      2.299      3.551
REMARK  20 active torsions:
REMARK  status: ('A' for Active; 'I' for Inactive)
REMARK    1  A    between atoms: C_5  and  N_4 
REMARK    2  A    between atoms: C_7  and  C_8 
REMARK    3  A    between atoms: C_8  and  O_9 
REMARK    4  A    between atoms: P_10  and  O_9 
REMARK    5  A    between atoms: P_10  and  O_11 
REMARK    6  A    between atoms: P_10  and  O_13 
REMARK    7  A    between atoms: P_14  and  O_13 
REMARK    8  A    between atoms: P_14  and  O_15 
REMARK    9  A    between atoms: P_14  and  O_17 
REMARK   10  A    between atoms: P_18  and  O_17 
REMARK   11  A    between atoms: P_18  and  O_19 
REMARK   12  A    between atoms: P_18  and  O_21 
REMARK   13  A    between atoms: O_21  and  C_22 
REMARK   14  A    between atoms: C_23  and  C_22 
REMARK   15  A    between atoms: C_25  and  N_30 
REMARK   16  A    between atoms: C_26  and  O_27 
REMARK   17  A    between atoms: C_28  and  O_29 
REMARK   18  A    between atoms: C_35  and  N_36 
REMARK   19  A    between atoms: C_43  and  O_44 
REMARK   20  A    between atoms: C_45  and  O_46 
REMARK       I    between atoms: C_53  and  N_54 
ROOT
HETATM    1  P   UNK N   1      23.161  11.790   3.405  0.00  0.00     0.410 P 
HETATM    2  O   UNK N   1      22.095  10.695   3.664  0.00  0.00    -0.631 OA
ENDROOT
BRANCH   1   3
HETATM    3  O   UNK N   1      24.015  12.098   4.920  0.00  0.00    -0.195 OA
BRANCH   3   4
HETATM    4  P   UNK N   1      25.759  12.110   4.625  0.00  0.00     0.401 P 
HETATM    5  O   UNK N   1      25.954  12.793   5.994  0.00  0.00    -0.631 OA
BRANCH   4   6
HETATM    6  O   UNK N   1      26.792  13.360   3.892  0.00  0.00    -0.294 OA
BRANCH   6   7
HETATM    7  C   UNK N   1      28.186  13.038   3.968  0.00  0.00     0.215 C 
BRANCH   7   8
HETATM    8  C   UNK N   1      29.089  14.273   3.882  0.00  0.00     0.180 C 
HETATM    9  O   UNK N   1      28.665  15.213   4.813  0.00  0.00    -0.353 OA
HETATM   10  C   UNK N   1      28.238  16.327   4.085  0.00  0.00     0.262 C 
HETATM   11  C   UNK N   1      29.129  16.427   2.850  0.00  0.00     0.198 C 
HETATM   12  C   UNK N   1      29.278  14.958   2.513  0.00  0.00     0.182 C 
BRANCH  10  13
HETATM   13  N   UNK N   1      28.270  17.426   5.034  0.00  0.00    -0.296 N 
HETATM   14  C   UNK N   1      28.707  17.446   6.321  0.00  0.00     0.190 A 
HETATM   15  N   UNK N   1      28.232  18.542   6.961  0.00  0.00    -0.340 N 
HETATM   16  C   UNK N   1      28.426  18.859   8.364  0.00  0.00     0.157 C 
HETATM   17  C   UNK N   1      27.469  19.195   6.060  0.00  0.00     0.149 A 
HETATM   18  C   UNK N   1      27.519  18.525   4.895  0.00  0.00     0.159 A 
HETATM   19  C   UNK N   1      26.661  20.315   6.179  0.00  0.00     0.290 A 
HETATM   20  N   UNK N   1      26.808  18.901   3.800  0.00  0.00    -0.174 N 
HETATM   21  C   UNK N   1      26.033  20.022   3.886  0.00  0.00     0.680 A 
HETATM   22  H   UNK N   1      26.849  18.379   2.966  0.00  0.00     0.186 HD
HETATM   23  N   UNK N   1      25.950  20.720   5.066  0.00  0.00    -0.154 N 
HETATM   24  N   UNK N   1      25.300  20.454   2.762  0.00  0.00    -0.234 N 
ATOM     25  HN  UNK N   1      25.355  21.547   5.121  1.00  0.00     0.187 HD
HETATM   26  H   UNK N   1      25.336  19.943   1.921  0.00  0.00     0.174 HD
HETATM   27  H   UNK N   1      24.750  21.268   2.818  0.00  0.00     0.174 HD
HETATM   28  O   UNK N   1      26.549  20.911   7.233  0.00  0.00    -0.265 OA
ENDBRANCH  10  13
BRANCH  11  29
HETATM   29  O   UNK N   1      30.390  16.928   3.174  0.00  0.00    -0.388 OA
HETATM   30  H   UNK N   1      30.997  16.487   3.789  0.00  0.00     0.210 HD
ENDBRANCH  11  29
BRANCH  12  31
HETATM   31  O   UNK N   1      28.308  14.579   1.586  0.00  0.00    -0.390 OA
HETATM   32  H   UNK N   1      28.463  14.122   0.744  0.00  0.00     0.210 HD
ENDBRANCH  12  31
ENDBRANCH   7   8
ENDBRANCH   6   7
ENDBRANCH   4   6
BRANCH   4  33
HETATM   33  O   UNK N   1      24.879  13.367   3.815  0.00  0.00    -0.307 OA
HETATM   34  H   UNK N   1      24.007  13.767   3.957  0.00  0.00     0.222 HD
ENDBRANCH   4  33
ENDBRANCH   3   4
ENDBRANCH   1   3
BRANCH   1  35
HETATM   35  O   UNK N   1      24.174  11.199   2.124  0.00  0.00    -0.307 OA
HETATM   36  H   UNK N   1      23.945  10.964   1.210  0.00  0.00     0.222 HD
ENDBRANCH   1  35
BRANCH   1  37
HETATM   37  O   UNK N   1      22.265  13.182   2.886  0.00  0.00    -0.195 OA
BRANCH  37  38
HETATM   38  P   UNK N   1      21.841  12.947   1.226  0.00  0.00     0.401 P 
HETATM   39  O   UNK N   1      23.090  13.300   0.370  0.00  0.00    -0.631 OA
BRANCH  38  40
HETATM   40  O   UNK N   1      21.351  11.326   0.802  0.00  0.00    -0.307 OA
HETATM   41  H   UNK N   1      21.922  10.573   1.026  0.00  0.00     0.222 HD
ENDBRANCH  38  40
BRANCH  38  42
HETATM   42  O   UNK N   1      20.639  14.165   0.915  0.00  0.00    -0.294 OA
BRANCH  42  43
HETATM   43  C   UNK N   1      21.214  15.405   1.149  0.00  0.00     0.215 C 
BRANCH  43  44
HETATM   44  C   UNK N   1      20.132  16.345   1.612  0.00  0.00     0.180 C 
HETATM   45  O   UNK N   1      19.861  16.089   2.971  0.00  0.00    -0.353 OA
HETATM   46  C   UNK N   1      20.076  17.295   3.651  0.00  0.00     0.262 C 
HETATM   47  C   UNK N   1      19.965  18.425   2.646  0.00  0.00     0.198 C 
HETATM   48  C   UNK N   1      20.594  17.763   1.460  0.00  0.00     0.182 C 
BRANCH  46  49
HETATM   49  N   UNK N   1      21.336  17.261   4.407  0.00  0.00    -0.297 N 
HETATM   50  C   UNK N   1      22.309  18.207   4.341  0.00  0.00     0.188 A 
HETATM   51  N   UNK N   1      23.430  17.817   5.013  0.00  0.00    -0.346 N 
HETATM   52  C   UNK N   1      23.121  16.599   5.496  0.00  0.00     0.122 A 
ATOM     53  HN  UNK N   1      24.304  18.330   5.124  1.00  0.00     0.167 HD
HETATM   54  C   UNK N   1      23.909  15.685   6.177  0.00  0.00     0.131 A 
HETATM   55  C   UNK N   1      21.856  16.281   5.160  0.00  0.00     0.142 A 
HETATM   56  N   UNK N   1      23.347  14.489   6.527  0.00  0.00    -0.337 N 
HETATM   57  C   UNK N   1      22.041  14.203   6.209  0.00  0.00     0.183 A 
ATOM     58  HN  UNK N   1      23.904  13.799   7.029  1.00  0.00     0.168 HD
HETATM   59  N   UNK N   1      21.290  15.098   5.499  0.00  0.00    -0.336 N 
ATOM     60  HN  UNK N   1      20.330  14.881   5.232  1.00  0.00     0.168 HD
BRANCH  54  61
HETATM   61  N   UNK N   1      25.267  15.945   6.447  0.00  0.00    -0.383 N 
HETATM   62  H   UNK N   1      25.551  16.210   7.351  0.00  0.00     0.157 HD
HETATM   63  H   UNK N   1      25.935  15.860   5.728  0.00  0.00     0.157 HD
ENDBRANCH  54  61
ENDBRANCH  46  49
BRANCH  47  64
HETATM   64  O   UNK N   1      18.609  18.663   2.409  0.00  0.00    -0.388 OA
HETATM   65  H   UNK N   1      17.840  19.052   2.855  0.00  0.00     0.210 HD
ENDBRANCH  47  64
BRANCH  48  66
HETATM   66  O   UNK N   1      20.146  18.303   0.251  0.00  0.00    -0.390 OA
HETATM   67  H   UNK N   1      19.439  18.967   0.238  0.00  0.00     0.210 HD
ENDBRANCH  48  66
ENDBRANCH  43  44
ENDBRANCH  42  43
ENDBRANCH  38  42
ENDBRANCH  37  38
ENDBRANCH   1  37
TORSDOF 20
ENDMDL
MODEL 7
REMARK VINA RESULT:      -7.1      3.163      5.747
REMARK  20 active torsions:
REMARK  status: ('A' for Active; 'I' for Inactive)
REMARK    1  A    between atoms: C_5  and  N_4 
REMARK    2  A    between atoms: C_7  and  C_8 
REMARK    3  A    between atoms: C_8  and  O_9 
REMARK    4  A    between atoms: P_10  and  O_9 
REMARK    5  A    between atoms: P_10  and  O_11 
REMARK    6  A    between atoms: P_10  and  O_13 
REMARK    7  A    between atoms: P_14  and  O_13 
REMARK    8  A    between atoms: P_14  and  O_15 
REMARK    9  A    between atoms: P_14  and  O_17 
REMARK   10  A    between atoms: P_18  and  O_17 
REMARK   11  A    between atoms: P_18  and  O_19 
REMARK   12  A    between atoms: P_18  and  O_21 
REMARK   13  A    between atoms: O_21  and  C_22 
REMARK   14  A    between atoms: C_23  and  C_22 
REMARK   15  A    between atoms: C_25  and  N_30 
REMARK   16  A    between atoms: C_26  and  O_27 
REMARK   17  A    between atoms: C_28  and  O_29 
REMARK   18  A    between atoms: C_35  and  N_36 
REMARK   19  A    between atoms: C_43  and  O_44 
REMARK   20  A    between atoms: C_45  and  O_46 
REMARK       I    between atoms: C_53  and  N_54 
ROOT
HETATM    1  P   UNK N   1      21.145  17.139   6.377  0.00  0.00     0.410 P 
HETATM    2  O   UNK N   1      20.956  18.401   7.257  0.00  0.00    -0.631 OA
ENDROOT
BRANCH   1   3
HETATM    3  O   UNK N   1      20.894  17.600   4.691  0.00  0.00    -0.195 OA
BRANCH   3   4
HETATM    4  P   UNK N   1      22.105  18.800   4.217  0.00  0.00     0.401 P 
HETATM    5  O   UNK N   1      21.376  18.958   2.868  0.00  0.00    -0.631 OA
BRANCH   4   6
HETATM    6  O   UNK N   1      23.635  18.600   3.329  0.00  0.00    -0.294 OA
BRANCH   6   7
HETATM    7  C   UNK N   1      24.624  17.896   4.088  0.00  0.00     0.215 C 
BRANCH   7   8
HETATM    8  C   UNK N   1      26.038  18.451   3.885  0.00  0.00     0.180 C 
HETATM    9  O   UNK N   1      26.961  17.544   4.389  0.00  0.00    -0.353 OA
HETATM   10  C   UNK N   1      27.607  18.183   5.451  0.00  0.00     0.262 C 
HETATM   11  C   UNK N   1      27.705  19.664   5.094  0.00  0.00     0.198 C 
HETATM   12  C   UNK N   1      26.363  19.862   4.420  0.00  0.00     0.182 C 
BRANCH  10  13
HETATM   13  N   UNK N   1      28.845  17.447   5.632  0.00  0.00    -0.296 N 
HETATM   14  C   UNK N   1      29.362  16.429   4.894  0.00  0.00     0.190 A 
HETATM   15  N   UNK N   1      30.329  15.786   5.594  0.00  0.00    -0.340 N 
HETATM   16  C   UNK N   1      31.050  14.603   5.159  0.00  0.00     0.157 C 
HETATM   17  C   UNK N   1      30.390  16.403   6.792  0.00  0.00     0.149 A 
HETATM   18  C   UNK N   1      29.508  17.418   6.793  0.00  0.00     0.159 A 
HETATM   19  C   UNK N   1      31.118  16.117   7.936  0.00  0.00     0.290 A 
HETATM   20  N   UNK N   1      29.292  18.201   7.883  0.00  0.00    -0.174 N 
HETATM   21  C   UNK N   1      30.024  17.959   9.010  0.00  0.00     0.680 A 
HETATM   22  H   UNK N   1      28.625  18.925   7.860  0.00  0.00     0.186 HD
HETATM   23  N   UNK N   1      30.923  16.921   9.043  0.00  0.00    -0.154 N 
HETATM   24  N   UNK N   1      29.842  18.767  10.149  0.00  0.00    -0.234 N 
ATOM     25  HN  UNK N   1      31.453  16.741   9.897  1.00  0.00     0.187 HD
HETATM   26  H   UNK N   1      29.181  19.497  10.139  0.00  0.00     0.174 HD
HETATM   27  H   UNK N   1      30.377  18.602  10.959  0.00  0.00     0.174 HD
HETATM   28  O   UNK N   1      31.882  15.172   7.987  0.00  0.00    -0.265 OA
ENDBRANCH  10  13
BRANCH  11  29
HETATM   29  O   UNK N   1      28.703  19.891   4.146  0.00  0.00    -0.388 OA
HETATM   30  H   UNK N   1      28.713  19.473   3.271  0.00  0.00     0.210 HD
ENDBRANCH  11  29
BRANCH  12  31
HETATM   31  O   UNK N   1      25.424  20.312   5.347  0.00  0.00    -0.390 OA
HETATM   32  H   UNK N   1      25.454  20.180   6.308  0.00  0.00     0.210 HD
ENDBRANCH  12  31
ENDBRANCH   7   8
ENDBRANCH   6   7
ENDBRANCH   4   6
BRANCH   4  33
HETATM   33  O   UNK N   1      22.620  17.150   4.059  0.00  0.00    -0.307 OA
HETATM   34  H   UNK N   1      22.161  16.299   4.142  0.00  0.00     0.222 HD
ENDBRANCH   4  33
ENDBRANCH   3   4
ENDBRANCH   1   3
BRANCH   1  35
HETATM   35  O   UNK N   1      22.736  16.532   6.719  0.00  0.00    -0.307 OA
HETATM   36  H   UNK N   1      23.209  16.473   7.565  0.00  0.00     0.222 HD
ENDBRANCH   1  35
BRANCH   1  37
HETATM   37  O   UNK N   1      19.933  16.023   6.918  0.00  0.00    -0.195 OA
BRANCH  37  38
HETATM   38  P   UNK N   1      20.117  14.563   6.009  0.00  0.00     0.401 P 
HETATM   39  O   UNK N   1      18.773  14.298   5.274  0.00  0.00    -0.631 OA
BRANCH  38  40
HETATM   40  O   UNK N   1      21.382  14.586   4.806  0.00  0.00    -0.307 OA
HETATM   41  H   UNK N   1      21.233  15.026   3.954  0.00  0.00     0.222 HD
ENDBRANCH  38  40
BRANCH  38  42
HETATM   42  O   UNK N   1      20.298  13.325   7.218  0.00  0.00    -0.294 OA
BRANCH  42  43
HETATM   43  C   UNK N   1      21.457  12.618   6.938  0.00  0.00     0.215 C 
BRANCH  43  44
HETATM   44  C   UNK N   1      22.193  12.390   8.232  0.00  0.00     0.180 C 
HETATM   45  O   UNK N   1      23.408  11.732   7.954  0.00  0.00    -0.353 OA
HETATM   46  C   UNK N   1      24.426  12.551   8.458  0.00  0.00     0.262 C 
HETATM   47  C   UNK N   1      23.820  13.455   9.514  0.00  0.00     0.198 C 
HETATM   48  C   UNK N   1      22.485  13.707   8.887  0.00  0.00     0.182 C 
BRANCH  46  49
HETATM   49  N   UNK N   1      25.129  13.253   7.374  0.00  0.00    -0.297 N 
HETATM   50  C   UNK N   1      25.556  14.542   7.430  0.00  0.00     0.188 A 
HETATM   51  N   UNK N   1      26.011  14.968   6.217  0.00  0.00    -0.346 N 
HETATM   52  C   UNK N   1      25.852  13.904   5.409  0.00  0.00     0.122 A 
ATOM     53  HN  UNK N   1      26.387  15.885   5.976  1.00  0.00     0.167 HD
HETATM   54  C   UNK N   1      26.056  13.785   4.043  0.00  0.00     0.131 A 
HETATM   55  C   UNK N   1      25.354  12.867   6.110  0.00  0.00     0.142 A 
HETATM   56  N   UNK N   1      25.778  12.581   3.457  0.00  0.00    -0.337 N 
HETATM   57  C   UNK N   1      25.309  11.525   4.200  0.00  0.00     0.183 A 
ATOM     58  HN  UNK N   1      25.920  12.466   2.454  1.00  0.00     0.168 HD
HETATM   59  N   UNK N   1      25.073  11.672   5.538  0.00  0.00    -0.336 N 
ATOM     60  HN  UNK N   1      24.695  10.902   6.091  1.00  0.00     0.168 HD
BRANCH  54  61
HETATM   61  N   UNK N   1      26.472  14.882   3.265  0.00  0.00    -0.383 N 
HETATM   62  H   UNK N   1      25.838  15.600   3.041  0.00  0.00     0.157 HD
HETATM   63  H   UNK N   1      27.402  14.931   2.944  0.00  0.00     0.157 HD
ENDBRANCH  54  61
ENDBRANCH  46  49
BRANCH  47  64
HETATM   64  O   UNK N   1      23.674  12.711  10.689  0.00  0.00    -0.388 OA
HETATM   65  H   UNK N   1      24.133  12.567  11.531  0.00  0.00     0.210 HD
ENDBRANCH  47  64
BRANCH  48  66
HETATM   66  O   UNK N   1      21.504  14.018   9.834  0.00  0.00    -0.390 OA
HETATM   67  H   UNK N   1      21.735  14.492  10.648  0.00  0.00     0.210 HD
ENDBRANCH  48  66
ENDBRANCH  43  44
ENDBRANCH  42  43
ENDBRANCH  38  42
ENDBRANCH  37  38
ENDBRANCH   1  37
TORSDOF 20
ENDMDL
MODEL 8
REMARK VINA RESULT:      -7.1      6.729     14.539
REMARK  20 active torsions:
REMARK  status: ('A' for Active; 'I' for Inactive)
REMARK    1  A    between atoms: C_5  and  N_4 
REMARK    2  A    between atoms: C_7  and  C_8 
REMARK    3  A    between atoms: C_8  and  O_9 
REMARK    4  A    between atoms: P_10  and  O_9 
REMARK    5  A    between atoms: P_10  and  O_11 
REMARK    6  A    between atoms: P_10  and  O_13 
REMARK    7  A    between atoms: P_14  and  O_13 
REMARK    8  A    between atoms: P_14  and  O_15 
REMARK    9  A    between atoms: P_14  and  O_17 
REMARK   10  A    between atoms: P_18  and  O_17 
REMARK   11  A    between atoms: P_18  and  O_19 
REMARK   12  A    between atoms: P_18  and  O_21 
REMARK   13  A    between atoms: O_21  and  C_22 
REMARK   14  A    between atoms: C_23  and  C_22 
REMARK   15  A    between atoms: C_25  and  N_30 
REMARK   16  A    between atoms: C_26  and  O_27 
REMARK   17  A    between atoms: C_28  and  O_29 
REMARK   18  A    between atoms: C_35  and  N_36 
REMARK   19  A    between atoms: C_43  and  O_44 
REMARK   20  A    between atoms: C_45  and  O_46 
REMARK       I    between atoms: C_53  and  N_54 
ROOT
HETATM    1  P   UNK N   1      35.533  16.113  10.433  0.00  0.00     0.410 P 
HETATM    2  O   UNK N   1      34.910  16.304  11.840  0.00  0.00    -0.631 OA
ENDROOT
BRANCH   1   3
HETATM    3  O   UNK N   1      35.236  17.578   9.494  0.00  0.00    -0.195 OA
BRANCH   3   4
HETATM    4  P   UNK N   1      34.363  17.165   8.011  0.00  0.00     0.401 P 
HETATM    5  O   UNK N   1      34.613  18.599   7.502  0.00  0.00    -0.631 OA
BRANCH   4   6
HETATM    6  O   UNK N   1      32.641  17.355   7.600  0.00  0.00    -0.294 OA
BRANCH   6   7
HETATM    7  C   UNK N   1      31.833  17.659   8.743  0.00  0.00     0.215 C 
BRANCH   7   8
HETATM    8  C   UNK N   1      30.373  17.222   8.573  0.00  0.00     0.180 C 
HETATM    9  O   UNK N   1      29.895  17.692   7.357  0.00  0.00    -0.353 OA
HETATM   10  C   UNK N   1      28.870  18.594   7.654  0.00  0.00     0.262 C 
HETATM   11  C   UNK N   1      28.169  18.082   8.909  0.00  0.00     0.198 C 
HETATM   12  C   UNK N   1      29.363  17.568   9.687  0.00  0.00     0.182 C 
BRANCH  10  13
HETATM   13  N   UNK N   1      28.091  18.688   6.433  0.00  0.00    -0.296 N 
HETATM   14  C   UNK N   1      27.267  19.681   6.005  0.00  0.00     0.190 A 
HETATM   15  N   UNK N   1      26.460  19.228   5.014  0.00  0.00    -0.340 N 
HETATM   16  C   UNK N   1      25.401  19.981   4.368  0.00  0.00     0.157 C 
HETATM   17  C   UNK N   1      26.777  17.927   4.846  0.00  0.00     0.149 A 
HETATM   18  C   UNK N   1      27.777  17.620   5.689  0.00  0.00     0.159 A 
HETATM   19  C   UNK N   1      26.217  16.942   4.049  0.00  0.00     0.290 A 
HETATM   20  N   UNK N   1      28.286  16.364   5.800  0.00  0.00    -0.174 N 
HETATM   21  C   UNK N   1      27.772  15.386   4.998  0.00  0.00     0.680 A 
HETATM   22  H   UNK N   1      29.006  16.165   6.441  0.00  0.00     0.186 HD
HETATM   23  N   UNK N   1      26.740  15.665   4.136  0.00  0.00    -0.154 N 
HETATM   24  N   UNK N   1      28.292  14.078   5.070  0.00  0.00    -0.234 N 
ATOM     25  HN  UNK N   1      26.356  14.922   3.553  1.00  0.00     0.187 HD
HETATM   26  H   UNK N   1      29.015  13.866   5.704  0.00  0.00     0.174 HD
HETATM   27  H   UNK N   1      27.932  13.374   4.484  0.00  0.00     0.174 HD
HETATM   28  O   UNK N   1      25.274  17.172   3.316  0.00  0.00    -0.265 OA
ENDBRANCH  10  13
BRANCH  11  29
HETATM   29  O   UNK N   1      27.342  16.996   8.620  0.00  0.00    -0.388 OA
HETATM   30  H   UNK N   1      27.089  16.328   9.275  0.00  0.00     0.210 HD
ENDBRANCH  11  29
BRANCH  12  31
HETATM   31  O   UNK N   1      29.834  18.558  10.548  0.00  0.00    -0.390 OA
HETATM   32  H   UNK N   1      30.521  19.215  10.351  0.00  0.00     0.210 HD
ENDBRANCH  12  31
ENDBRANCH   7   8
ENDBRANCH   6   7
ENDBRANCH   4   6
BRANCH   4  33
HETATM   33  O   UNK N   1      33.348  17.531   9.371  0.00  0.00    -0.307 OA
HETATM   34  H   UNK N   1      32.752  16.997   9.919  0.00  0.00     0.222 HD
ENDBRANCH   4  33
ENDBRANCH   3   4
ENDBRANCH   1   3
BRANCH   1  35
HETATM   35  O   UNK N   1      37.214  15.756  10.683  0.00  0.00    -0.307 OA
HETATM   36  H   UNK N   1      37.956  15.795  10.059  0.00  0.00     0.222 HD
ENDBRANCH   1  35
BRANCH   1  37
HETATM   37  O   UNK N   1      34.709  14.744   9.756  0.00  0.00    -0.195 OA
BRANCH  37  38
HETATM   38  P   UNK N   1      35.844  13.443   9.653  0.00  0.00     0.401 P 
HETATM   39  O   UNK N   1      35.081  12.198   9.123  0.00  0.00    -0.631 OA
BRANCH  38  40
HETATM   40  O   UNK N   1      37.205  13.721   8.594  0.00  0.00    -0.307 OA
HETATM   41  H   UNK N   1      38.109  13.650   8.939  0.00  0.00     0.222 HD
ENDBRANCH  38  40
BRANCH  38  42
HETATM   42  O   UNK N   1      36.276  13.120  11.307  0.00  0.00    -0.294 OA
BRANCH  42  43
HETATM   43  C   UNK N   1      35.150  12.639  11.958  0.00  0.00     0.215 C 
BRANCH  43  44
HETATM   44  C   UNK N   1      35.256  13.009  13.414  0.00  0.00     0.180 C 
HETATM   45  O   UNK N   1      34.950  11.875  14.194  0.00  0.00    -0.353 OA
HETATM   46  C   UNK N   1      36.066  11.642  15.007  0.00  0.00     0.262 C 
HETATM   47  C   UNK N   1      36.848  12.937  15.113  0.00  0.00     0.198 C 
HETATM   48  C   UNK N   1      36.653  13.457  13.723  0.00  0.00     0.182 C 
BRANCH  46  49
HETATM   49  N   UNK N   1      36.841  10.489  14.526  0.00  0.00    -0.297 N 
HETATM   50  C   UNK N   1      38.181  10.329  14.690  0.00  0.00     0.188 A 
HETATM   51  N   UNK N   1      38.644   9.258  13.986  0.00  0.00    -0.346 N 
HETATM   52  C   UNK N   1      37.550   8.759  13.381  0.00  0.00     0.122 A 
ATOM     53  HN  UNK N   1      39.602   8.911  13.930  1.00  0.00     0.167 HD
HETATM   54  C   UNK N   1      37.433   7.727  12.464  0.00  0.00     0.131 A 
HETATM   55  C   UNK N   1      36.466   9.477  13.731  0.00  0.00     0.142 A 
HETATM   56  N   UNK N   1      36.189   7.444  11.972  0.00  0.00    -0.337 N 
HETATM   57  C   UNK N   1      35.090   8.165  12.375  0.00  0.00     0.183 A 
ATOM     58  HN  UNK N   1      36.074   6.689  11.297  1.00  0.00     0.168 HD
HETATM   59  N   UNK N   1      35.229   9.208  13.248  0.00  0.00    -0.336 N 
ATOM     60  HN  UNK N   1      34.424   9.768  13.528  1.00  0.00     0.168 HD
BRANCH  54  61
HETATM   61  N   UNK N   1      38.563   7.028  11.996  0.00  0.00    -0.383 N 
HETATM   62  H   UNK N   1      39.463   7.275  12.309  0.00  0.00     0.157 HD
HETATM   63  H   UNK N   1      38.452   6.290  11.354  0.00  0.00     0.157 HD
ENDBRANCH  54  61
ENDBRANCH  46  49
BRANCH  47  64
HETATM   64  O   UNK N   1      36.198  13.760  16.037  0.00  0.00    -0.388 OA
HETATM   65  H   UNK N   1      35.618  13.685  16.810  0.00  0.00     0.210 HD
ENDBRANCH  47  64
BRANCH  48  66
HETATM   66  O   UNK N   1      36.752  14.850  13.659  0.00  0.00    -0.390 OA
HETATM   67  H   UNK N   1      37.566  15.273  13.345  0.00  0.00     0.210 HD
ENDBRANCH  48  66
ENDBRANCH  43  44
ENDBRANCH  42  43
ENDBRANCH  38  42
ENDBRANCH  37  38
ENDBRANCH   1  37
TORSDOF 20
ENDMDL
MODEL 9
REMARK VINA RESULT:      -7.1      2.793      9.277
REMARK  20 active torsions:
REMARK  status: ('A' for Active; 'I' for Inactive)
REMARK    1  A    between atoms: C_5  and  N_4 
REMARK    2  A    between atoms: C_7  and  C_8 
REMARK    3  A    between atoms: C_8  and  O_9 
REMARK    4  A    between atoms: P_10  and  O_9 
REMARK    5  A    between atoms: P_10  and  O_11 
REMARK    6  A    between atoms: P_10  and  O_13 
REMARK    7  A    between atoms: P_14  and  O_13 
REMARK    8  A    between atoms: P_14  and  O_15 
REMARK    9  A    between atoms: P_14  and  O_17 
REMARK   10  A    between atoms: P_18  and  O_17 
REMARK   11  A    between atoms: P_18  and  O_19 
REMARK   12  A    between atoms: P_18  and  O_21 
REMARK   13  A    between atoms: O_21  and  C_22 
REMARK   14  A    between atoms: C_23  and  C_22 
REMARK   15  A    between atoms: C_25  and  N_30 
REMARK   16  A    between atoms: C_26  and  O_27 
REMARK   17  A    between atoms: C_28  and  O_29 
REMARK   18  A    between atoms: C_35  and  N_36 
REMARK   19  A    between atoms: C_43  and  O_44 
REMARK   20  A    between atoms: C_45  and  O_46 
REMARK       I    between atoms: C_53  and  N_54 
ROOT
HETATM    1  P   UNK N   1      25.851  13.875   4.754  0.00  0.00     0.410 P 
HETATM    2  O   UNK N   1      25.026  13.230   3.612  0.00  0.00    -0.631 OA
ENDROOT
BRANCH   1   3
HETATM    3  O   UNK N   1      25.660  12.883   6.202  0.00  0.00    -0.195 OA
BRANCH   3   4
HETATM    4  P   UNK N   1      24.656  13.739   7.381  0.00  0.00     0.401 P 
HETATM    5  O   UNK N   1      24.782  12.525   8.323  0.00  0.00    -0.631 OA
BRANCH   4   6
HETATM    6  O   UNK N   1      22.894  13.706   7.629  0.00  0.00    -0.294 OA
BRANCH   6   7
HETATM    7  C   UNK N   1      22.318  15.016   7.664  0.00  0.00     0.215 C 
BRANCH   7   8
HETATM    8  C   UNK N   1      20.895  15.058   7.096  0.00  0.00     0.180 C 
HETATM    9  O   UNK N   1      20.959  15.190   5.715  0.00  0.00    -0.353 OA
HETATM   10  C   UNK N   1      20.379  16.424   5.406  0.00  0.00     0.262 C 
HETATM   11  C   UNK N   1      19.257  16.659   6.415  0.00  0.00     0.198 C 
HETATM   12  C   UNK N   1      19.902  16.094   7.663  0.00  0.00     0.182 C 
BRANCH  10  13
HETATM   13  N   UNK N   1      20.020  16.325   4.004  0.00  0.00    -0.296 N 
HETATM   14  C   UNK N   1      19.877  15.223   3.221  0.00  0.00     0.190 A 
HETATM   15  N   UNK N   1      19.898  15.570   1.911  0.00  0.00    -0.340 N 
HETATM   16  C   UNK N   1      19.850  14.654   0.786  0.00  0.00     0.157 C 
HETATM   17  C   UNK N   1      20.081  16.907   1.887  0.00  0.00     0.149 A 
HETATM   18  C   UNK N   1      20.128  17.353   3.154  0.00  0.00     0.159 A 
HETATM   19  C   UNK N   1      20.279  17.788   0.835  0.00  0.00     0.290 A 
HETATM   20  N   UNK N   1      20.359  18.656   3.465  0.00  0.00    -0.174 N 
HETATM   21  C   UNK N   1      20.521  19.547   2.443  0.00  0.00     0.680 A 
HETATM   22  H   UNK N   1      20.408  18.951   4.404  0.00  0.00     0.186 HD
HETATM   23  N   UNK N   1      20.492  19.119   1.139  0.00  0.00    -0.154 N 
HETATM   24  N   UNK N   1      20.738  20.909   2.731  0.00  0.00    -0.234 N 
ATOM     25  HN  UNK N   1      20.630  19.793   0.385  1.00  0.00     0.187 HD
HETATM   26  H   UNK N   1      20.786  21.218   3.664  0.00  0.00     0.174 HD
HETATM   27  H   UNK N   1      20.844  21.555   1.995  0.00  0.00     0.174 HD
HETATM   28  O   UNK N   1      20.298  17.408  -0.320  0.00  0.00    -0.265 OA
ENDBRANCH  10  13
BRANCH  11  29
HETATM   29  O   UNK N   1      18.138  15.882   6.116  0.00  0.00    -0.388 OA
HETATM   30  H   UNK N   1      17.907  15.602   5.217  0.00  0.00     0.210 HD
ENDBRANCH  11  29
BRANCH  12  31
HETATM   31  O   UNK N   1      20.538  17.111   8.375  0.00  0.00    -0.390 OA
HETATM   32  H   UNK N   1      21.453  17.412   8.257  0.00  0.00     0.210 HD
ENDBRANCH  12  31
ENDBRANCH   7   8
ENDBRANCH   6   7
ENDBRANCH   4   6
BRANCH   4  33
HETATM   33  O   UNK N   1      23.775  12.990   6.086  0.00  0.00    -0.307 OA
HETATM   34  H   UNK N   1      23.881  12.989   5.122  0.00  0.00     0.222 HD
ENDBRANCH   4  33
ENDBRANCH   3   4
ENDBRANCH   1   3
BRANCH   1  35
HETATM   35  O   UNK N   1      27.486  13.988   4.179  0.00  0.00    -0.307 OA
HETATM   36  H   UNK N   1      27.817  14.184   3.288  0.00  0.00     0.222 HD
ENDBRANCH   1  35
BRANCH   1  37
HETATM   37  O   UNK N   1      25.166  15.454   4.971  0.00  0.00    -0.195 OA
BRANCH  37  38
HETATM   38  P   UNK N   1      25.958  16.528   3.871  0.00  0.00     0.401 P 
HETATM   39  O   UNK N   1      26.055  15.804   2.498  0.00  0.00    -0.631 OA
BRANCH  38  40
HETATM   40  O   UNK N   1      25.153  18.055   3.607  0.00  0.00    -0.307 OA
HETATM   41  H   UNK N   1      24.276  18.212   3.990  0.00  0.00     0.222 HD
ENDBRANCH  38  40
BRANCH  38  42
HETATM   42  O   UNK N   1      27.575  16.667   4.497  0.00  0.00    -0.294 OA
BRANCH  42  43
HETATM   43  C   UNK N   1      27.727  17.946   5.011  0.00  0.00     0.215 C 
BRANCH  43  44
HETATM   44  C   UNK N   1      27.408  17.902   6.482  0.00  0.00     0.180 C 
HETATM   45  O   UNK N   1      27.919  16.704   7.022  0.00  0.00    -0.353 OA
HETATM   46  C   UNK N   1      28.794  17.076   8.050  0.00  0.00     0.262 C 
HETATM   47  C   UNK N   1      28.424  18.476   8.498  0.00  0.00     0.198 C 
HETATM   48  C   UNK N   1      28.049  19.067   7.175  0.00  0.00     0.182 C 
BRANCH  46  49
HETATM   49  N   UNK N   1      30.196  16.909   7.638  0.00  0.00    -0.297 N 
HETATM   50  C   UNK N   1      31.243  17.617   8.137  0.00  0.00     0.188 A 
HETATM   51  N   UNK N   1      32.389  17.369   7.441  0.00  0.00    -0.346 N 
HETATM   52  C   UNK N   1      32.019  16.486   6.495  0.00  0.00     0.122 A 
ATOM     53  HN  UNK N   1      33.316  17.763   7.599  1.00  0.00     0.167 HD
HETATM   54  C   UNK N   1      32.745  15.952   5.442  0.00  0.00     0.131 A 
HETATM   55  C   UNK N   1      30.713  16.186   6.635  0.00  0.00     0.142 A 
HETATM   56  N   UNK N   1      32.106  15.090   4.595  0.00  0.00    -0.337 N 
HETATM   57  C   UNK N   1      30.784  14.767   4.782  0.00  0.00     0.183 A 
ATOM     58  HN  UNK N   1      32.617  14.682   3.813  1.00  0.00     0.168 HD
HETATM   59  N   UNK N   1      30.070  15.335   5.799  0.00  0.00    -0.336 N 
ATOM     60  HN  UNK N   1      29.080  15.125   5.926  1.00  0.00     0.168 HD
BRANCH  54  61
HETATM   61  N   UNK N   1      34.081  16.330   5.206  0.00  0.00    -0.383 N 
HETATM   62  H   UNK N   1      34.808  15.675   5.315  0.00  0.00     0.157 HD
HETATM   63  H   UNK N   1      34.288  17.252   4.930  0.00  0.00     0.157 HD
ENDBRANCH  54  61
ENDBRANCH  46  49
BRANCH  47  64
HETATM   64  O   UNK N   1      27.303  18.383   9.326  0.00  0.00    -0.388 OA
HETATM   65  H   UNK N   1      26.594  17.756   9.539  0.00  0.00     0.210 HD
ENDBRANCH  47  64
BRANCH  48  66
HETATM   66  O   UNK N   1      27.144  20.125   7.304  0.00  0.00    -0.390 OA
HETATM   67  H   UNK N   1      26.699  20.295   8.149  0.00  0.00     0.210 HD
ENDBRANCH  48  66
ENDBRANCH  43  44
ENDBRANCH  42  43
ENDBRANCH  38  42
ENDBRANCH  37  38
ENDBRANCH   1  37
TORSDOF 20
ENDMDL
