MODEL 1
REMARK VINA RESULT:      -4.9      0.000      0.000
REMARK  2 active torsions:
REMARK  status: ('A' for Active; 'I' for Inactive)
REMARK    1  A    between atoms: O_2  and  C_3 
REMARK    2  A    between atoms: C_10  and  C_11 
ROOT
HETATM    1  C   UNK N   1      36.684  14.108  15.016  0.00  0.00     0.165 A 
HETATM    2  N   UNK N   1      36.758  14.323  13.674  0.00  0.00    -0.344 N 
ATOM      3  HN  UNK N   1      37.436  15.002  13.328  1.00  0.00     0.167 HD
HETATM    4  C   UNK N   1      35.977  13.682  12.775  0.00  0.00     0.107 A 
HETATM    5  C   UNK N   1      35.053  12.758  13.222  0.00  0.00     0.105 A 
HETATM    6  N   UNK N   1      34.947  12.514  14.549  0.00  0.00    -0.364 N 
ATOM      7  HN  UNK N   1      34.259  11.829  14.860  1.00  0.00     0.165 HD
HETATM    8  C   UNK N   1      35.715  13.139  15.492  0.00  0.00     0.064 A 
ENDROOT
BRANCH   8   9
HETATM    9  C   UNK N   1      35.420  12.704  16.932  0.00  0.00     0.032 C 
HETATM   10  C   UNK N   1      35.361  11.319  17.526  0.00  0.00     0.016 C 
HETATM   11  C   UNK N   1      35.137  13.796  17.955  0.00  0.00     0.016 C 
ENDBRANCH   8   9
BRANCH   1  12
HETATM   12  O   UNK N   1      37.552  14.848  15.763  0.00  0.00    -0.339 OA
HETATM   13  C   UNK N   1      37.504  16.145  16.182  0.00  0.00     0.211 C 
ENDBRANCH   1  12
TORSDOF 2
ENDMDL
MODEL 2
REMARK VINA RESULT:      -4.1     16.618     18.647
REMARK  2 active torsions:
REMARK  status: ('A' for Active; 'I' for Inactive)
REMARK    1  A    between atoms: O_2  and  C_3 
REMARK    2  A    between atoms: C_10  and  C_11 
ROOT
HETATM    1  C   UNK N   1      43.287  23.320   2.485  0.00  0.00     0.165 A 
HETATM    2  N   UNK N   1      42.836  22.288   3.250  0.00  0.00    -0.344 N 
ATOM      3  HN  UNK N   1      41.841  22.066   3.226  1.00  0.00     0.167 HD
HETATM    4  C   UNK N   1      43.641  21.543   4.040  0.00  0.00     0.107 A 
HETATM    5  C   UNK N   1      44.992  21.828   4.087  0.00  0.00     0.105 A 
HETATM    6  N   UNK N   1      45.481  22.845   3.342  0.00  0.00    -0.364 N 
ATOM      7  HN  UNK N   1      46.481  23.041   3.389  1.00  0.00     0.165 HD
HETATM    8  C   UNK N   1      44.705  23.624   2.529  0.00  0.00     0.064 A 
ENDROOT
BRANCH   8   9
HETATM    9  C   UNK N   1      45.476  24.717   1.781  0.00  0.00     0.032 C 
HETATM   10  C   UNK N   1      45.850  26.109   2.226  0.00  0.00     0.016 C 
HETATM   11  C   UNK N   1      45.961  24.399   0.373  0.00  0.00     0.016 C 
ENDBRANCH   8   9
BRANCH   1  12
HETATM   12  O   UNK N   1      42.326  23.954   1.754  0.00  0.00    -0.339 OA
HETATM   13  C   UNK N   1      41.101  23.540   1.321  0.00  0.00     0.211 C 
ENDBRANCH   1  12
TORSDOF 2
ENDMDL
MODEL 3
REMARK VINA RESULT:      -4.1      2.843      3.471
REMARK  2 active torsions:
REMARK  status: ('A' for Active; 'I' for Inactive)
REMARK    1  A    between atoms: O_2  and  C_3 
REMARK    2  A    between atoms: C_10  and  C_11 
ROOT
HETATM    1  C   UNK N   1      36.276  12.835  13.591  0.00  0.00     0.165 A 
HETATM    2  N   UNK N   1      36.739  14.051  13.192  0.00  0.00    -0.344 N 
ATOM      3  HN  UNK N   1      37.598  14.404  13.612  1.00  0.00     0.167 HD
HETATM    4  C   UNK N   1      36.117  14.815  12.265  0.00  0.00     0.107 A 
HETATM    5  C   UNK N   1      34.951  14.355  11.684  0.00  0.00     0.105 A 
HETATM    6  N   UNK N   1      34.457  13.151  12.053  0.00  0.00    -0.364 N 
ATOM      7  HN  UNK N   1      33.596  12.828  11.612  1.00  0.00     0.165 HD
HETATM    8  C   UNK N   1      35.052  12.346  12.984  0.00  0.00     0.064 A 
ENDROOT
BRANCH   8   9
HETATM    9  C   UNK N   1      34.313  11.028  13.240  0.00  0.00     0.032 C 
HETATM   10  C   UNK N   1      34.065   9.866  12.311  0.00  0.00     0.016 C 
HETATM   11  C   UNK N   1      33.721  10.810  14.627  0.00  0.00     0.016 C 
ENDBRANCH   8   9
BRANCH   1  12
HETATM   12  O   UNK N   1      37.039  12.213  14.535  0.00  0.00    -0.339 OA
HETATM   13  C   UNK N   1      37.849  11.118  14.464  0.00  0.00     0.211 C 
ENDBRANCH   1  12
TORSDOF 2
ENDMDL
MODEL 4
REMARK VINA RESULT:      -4.1     11.651     13.250
REMARK  2 active torsions:
REMARK  status: ('A' for Active; 'I' for Inactive)
REMARK    1  A    between atoms: O_2  and  C_3 
REMARK    2  A    between atoms: C_10  and  C_11 
ROOT
HETATM    1  C   UNK N   1      28.879  18.085   6.404  0.00  0.00     0.165 A 
HETATM    2  N   UNK N   1      29.342  17.248   7.373  0.00  0.00    -0.344 N 
ATOM      3  HN  UNK N   1      29.985  16.503   7.104  1.00  0.00     0.167 HD
HETATM    4  C   UNK N   1      28.992  17.356   8.675  0.00  0.00     0.107 A 
HETATM    5  C   UNK N   1      28.123  18.357   9.060  0.00  0.00     0.105 A 
HETATM    6  N   UNK N   1      27.640  19.210   8.127  0.00  0.00    -0.364 N 
ATOM      7  HN  UNK N   1      26.999  19.943   8.430  1.00  0.00     0.165 HD
HETATM    8  C   UNK N   1      27.965  19.139   6.801  0.00  0.00     0.064 A 
ENDROOT
BRANCH   8   9
HETATM    9  C   UNK N   1      27.297  20.210   5.931  0.00  0.00     0.032 C 
HETATM   10  C   UNK N   1      27.077  20.238   4.439  0.00  0.00     0.016 C 
HETATM   11  C   UNK N   1      26.759  21.451   6.630  0.00  0.00     0.016 C 
ENDBRANCH   8   9
BRANCH   1  12
HETATM   12  O   UNK N   1      29.344  17.820   5.149  0.00  0.00    -0.339 OA
HETATM   13  C   UNK N   1      30.574  17.437   4.704  0.00  0.00     0.211 C 
ENDBRANCH   1  12
TORSDOF 2
ENDMDL
MODEL 5
REMARK VINA RESULT:      -4.1      9.038     10.450
REMARK  2 active torsions:
REMARK  status: ('A' for Active; 'I' for Inactive)
REMARK    1  A    between atoms: O_2  and  C_3 
REMARK    2  A    between atoms: C_10  and  C_11 
ROOT
HETATM    1  C   UNK N   1      32.329  17.509   8.070  0.00  0.00     0.165 A 
HETATM    2  N   UNK N   1      31.349  17.715   8.993  0.00  0.00    -0.344 N 
ATOM      3  HN  UNK N   1      31.623  17.916   9.954  1.00  0.00     0.167 HD
HETATM    4  C   UNK N   1      30.031  17.666   8.698  0.00  0.00     0.107 A 
HETATM    5  C   UNK N   1      29.639  17.395   7.402  0.00  0.00     0.105 A 
HETATM    6  N   UNK N   1      30.581  17.184   6.454  0.00  0.00    -0.364 N 
ATOM      7  HN  UNK N   1      30.273  16.986   5.503  1.00  0.00     0.165 HD
HETATM    8  C   UNK N   1      31.924  17.224   6.706  0.00  0.00     0.064 A 
ENDROOT
BRANCH   8   9
HETATM    9  C   UNK N   1      32.803  16.954   5.480  0.00  0.00     0.032 C 
HETATM   10  C   UNK N   1      34.047  16.111   5.353  0.00  0.00     0.016 C 
HETATM   11  C   UNK N   1      32.402  17.614   4.167  0.00  0.00     0.016 C 
ENDBRANCH   8   9
BRANCH   1  12
HETATM   12  O   UNK N   1      33.601  17.599   8.556  0.00  0.00    -0.339 OA
HETATM   13  C   UNK N   1      34.619  18.458   8.267  0.00  0.00     0.211 C 
ENDBRANCH   1  12
TORSDOF 2
ENDMDL
MODEL 6
REMARK VINA RESULT:      -4.1     24.577     26.399
REMARK  2 active torsions:
REMARK  status: ('A' for Active; 'I' for Inactive)
REMARK    1  A    between atoms: O_2  and  C_3 
REMARK    2  A    between atoms: C_10  and  C_11 
ROOT
HETATM    1  C   UNK N   1      25.846  24.458  -5.367  0.00  0.00     0.165 A 
HETATM    2  N   UNK N   1      25.680  23.290  -6.047  0.00  0.00    -0.344 N 
ATOM      3  HN  UNK N   1      25.631  22.421  -5.515  1.00  0.00     0.167 HD
HETATM    4  C   UNK N   1      25.576  23.224  -7.394  0.00  0.00     0.107 A 
HETATM    5  C   UNK N   1      25.639  24.389  -8.133  0.00  0.00     0.105 A 
HETATM    6  N   UNK N   1      25.803  25.571  -7.496  0.00  0.00    -0.364 N 
ATOM      7  HN  UNK N   1      25.848  26.420  -8.059  1.00  0.00     0.165 HD
HETATM    8  C   UNK N   1      25.913  25.685  -6.138  0.00  0.00     0.064 A 
ENDROOT
BRANCH   8   9
HETATM    9  C   UNK N   1      26.094  27.123  -5.640  0.00  0.00     0.032 C 
HETATM   10  C   UNK N   1      25.416  27.839  -4.498  0.00  0.00     0.016 C 
HETATM   11  C   UNK N   1      27.096  28.003  -6.375  0.00  0.00     0.016 C 
ENDBRANCH   8   9
BRANCH   1  12
HETATM   12  O   UNK N   1      25.931  24.324  -4.012  0.00  0.00    -0.339 OA
HETATM   13  C   UNK N   1      27.006  24.281  -3.175  0.00  0.00     0.211 C 
ENDBRANCH   1  12
TORSDOF 2
ENDMDL
MODEL 7
REMARK VINA RESULT:      -4.0      8.841     10.486
REMARK  2 active torsions:
REMARK  status: ('A' for Active; 'I' for Inactive)
REMARK    1  A    between atoms: O_2  and  C_3 
REMARK    2  A    between atoms: C_10  and  C_11 
ROOT
HETATM    1  C   UNK N   1      30.247  17.405   7.196  0.00  0.00     0.165 A 
HETATM    2  N   UNK N   1      28.958  17.816   7.347  0.00  0.00    -0.344 N 
ATOM      3  HN  UNK N   1      28.317  17.697   6.563  1.00  0.00     0.167 HD
HETATM    4  C   UNK N   1      28.485  18.375   8.483  0.00  0.00     0.107 A 
HETATM    5  C   UNK N   1      29.338  18.546   9.557  0.00  0.00     0.105 A 
HETATM    6  N   UNK N   1      30.627  18.150   9.449  0.00  0.00    -0.364 N 
ATOM      7  HN  UNK N   1      31.242  18.284  10.251  1.00  0.00     0.165 HD
HETATM    8  C   UNK N   1      31.148  17.581   8.320  0.00  0.00     0.064 A 
ENDROOT
BRANCH   8   9
HETATM    9  C   UNK N   1      32.632  17.213   8.428  0.00  0.00     0.032 C 
HETATM   10  C   UNK N   1      33.276  15.949   8.940  0.00  0.00     0.016 C 
HETATM   11  C   UNK N   1      33.650  18.246   7.962  0.00  0.00     0.016 C 
ENDBRANCH   8   9
BRANCH   1  12
HETATM   12  O   UNK N   1      30.538  16.865   5.978  0.00  0.00    -0.339 OA
HETATM   13  C   UNK N   1      31.242  17.354   4.918  0.00  0.00     0.211 C 
ENDBRANCH   1  12
TORSDOF 2
ENDMDL
MODEL 8
REMARK VINA RESULT:      -3.9     23.856     25.727
REMARK  2 active torsions:
REMARK  status: ('A' for Active; 'I' for Inactive)
REMARK    1  A    between atoms: O_2  and  C_3 
REMARK    2  A    between atoms: C_10  and  C_11 
ROOT
HETATM    1  C   UNK N   1      26.435  25.501  -3.922  0.00  0.00     0.165 A 
HETATM    2  N   UNK N   1      26.340  26.586  -3.105  0.00  0.00    -0.344 N 
ATOM      3  HN  UNK N   1      26.713  26.515  -2.159  1.00  0.00     0.167 HD
HETATM    4  C   UNK N   1      25.775  27.754  -3.486  0.00  0.00     0.107 A 
HETATM    5  C   UNK N   1      25.263  27.871  -4.764  0.00  0.00     0.105 A 
HETATM    6  N   UNK N   1      25.338  26.816  -5.607  0.00  0.00    -0.364 N 
ATOM      7  HN  UNK N   1      24.955  26.921  -6.546  1.00  0.00     0.165 HD
HETATM    8  C   UNK N   1      25.899  25.617  -5.265  0.00  0.00     0.064 A 
ENDROOT
BRANCH   8   9
HETATM    9  C   UNK N   1      25.871  24.568  -6.382  0.00  0.00     0.032 C 
HETATM   10  C   UNK N   1      25.827  23.063  -6.289  0.00  0.00     0.016 C 
HETATM   11  C   UNK N   1      25.890  25.068  -7.820  0.00  0.00     0.016 C 
ENDBRANCH   8   9
BRANCH   1  12
HETATM   12  O   UNK N   1      27.037  24.413  -3.361  0.00  0.00    -0.339 OA
HETATM   13  C   UNK N   1      28.318  23.952  -3.434  0.00  0.00     0.211 C 
ENDBRANCH   1  12
TORSDOF 2
ENDMDL
MODEL 9
REMARK VINA RESULT:      -3.9      2.369      3.969
REMARK  2 active torsions:
REMARK  status: ('A' for Active; 'I' for Inactive)
REMARK    1  A    between atoms: O_2  and  C_3 
REMARK    2  A    between atoms: C_10  and  C_11 
ROOT
HETATM    1  C   UNK N   1      34.975  12.820  16.143  0.00  0.00     0.165 A 
HETATM    2  N   UNK N   1      35.126  13.598  17.249  0.00  0.00    -0.344 N 
ATOM      3  HN  UNK N   1      35.140  14.611  17.132  1.00  0.00     0.167 HD
HETATM    4  C   UNK N   1      35.260  13.095  18.498  0.00  0.00     0.107 A 
HETATM    5  C   UNK N   1      35.245  11.726  18.678  0.00  0.00     0.105 A 
HETATM    6  N   UNK N   1      35.097  10.917  17.604  0.00  0.00    -0.364 N 
ATOM      7  HN  UNK N   1      35.088   9.909  17.757  1.00  0.00     0.165 HD
HETATM    8  C   UNK N   1      34.958  11.381  16.326  0.00  0.00     0.064 A 
ENDROOT
BRANCH   8   9
HETATM    9  C   UNK N   1      34.805  10.281  15.270  0.00  0.00     0.032 C 
HETATM   10  C   UNK N   1      35.530   8.964  15.138  0.00  0.00     0.016 C 
HETATM   11  C   UNK N   1      33.778  10.501  14.166  0.00  0.00     0.016 C 
ENDBRANCH   8   9
BRANCH   1  12
HETATM   12  O   UNK N   1      34.856  13.508  14.971  0.00  0.00    -0.339 OA
HETATM   13  C   UNK N   1      35.751  13.755  13.973  0.00  0.00     0.211 C 
ENDBRANCH   1  12
TORSDOF 2
ENDMDL
