MODEL 1
REMARK VINA RESULT:      -5.9      0.000      0.000
REMARK  5 active torsions:
REMARK  status: ('A' for Active; 'I' for Inactive)
REMARK    1  A    between atoms: O_1  and  C_2 
REMARK    2  A    between atoms: C_3  and  C_2 
REMARK    3  A    between atoms: C_12  and  O_13 
REMARK    4  A    between atoms: C_14  and  O_15 
REMARK    5  A    between atoms: C_16  and  O_17 
ROOT
HETATM    1  C   UNK N   1      34.674  14.878  11.247  0.00  0.00     0.180 C 
HETATM    2  O   UNK N   1      34.741  14.280  12.532  0.00  0.00    -0.340 OA
HETATM    3  C   UNK N   1      36.059  13.847  12.882  0.00  0.00     0.250 A 
HETATM    4  N   UNK N   1      36.716  14.835  13.721  0.00  0.00    -0.300 N 
HETATM    5  C   UNK N   1      36.911  14.319  14.947  0.00  0.00     0.325 A 
HETATM    6  O   UNK N   1      37.439  14.938  15.856  0.00  0.00    -0.247 OA
HETATM    7  N   UNK N   1      36.467  13.067  15.076  0.00  0.00    -0.275 N 
HETATM    8  C   UNK N   1      35.948  12.721  13.889  0.00  0.00     0.284 A 
HETATM    9  O   UNK N   1      35.453  11.626  13.675  0.00  0.00    -0.267 OA
HETATM   10  C   UNK N   1      36.958  13.466  11.671  0.00  0.00     0.215 C 
HETATM   11  C   UNK N   1      36.077  12.836  10.614  0.00  0.00     0.183 C 
HETATM   12  C   UNK N   1      35.086  13.898  10.119  0.00  0.00     0.180 C 
HETATM   13  H   UNK N   1      36.977  15.740  13.436  0.00  0.00     0.167 HD
HETATM   14  H   UNK N   1      36.511  12.507  15.884  0.00  0.00     0.173 HD
ENDROOT
BRANCH  10  15
HETATM   15  O   UNK N   1      38.011  12.624  12.045  0.00  0.00    -0.387 OA
HETATM   16  H   UNK N   1      38.892  12.608  11.639  0.00  0.00     0.210 HD
ENDBRANCH  10  15
BRANCH   1  17
HETATM   17  C   UNK N   1      35.374  16.238  11.219  0.00  0.00     0.198 C 
BRANCH  17  18
HETATM   18  O   UNK N   1      34.678  17.107  10.378  0.00  0.00    -0.398 OA
HETATM   19  H   UNK N   1      34.359  16.819   9.509  0.00  0.00     0.209 HD
ENDBRANCH  17  18
ENDBRANCH   1  17
BRANCH  11  20
HETATM   20  O   UNK N   1      36.821  12.313   9.553  0.00  0.00    -0.390 OA
HETATM   21  H   UNK N   1      37.465  11.595   9.650  0.00  0.00     0.210 HD
ENDBRANCH  11  20
BRANCH  12  22
HETATM   22  O   UNK N   1      35.593  14.606   9.021  0.00  0.00    -0.390 OA
HETATM   23  H   UNK N   1      35.224  14.772   8.140  0.00  0.00     0.210 HD
ENDBRANCH  12  22
TORSDOF 5
ENDMDL
MODEL 2
REMARK VINA RESULT:      -5.9      4.744      6.791
REMARK  5 active torsions:
REMARK  status: ('A' for Active; 'I' for Inactive)
REMARK    1  A    between atoms: O_1  and  C_2 
REMARK    2  A    between atoms: C_3  and  C_2 
REMARK    3  A    between atoms: C_12  and  O_13 
REMARK    4  A    between atoms: C_14  and  O_15 
REMARK    5  A    between atoms: C_16  and  O_17 
ROOT
HETATM    1  C   UNK N   1      34.784  16.858   8.216  0.00  0.00     0.180 C 
HETATM    2  O   UNK N   1      34.015  16.025   7.364  0.00  0.00    -0.340 OA
HETATM    3  C   UNK N   1      32.708  15.750   7.877  0.00  0.00     0.250 A 
HETATM    4  N   UNK N   1      31.725  16.635   7.275  0.00  0.00    -0.300 N 
HETATM    5  C   UNK N   1      30.883  15.914   6.514  0.00  0.00     0.325 A 
HETATM    6  O   UNK N   1      29.962  16.407   5.885  0.00  0.00    -0.247 OA
HETATM    7  N   UNK N   1      31.155  14.606   6.509  0.00  0.00    -0.275 N 
HETATM    8  C   UNK N   1      32.226  14.436   7.297  0.00  0.00     0.284 A 
HETATM    9  O   UNK N   1      32.731  13.344   7.503  0.00  0.00    -0.267 OA
HETATM   10  C   UNK N   1      32.602  15.782   9.428  0.00  0.00     0.215 C 
HETATM   11  C   UNK N   1      33.900  15.251   9.997  0.00  0.00     0.183 C 
HETATM   12  C   UNK N   1      35.026  16.216   9.607  0.00  0.00     0.180 C 
HETATM   13  H   UNK N   1      31.684  17.610   7.403  0.00  0.00     0.167 HD
HETATM   14  H   UNK N   1      30.665  13.905   6.022  0.00  0.00     0.173 HD
ENDROOT
BRANCH  10  15
HETATM   15  O   UNK N   1      31.494  15.064   9.892  0.00  0.00    -0.387 OA
HETATM   16  H   UNK N   1      30.583  15.165   9.575  0.00  0.00     0.210 HD
ENDBRANCH  10  15
BRANCH   1  17
HETATM   17  C   UNK N   1      34.246  18.290   8.244  0.00  0.00     0.198 C 
BRANCH  17  18
HETATM   18  O   UNK N   1      35.286  19.179   8.515  0.00  0.00    -0.398 OA
HETATM   19  H   UNK N   1      35.511  19.893   7.900  0.00  0.00     0.209 HD
ENDBRANCH  17  18
ENDBRANCH   1  17
BRANCH  11  20
HETATM   20  O   UNK N   1      33.838  15.089  11.384  0.00  0.00    -0.390 OA
HETATM   21  H   UNK N   1      34.609  14.895  11.939  0.00  0.00     0.210 HD
ENDBRANCH  11  20
BRANCH  12  22
HETATM   22  O   UNK N   1      35.214  17.210  10.576  0.00  0.00    -0.390 OA
HETATM   23  H   UNK N   1      34.594  17.631  11.191  0.00  0.00     0.210 HD
ENDBRANCH  12  22
TORSDOF 5
ENDMDL
MODEL 3
REMARK VINA RESULT:      -5.8      3.449      5.848
REMARK  5 active torsions:
REMARK  status: ('A' for Active; 'I' for Inactive)
REMARK    1  A    between atoms: O_1  and  C_2 
REMARK    2  A    between atoms: C_3  and  C_2 
REMARK    3  A    between atoms: C_12  and  O_13 
REMARK    4  A    between atoms: C_14  and  O_15 
REMARK    5  A    between atoms: C_16  and  O_17 
ROOT
HETATM    1  C   UNK N   1      35.764  14.330   9.732  0.00  0.00     0.180 C 
HETATM    2  O   UNK N   1      35.716  15.233   8.639  0.00  0.00    -0.340 OA
HETATM    3  C   UNK N   1      34.515  16.012   8.607  0.00  0.00     0.250 A 
HETATM    4  N   UNK N   1      34.740  17.322   9.194  0.00  0.00    -0.300 N 
HETATM    5  C   UNK N   1      34.619  18.264   8.242  0.00  0.00     0.325 A 
HETATM    6  O   UNK N   1      34.765  19.455   8.458  0.00  0.00    -0.247 OA
HETATM    7  N   UNK N   1      34.328  17.769   7.036  0.00  0.00    -0.275 N 
HETATM    8  C   UNK N   1      34.251  16.438   7.178  0.00  0.00     0.284 A 
HETATM    9  O   UNK N   1      33.999  15.686   6.250  0.00  0.00    -0.267 OA
HETATM   10  C   UNK N   1      33.279  15.324   9.254  0.00  0.00     0.215 C 
HETATM   11  C   UNK N   1      33.372  13.839   8.975  0.00  0.00     0.183 C 
HETATM   12  C   UNK N   1      34.614  13.292   9.691  0.00  0.00     0.180 C 
HETATM   13  H   UNK N   1      34.950  17.494  10.141  0.00  0.00     0.167 HD
HETATM   14  H   UNK N   1      34.196  18.281   6.206  0.00  0.00     0.173 HD
ENDROOT
BRANCH  10  15
HETATM   15  O   UNK N   1      32.076  15.869   8.794  0.00  0.00    -0.387 OA
HETATM   16  H   UNK N   1      31.519  15.496   8.092  0.00  0.00     0.210 HD
ENDBRANCH  10  15
BRANCH   1  17
HETATM   17  C   UNK N   1      35.935  15.063  11.065  0.00  0.00     0.198 C 
BRANCH  17  18
HETATM   18  O   UNK N   1      36.940  16.023  10.948  0.00  0.00    -0.398 OA
HETATM   19  H   UNK N   1      36.837  16.908  11.330  0.00  0.00     0.209 HD
ENDBRANCH  17  18
ENDBRANCH   1  17
BRANCH  11  20
HETATM   20  O   UNK N   1      32.221  13.157   9.377  0.00  0.00    -0.390 OA
HETATM   21  H   UNK N   1      32.185  12.198   9.521  0.00  0.00     0.210 HD
ENDBRANCH  11  20
BRANCH  12  22
HETATM   22  O   UNK N   1      34.311  12.849  10.985  0.00  0.00    -0.390 OA
HETATM   23  H   UNK N   1      34.192  11.957  11.345  0.00  0.00     0.210 HD
ENDBRANCH  12  22
TORSDOF 5
ENDMDL
MODEL 4
REMARK VINA RESULT:      -5.5      4.764      6.635
REMARK  5 active torsions:
REMARK  status: ('A' for Active; 'I' for Inactive)
REMARK    1  A    between atoms: O_1  and  C_2 
REMARK    2  A    between atoms: C_3  and  C_2 
REMARK    3  A    between atoms: C_12  and  O_13 
REMARK    4  A    between atoms: C_14  and  O_15 
REMARK    5  A    between atoms: C_16  and  O_17 
ROOT
HETATM    1  C   UNK N   1      30.911  16.389   7.634  0.00  0.00     0.180 C 
HETATM    2  O   UNK N   1      32.078  15.765   8.146  0.00  0.00    -0.340 OA
HETATM    3  C   UNK N   1      33.255  16.566   7.996  0.00  0.00     0.250 A 
HETATM    4  N   UNK N   1      33.549  17.278   9.228  0.00  0.00    -0.300 N 
HETATM    5  C   UNK N   1      34.702  16.816   9.744  0.00  0.00     0.325 A 
HETATM    6  O   UNK N   1      35.184  17.234  10.784  0.00  0.00    -0.247 OA
HETATM    7  N   UNK N   1      35.266  15.852   9.012  0.00  0.00    -0.275 N 
HETATM    8  C   UNK N   1      34.462  15.652   7.959  0.00  0.00     0.284 A 
HETATM    9  O   UNK N   1      34.698  14.826   7.092  0.00  0.00    -0.267 OA
HETATM   10  C   UNK N   1      33.221  17.546   6.788  0.00  0.00     0.215 C 
HETATM   11  C   UNK N   1      32.465  16.875   5.662  0.00  0.00     0.183 C 
HETATM   12  C   UNK N   1      31.012  16.672   6.113  0.00  0.00     0.180 C 
HETATM   13  H   UNK N   1      32.992  17.986   9.624  0.00  0.00     0.167 HD
HETATM   14  H   UNK N   1      36.108  15.381   9.208  0.00  0.00     0.173 HD
ENDROOT
BRANCH  10  15
HETATM   15  O   UNK N   1      34.506  17.938   6.396  0.00  0.00    -0.387 OA
HETATM   16  H   UNK N   1      34.759  18.825   6.098  0.00  0.00     0.210 HD
ENDBRANCH  10  15
BRANCH   1  17
HETATM   17  C   UNK N   1      30.484  17.582   8.493  0.00  0.00     0.198 C 
BRANCH  17  18
HETATM   18  O   UNK N   1      30.411  17.195   9.831  0.00  0.00    -0.398 OA
HETATM   19  H   UNK N   1      31.029  17.546  10.490  0.00  0.00     0.209 HD
ENDBRANCH  17  18
ENDBRANCH   1  17
BRANCH  11  20
HETATM   20  O   UNK N   1      32.522  17.614   4.478  0.00  0.00    -0.390 OA
HETATM   21  H   UNK N   1      32.315  18.560   4.422  0.00  0.00     0.210 HD
ENDBRANCH  11  20
BRANCH  12  22
HETATM   22  O   UNK N   1      30.206  17.764   5.766  0.00  0.00    -0.390 OA
HETATM   23  H   UNK N   1      30.362  18.719   5.823  0.00  0.00     0.210 HD
ENDBRANCH  12  22
TORSDOF 5
ENDMDL
MODEL 5
REMARK VINA RESULT:      -5.3      2.028      2.410
REMARK  5 active torsions:
REMARK  status: ('A' for Active; 'I' for Inactive)
REMARK    1  A    between atoms: O_1  and  C_2 
REMARK    2  A    between atoms: C_3  and  C_2 
REMARK    3  A    between atoms: C_12  and  O_13 
REMARK    4  A    between atoms: C_14  and  O_15 
REMARK    5  A    between atoms: C_16  and  O_17 
ROOT
HETATM    1  C   UNK N   1      35.486  14.618  10.645  0.00  0.00     0.180 C 
HETATM    2  O   UNK N   1      34.906  13.384  11.036  0.00  0.00    -0.340 OA
HETATM    3  C   UNK N   1      35.600  12.757  12.120  0.00  0.00     0.250 A 
HETATM    4  N   UNK N   1      34.936  13.037  13.381  0.00  0.00    -0.300 N 
HETATM    5  C   UNK N   1      34.431  11.896  13.883  0.00  0.00     0.325 A 
HETATM    6  O   UNK N   1      33.815  11.843  14.934  0.00  0.00    -0.247 OA
HETATM    7  N   UNK N   1      34.664  10.828  13.117  0.00  0.00    -0.275 N 
HETATM    8  C   UNK N   1      35.353  11.263  12.053  0.00  0.00     0.284 A 
HETATM    9  O   UNK N   1      35.723  10.525  11.155  0.00  0.00    -0.267 OA
HETATM   10  C   UNK N   1      37.114  13.100  12.205  0.00  0.00     0.215 C 
HETATM   11  C   UNK N   1      37.640  13.249  10.793  0.00  0.00     0.183 C 
HETATM   12  C   UNK N   1      36.944  14.454  10.146  0.00  0.00     0.180 C 
HETATM   13  H   UNK N   1      34.866  13.924  13.803  0.00  0.00     0.167 HD
HETATM   14  H   UNK N   1      34.384   9.902  13.298  0.00  0.00     0.173 HD
ENDROOT
BRANCH  10  15
HETATM   15  O   UNK N   1      37.828  12.141  12.931  0.00  0.00    -0.387 OA
HETATM   16  H   UNK N   1      38.067  12.206  13.869  0.00  0.00     0.210 HD
ENDBRANCH  10  15
BRANCH   1  17
HETATM   17  C   UNK N   1      35.277  15.702  11.705  0.00  0.00     0.198 C 
BRANCH  17  18
HETATM   18  O   UNK N   1      35.078  16.935  11.083  0.00  0.00    -0.398 OA
HETATM   19  H   UNK N   1      35.632  17.219  10.340  0.00  0.00     0.209 HD
ENDBRANCH  17  18
ENDBRANCH   1  17
BRANCH  11  20
HETATM   20  O   UNK N   1      39.029  13.398  10.764  0.00  0.00    -0.390 OA
HETATM   21  H   UNK N   1      39.598  13.009  10.082  0.00  0.00     0.210 HD
ENDBRANCH  11  20
BRANCH  12  22
HETATM   22  O   UNK N   1      37.665  15.637  10.350  0.00  0.00    -0.390 OA
HETATM   23  H   UNK N   1      37.702  16.461   9.840  0.00  0.00     0.210 HD
ENDBRANCH  12  22
TORSDOF 5
ENDMDL
MODEL 6
REMARK VINA RESULT:      -5.3      2.660      4.801
REMARK  5 active torsions:
REMARK  status: ('A' for Active; 'I' for Inactive)
REMARK    1  A    between atoms: O_1  and  C_2 
REMARK    2  A    between atoms: C_3  and  C_2 
REMARK    3  A    between atoms: C_12  and  O_13 
REMARK    4  A    between atoms: C_14  and  O_15 
REMARK    5  A    between atoms: C_16  and  O_17 
ROOT
HETATM    1  C   UNK N   1      34.338  14.909   7.247  0.00  0.00     0.180 C 
HETATM    2  O   UNK N   1      35.346  15.366   8.134  0.00  0.00    -0.340 OA
HETATM    3  C   UNK N   1      35.082  15.036   9.502  0.00  0.00     0.250 A 
HETATM    4  N   UNK N   1      35.810  13.840   9.889  0.00  0.00    -0.300 N 
HETATM    5  C   UNK N   1      36.736  14.160  10.810  0.00  0.00     0.325 A 
HETATM    6  O   UNK N   1      37.496  13.345  11.305  0.00  0.00    -0.247 OA
HETATM    7  N   UNK N   1      36.748  15.457  11.126  0.00  0.00    -0.275 N 
HETATM    8  C   UNK N   1      35.792  16.039  10.388  0.00  0.00     0.284 A 
HETATM    9  O   UNK N   1      35.546  17.233  10.443  0.00  0.00    -0.267 OA
HETATM   10  C   UNK N   1      33.574  14.902   9.856  0.00  0.00     0.215 C 
HETATM   11  C   UNK N   1      32.808  15.915   9.031  0.00  0.00     0.183 C 
HETATM   12  C   UNK N   1      32.955  15.539   7.551  0.00  0.00     0.180 C 
HETATM   13  H   UNK N   1      35.651  12.936   9.532  0.00  0.00     0.167 HD
HETATM   14  H   UNK N   1      37.342  15.900  11.774  0.00  0.00     0.173 HD
ENDROOT
BRANCH  10  15
HETATM   15  O   UNK N   1      33.341  15.060  11.227  0.00  0.00    -0.387 OA
HETATM   16  H   UNK N   1      33.869  15.607  11.829  0.00  0.00     0.210 HD
ENDBRANCH  10  15
BRANCH   1  17
HETATM   17  C   UNK N   1      34.346  13.384   7.118  0.00  0.00     0.198 C 
BRANCH  17  18
HETATM   18  O   UNK N   1      35.646  12.941   6.870  0.00  0.00    -0.398 OA
HETATM   19  H   UNK N   1      36.413  13.396   7.249  0.00  0.00     0.209 HD
ENDBRANCH  17  18
ENDBRANCH   1  17
BRANCH  11  20
HETATM   20  O   UNK N   1      31.462  15.981   9.400  0.00  0.00    -0.390 OA
HETATM   21  H   UNK N   1      31.157  16.047  10.318  0.00  0.00     0.210 HD
ENDBRANCH  11  20
BRANCH  12  22
HETATM   22  O   UNK N   1      31.928  14.685   7.131  0.00  0.00    -0.390 OA
HETATM   23  H   UNK N   1      30.965  14.802   7.109  0.00  0.00     0.210 HD
ENDBRANCH  12  22
TORSDOF 5
ENDMDL
MODEL 7
REMARK VINA RESULT:      -5.2     14.162     16.019
REMARK  5 active torsions:
REMARK  status: ('A' for Active; 'I' for Inactive)
REMARK    1  A    between atoms: O_1  and  C_2 
REMARK    2  A    between atoms: C_3  and  C_2 
REMARK    3  A    between atoms: C_12  and  O_13 
REMARK    4  A    between atoms: C_14  and  O_15 
REMARK    5  A    between atoms: C_16  and  O_17 
ROOT
HETATM    1  C   UNK N   1      44.187  21.125   2.799  0.00  0.00     0.180 C 
HETATM    2  O   UNK N   1      44.606  22.077   1.834  0.00  0.00    -0.340 OA
HETATM    3  C   UNK N   1      43.842  23.287   1.870  0.00  0.00     0.250 A 
HETATM    4  N   UNK N   1      44.540  24.310   2.631  0.00  0.00    -0.300 N 
HETATM    5  C   UNK N   1      44.897  25.311   1.808  0.00  0.00     0.325 A 
HETATM    6  O   UNK N   1      45.505  26.300   2.183  0.00  0.00    -0.247 OA
HETATM    7  N   UNK N   1      44.527  25.118   0.540  0.00  0.00    -0.275 N 
HETATM    8  C   UNK N   1      43.896  23.936   0.503  0.00  0.00     0.284 A 
HETATM    9  O   UNK N   1      43.432  23.463  -0.523  0.00  0.00    -0.267 OA
HETATM   10  C   UNK N   1      42.384  23.117   2.384  0.00  0.00     0.215 C 
HETATM   11  C   UNK N   1      41.877  21.770   1.915  0.00  0.00     0.183 C 
HETATM   12  C   UNK N   1      42.718  20.679   2.588  0.00  0.00     0.180 C 
HETATM   13  H   UNK N   1      44.724  24.274   3.598  0.00  0.00     0.167 HD
HETATM   14  H   UNK N   1      44.687  25.723  -0.219  0.00  0.00     0.173 HD
ENDROOT
BRANCH  10  15
HETATM   15  O   UNK N   1      41.556  24.164   1.965  0.00  0.00    -0.387 OA
HETATM   16  H   UNK N   1      40.590  24.189   2.054  0.00  0.00     0.210 HD
ENDBRANCH  10  15
BRANCH   1  17
HETATM   17  C   UNK N   1      44.536  21.571   4.222  0.00  0.00     0.198 C 
BRANCH  17  18
HETATM   18  O   UNK N   1      45.830  22.092   4.247  0.00  0.00    -0.398 OA
HETATM   19  H   UNK N   1      46.056  22.851   4.807  0.00  0.00     0.209 HD
ENDBRANCH  17  18
ENDBRANCH   1  17
BRANCH  11  20
HETATM   20  O   UNK N   1      40.518  21.596   2.190  0.00  0.00    -0.390 OA
HETATM   21  H   UNK N   1      39.946  20.977   1.711  0.00  0.00     0.210 HD
ENDBRANCH  11  20
BRANCH  12  22
HETATM   22  O   UNK N   1      42.155  20.268   3.803  0.00  0.00    -0.390 OA
HETATM   23  H   UNK N   1      42.473  19.654   4.483  0.00  0.00     0.210 HD
ENDBRANCH  12  22
TORSDOF 5
ENDMDL
MODEL 8
REMARK VINA RESULT:      -5.2      4.665      7.445
REMARK  5 active torsions:
REMARK  status: ('A' for Active; 'I' for Inactive)
REMARK    1  A    between atoms: O_1  and  C_2 
REMARK    2  A    between atoms: C_3  and  C_2 
REMARK    3  A    between atoms: C_12  and  O_13 
REMARK    4  A    between atoms: C_14  and  O_15 
REMARK    5  A    between atoms: C_16  and  O_17 
ROOT
HETATM    1  C   UNK N   1      33.890  15.655   9.431  0.00  0.00     0.180 C 
HETATM    2  O   UNK N   1      32.848  15.511   8.479  0.00  0.00    -0.340 OA
HETATM    3  C   UNK N   1      33.216  15.959   7.171  0.00  0.00     0.250 A 
HETATM    4  N   UNK N   1      33.618  14.836   6.341  0.00  0.00    -0.300 N 
HETATM    5  C   UNK N   1      32.731  14.679   5.343  0.00  0.00     0.325 A 
HETATM    6  O   UNK N   1      32.822  13.803   4.499  0.00  0.00    -0.247 OA
HETATM    7  N   UNK N   1      31.737  15.571   5.367  0.00  0.00    -0.275 N 
HETATM    8  C   UNK N   1      31.960  16.363   6.426  0.00  0.00     0.284 A 
HETATM    9  O   UNK N   1      31.224  17.288   6.729  0.00  0.00    -0.267 OA
HETATM   10  C   UNK N   1      34.298  17.076   7.149  0.00  0.00     0.215 C 
HETATM   11  C   UNK N   1      34.075  17.966   8.353  0.00  0.00     0.183 C 
HETATM   12  C   UNK N   1      34.318  17.133   9.618  0.00  0.00     0.180 C 
HETATM   13  H   UNK N   1      34.415  14.277   6.487  0.00  0.00     0.167 HD
HETATM   14  H   UNK N   1      30.988  15.635   4.732  0.00  0.00     0.173 HD
ENDROOT
BRANCH  10  15
HETATM   15  O   UNK N   1      34.279  17.800   5.952  0.00  0.00    -0.387 OA
HETATM   16  H   UNK N   1      33.694  18.547   5.753  0.00  0.00     0.210 HD
ENDBRANCH  10  15
BRANCH   1  17
HETATM   17  C   UNK N   1      35.034  14.673   9.169  0.00  0.00     0.198 C 
BRANCH  17  18
HETATM   18  O   UNK N   1      35.638  14.321  10.377  0.00  0.00    -0.398 OA
HETATM   19  H   UNK N   1      35.825  13.395  10.595  0.00  0.00     0.209 HD
ENDBRANCH  17  18
ENDBRANCH   1  17
BRANCH  11  20
HETATM   20  O   UNK N   1      34.899  19.094   8.331  0.00  0.00    -0.390 OA
HETATM   21  H   UNK N   1      35.838  19.071   8.091  0.00  0.00     0.210 HD
ENDBRANCH  11  20
BRANCH  12  22
HETATM   22  O   UNK N   1      35.653  17.204  10.035  0.00  0.00    -0.390 OA
HETATM   23  H   UNK N   1      36.270  17.951  10.086  0.00  0.00     0.210 HD
ENDBRANCH  12  22
TORSDOF 5
ENDMDL
MODEL 9
REMARK VINA RESULT:      -5.1     16.672     18.624
REMARK  5 active torsions:
REMARK  status: ('A' for Active; 'I' for Inactive)
REMARK    1  A    between atoms: O_1  and  C_2 
REMARK    2  A    between atoms: C_3  and  C_2 
REMARK    3  A    between atoms: C_12  and  O_13 
REMARK    4  A    between atoms: C_14  and  O_15 
REMARK    5  A    between atoms: C_16  and  O_17 
ROOT
HETATM    1  C   UNK N   1      19.404  16.183   5.056  0.00  0.00     0.180 C 
HETATM    2  O   UNK N   1      19.133  17.139   4.044  0.00  0.00    -0.340 OA
HETATM    3  C   UNK N   1      20.305  17.551   3.332  0.00  0.00     0.250 A 
HETATM    4  N   UNK N   1      20.428  16.819   2.083  0.00  0.00    -0.300 N 
HETATM    5  C   UNK N   1      20.280  17.669   1.052  0.00  0.00     0.325 A 
HETATM    6  O   UNK N   1      20.330  17.319  -0.115  0.00  0.00    -0.247 OA
HETATM    7  N   UNK N   1      20.066  18.932   1.428  0.00  0.00    -0.275 N 
HETATM    8  C   UNK N   1      20.068  18.937   2.769  0.00  0.00     0.284 A 
HETATM    9  O   UNK N   1      19.896  19.949   3.428  0.00  0.00    -0.267 OA
HETATM   10  C   UNK N   1      21.624  17.467   4.153  0.00  0.00     0.215 C 
HETATM   11  C   UNK N   1      21.302  17.811   5.591  0.00  0.00     0.183 C 
HETATM   12  C   UNK N   1      20.362  16.732   6.145  0.00  0.00     0.180 C 
HETATM   13  H   UNK N   1      20.594  15.851   2.005  0.00  0.00     0.167 HD
HETATM   14  H   UNK N   1      19.932  19.707   0.837  0.00  0.00     0.173 HD
ENDROOT
BRANCH  10  15
HETATM   15  O   UNK N   1      22.621  18.296   3.627  0.00  0.00    -0.387 OA
HETATM   16  H   UNK N   1      22.704  18.558   2.697  0.00  0.00     0.210 HD
ENDBRANCH  10  15
BRANCH   1  17
HETATM   17  C   UNK N   1      19.798  14.828   4.464  0.00  0.00     0.198 C 
BRANCH  17  18
HETATM   18  O   UNK N   1      19.255  13.802   5.238  0.00  0.00    -0.398 OA
HETATM   19  H   UNK N   1      19.506  13.685   6.167  0.00  0.00     0.209 HD
ENDBRANCH  17  18
ENDBRANCH   1  17
BRANCH  11  20
HETATM   20  O   UNK N   1      22.454  17.921   6.375  0.00  0.00    -0.390 OA
HETATM   21  H   UNK N   1      22.452  18.221   7.297  0.00  0.00     0.210 HD
ENDBRANCH  11  20
BRANCH  12  22
HETATM   22  O   UNK N   1      21.074  15.683   6.741  0.00  0.00    -0.390 OA
HETATM   23  H   UNK N   1      20.859  15.109   7.492  0.00  0.00     0.210 HD
ENDBRANCH  12  22
TORSDOF 5
ENDMDL
