MODEL 1
REMARK VINA RESULT:      -8.1      0.000      0.000
REMARK  23 active torsions:
REMARK  status: ('A' for Active; 'I' for Inactive)
REMARK    1  A    between atoms: C_10  and  C_4 
REMARK    2  A    between atoms: O_45  and  C_4 
REMARK    3  A    between atoms: C_11  and  C_5 
REMARK    4  A    between atoms: O_46  and  C_5 
REMARK    5  A    between atoms: C_8  and  C_18 
REMARK    6  A    between atoms: C_13  and  O_34 
REMARK    7  A    between atoms: C_14  and  O_35 
REMARK    8  A    between atoms: C_15  and  O_36 
REMARK    9  A    between atoms: C_16  and  O_49 
REMARK   10  A    between atoms: N_22  and  C_17 
REMARK   11  A    between atoms: N_23  and  C_18 
REMARK   12  A    between atoms: O_37  and  C_18 
REMARK   13  A    between atoms: C_20  and  N_31 
REMARK   14  A    between atoms: C_21  and  N_32 
REMARK   15  A    between atoms: P_51  and  O_39 
REMARK   16  A    between atoms: P_51  and  O_40 
REMARK   17  A    between atoms: P_52  and  O_41 
REMARK   18  A    between atoms: P_53  and  O_44 
REMARK   19  A    between atoms: P_52  and  O_45 
REMARK   20  A    between atoms: P_53  and  O_46 
REMARK   21  A    between atoms: P_51  and  O_49 
REMARK   22  A    between atoms: P_52  and  O_50 
REMARK   23  A    between atoms: P_53  and  O_50 
ROOT
HETATM    1  O   UNK N   1      35.034  14.415   9.402  0.00  0.00    -0.631 OA
HETATM    2  P   UNK N   1      34.418  15.368  10.466  0.00  0.00     0.401 P 
ENDROOT
BRANCH   2   3
HETATM    3  O   UNK N   1      32.703  15.335  10.216  0.00  0.00    -0.307 OA
HETATM    4  H   UNK N   1      32.026  15.966  10.504  0.00  0.00     0.222 HD
ENDBRANCH   2   3
BRANCH   2   5
HETATM    5  O   UNK N   1      34.795  14.840  12.084  0.00  0.00    -0.294 OA
BRANCH   5   6
HETATM    6  C   UNK N   1      36.118  14.383  12.123  0.00  0.00     0.215 C 
BRANCH   6   7
HETATM    7  C   UNK N   1      36.213  13.110  12.957  0.00  0.00     0.180 C 
HETATM    8  C   UNK N   1      35.734  11.883  12.195  0.00  0.00     0.183 C 
HETATM    9  C   UNK N   1      35.579  10.936  13.360  0.00  0.00     0.214 C 
HETATM   10  C   UNK N   1      34.864  11.906  14.317  0.00  0.00     0.263 C 
HETATM   11  O   UNK N   1      35.415  13.202  14.118  0.00  0.00    -0.353 OA
BRANCH   8  12
HETATM   12  O   UNK N   1      34.489  12.155  11.605  0.00  0.00    -0.390 OA
HETATM   13  H   UNK N   1      33.696  12.524  11.187  0.00  0.00     0.210 HD
ENDBRANCH   8  12
BRANCH   9  14
HETATM   14  O   UNK N   1      34.775   9.784  13.155  0.00  0.00    -0.284 OA
BRANCH  14  15
HETATM   15  P   UNK N   1      35.372   8.691  11.917  0.00  0.00     0.391 P 
HETATM   16  O   UNK N   1      34.772   9.125  10.552  0.00  0.00    -0.632 OA
BRANCH  15  17
HETATM   17  O   UNK N   1      34.753   7.095  12.197  0.00  0.00    -0.307 OA
HETATM   18  H   UNK N   1      33.855   6.937  12.529  0.00  0.00     0.222 HD
ENDBRANCH  15  17
BRANCH  15  19
HETATM   19  O   UNK N   1      37.100   8.654  11.755  0.00  0.00    -0.307 OA
HETATM   20  H   UNK N   1      37.985   8.583  12.147  0.00  0.00     0.222 HD
ENDBRANCH  15  19
ENDBRANCH  14  15
ENDBRANCH   9  14
BRANCH  10  21
HETATM   21  N   UNK N   1      34.939  11.525  15.731  0.00  0.00    -0.297 N 
HETATM   22  C   UNK N   1      34.935  10.252  16.210  0.00  0.00     0.188 A 
HETATM   23  N   UNK N   1      35.089  10.227  17.563  0.00  0.00    -0.346 N 
HETATM   24  C   UNK N   1      35.179  11.523  17.911  0.00  0.00     0.122 A 
ATOM     25  HN  UNK N   1      35.126   9.412  18.175  1.00  0.00     0.167 HD
HETATM   26  C   UNK N   1      35.347  12.096  19.160  0.00  0.00     0.131 A 
HETATM   27  C   UNK N   1      35.088  12.300  16.815  0.00  0.00     0.142 A 
HETATM   28  N   UNK N   1      35.394  13.460  19.237  0.00  0.00    -0.337 N 
HETATM   29  C   UNK N   1      35.290  14.236  18.107  0.00  0.00     0.183 A 
ATOM     30  HN  UNK N   1      35.509  13.909  20.146  1.00  0.00     0.168 HD
HETATM   31  N   UNK N   1      35.145  13.653  16.877  0.00  0.00    -0.336 N 
ATOM     32  HN  UNK N   1      35.082  14.221  16.032  1.00  0.00     0.168 HD
BRANCH  26  33
HETATM   33  N   UNK N   1      35.468  11.306  20.319  0.00  0.00    -0.383 N 
HETATM   34  H   UNK N   1      36.219  10.689  20.480  0.00  0.00     0.157 HD
HETATM   35  H   UNK N   1      34.764  11.372  21.005  0.00  0.00     0.157 HD
ENDBRANCH  26  33
ENDBRANCH  10  21
ENDBRANCH   6   7
ENDBRANCH   5   6
ENDBRANCH   2   5
BRANCH   2  36
HETATM   36  O   UNK N   1      35.025  16.978  10.202  0.00  0.00    -0.195 OA
BRANCH  36  37
HETATM   37  P   UNK N   1      34.330  17.532   8.701  0.00  0.00     0.401 P 
HETATM   38  O   UNK N   1      35.010  18.895   8.405  0.00  0.00    -0.631 OA
BRANCH  37  39
HETATM   39  O   UNK N   1      34.679  16.548   7.310  0.00  0.00    -0.307 OA
HETATM   40  H   UNK N   1      35.255  16.326   6.562  0.00  0.00     0.222 HD
ENDBRANCH  37  39
BRANCH  37  41
HETATM   41  O   UNK N   1      32.646  17.891   8.876  0.00  0.00    -0.294 OA
BRANCH  41  42
HETATM   42  C   UNK N   1      32.019  17.475   7.694  0.00  0.00     0.215 C 
BRANCH  42  43
HETATM   43  C   UNK N   1      30.585  17.917   7.779  0.00  0.00     0.180 C 
HETATM   44  C   UNK N   1      29.957  18.047   9.144  0.00  0.00     0.182 C 
HETATM   45  C   UNK N   1      28.534  18.289   8.661  0.00  0.00     0.198 C 
HETATM   46  C   UNK N   1      28.460  17.398   7.391  0.00  0.00     0.258 C 
HETATM   47  O   UNK N   1      29.781  16.978   7.124  0.00  0.00    -0.354 OA
BRANCH  44  48
HETATM   48  O   UNK N   1      30.056  16.829   9.826  0.00  0.00    -0.390 OA
HETATM   49  H   UNK N   1      29.606  16.359  10.545  0.00  0.00     0.210 HD
ENDBRANCH  44  48
BRANCH  45  50
HETATM   50  O   UNK N   1      27.572  17.977   9.627  0.00  0.00    -0.388 OA
HETATM   51  H   UNK N   1      27.524  18.377  10.508  0.00  0.00     0.210 HD
ENDBRANCH  45  50
BRANCH  46  52
HETATM   52  N   UNK N   1      27.970  18.127   6.220  0.00  0.00    -0.340 N 
HETATM   53  C   UNK N   1      27.811  19.551   6.325  0.00  0.00     0.096 A 
HETATM   54  C   UNK N   1      27.348  20.302   5.336  0.00  0.00     0.068 A 
HETATM   55  C   UNK N   1      27.010  19.685   4.062  0.00  0.00     0.167 A 
HETATM   56  C   UNK N   1      27.187  18.194   3.863  0.00  0.00     0.172 A 
HETATM   57  O   UNK N   1      26.617  20.392   3.148  0.00  0.00    -0.292 OA
HETATM   58  C   UNK N   1      27.696  17.497   5.120  0.00  0.00     0.087 A 
BRANCH  56  59
HETATM   59  C   UNK N   1      25.897  17.567   3.389  0.00  0.00     0.126 C 
BRANCH  59  60
HETATM   60  N   UNK N   1      24.773  18.098   3.709  0.00  0.00    -0.383 N 
HETATM   61  H   UNK N   1      24.715  18.971   4.159  0.00  0.00     0.158 HD
ATOM     62  HN  UNK N   1      23.912  17.599   3.488  1.00  0.00     0.158 HD
ENDBRANCH  59  60
BRANCH  59  63
HETATM   63  O   UNK N   1      25.908  16.471   2.604  0.00  0.00    -0.349 OA
HETATM   64  H   UNK N   1      25.640  15.615   2.873  0.00  0.00     0.219 HD
ENDBRANCH  59  63
ENDBRANCH  56  59
ENDBRANCH  46  52
ENDBRANCH  42  43
ENDBRANCH  41  42
ENDBRANCH  37  41
ENDBRANCH  36  37
ENDBRANCH   2  36
TORSDOF 23
ENDMDL
MODEL 2
REMARK VINA RESULT:      -8.0      7.610     10.433
REMARK  23 active torsions:
REMARK  status: ('A' for Active; 'I' for Inactive)
REMARK    1  A    between atoms: C_10  and  C_4 
REMARK    2  A    between atoms: O_45  and  C_4 
REMARK    3  A    between atoms: C_11  and  C_5 
REMARK    4  A    between atoms: O_46  and  C_5 
REMARK    5  A    between atoms: C_8  and  C_18 
REMARK    6  A    between atoms: C_13  and  O_34 
REMARK    7  A    between atoms: C_14  and  O_35 
REMARK    8  A    between atoms: C_15  and  O_36 
REMARK    9  A    between atoms: C_16  and  O_49 
REMARK   10  A    between atoms: N_22  and  C_17 
REMARK   11  A    between atoms: N_23  and  C_18 
REMARK   12  A    between atoms: O_37  and  C_18 
REMARK   13  A    between atoms: C_20  and  N_31 
REMARK   14  A    between atoms: C_21  and  N_32 
REMARK   15  A    between atoms: P_51  and  O_39 
REMARK   16  A    between atoms: P_51  and  O_40 
REMARK   17  A    between atoms: P_52  and  O_41 
REMARK   18  A    between atoms: P_53  and  O_44 
REMARK   19  A    between atoms: P_52  and  O_45 
REMARK   20  A    between atoms: P_53  and  O_46 
REMARK   21  A    between atoms: P_51  and  O_49 
REMARK   22  A    between atoms: P_52  and  O_50 
REMARK   23  A    between atoms: P_53  and  O_50 
ROOT
HETATM    1  O   UNK N   1      28.737  11.242   4.922  0.00  0.00    -0.631 OA
HETATM    2  P   UNK N   1      28.713  12.663   4.291  0.00  0.00     0.401 P 
ENDROOT
BRANCH   2   3
HETATM    3  O   UNK N   1      27.493  13.554   5.142  0.00  0.00    -0.307 OA
HETATM    4  H   UNK N   1      26.706  14.004   4.799  0.00  0.00     0.222 HD
ENDBRANCH   2   3
BRANCH   2   5
HETATM    5  O   UNK N   1      30.256  13.457   4.456  0.00  0.00    -0.294 OA
BRANCH   5   6
HETATM    6  C   UNK N   1      30.275  14.600   3.648  0.00  0.00     0.215 C 
BRANCH   6   7
HETATM    7  C   UNK N   1      30.371  15.854   4.511  0.00  0.00     0.180 C 
HETATM    8  C   UNK N   1      31.628  15.869   5.370  0.00  0.00     0.183 C 
HETATM    9  C   UNK N   1      31.232  16.961   6.334  0.00  0.00     0.214 C 
HETATM   10  C   UNK N   1      29.795  16.481   6.607  0.00  0.00     0.263 C 
HETATM   11  O   UNK N   1      29.275  15.948   5.395  0.00  0.00    -0.353 OA
BRANCH   8  12
HETATM   12  O   UNK N   1      31.754  14.639   6.036  0.00  0.00    -0.390 OA
HETATM   13  H   UNK N   1      32.028  13.806   6.449  0.00  0.00     0.210 HD
ENDBRANCH   8  12
BRANCH   9  14
HETATM   14  O   UNK N   1      31.952  17.039   7.556  0.00  0.00    -0.284 OA
BRANCH  14  15
HETATM   15  P   UNK N   1      33.639  17.493   7.378  0.00  0.00     0.391 P 
HETATM   16  O   UNK N   1      34.518  16.313   7.873  0.00  0.00    -0.632 OA
BRANCH  15  17
HETATM   17  O   UNK N   1      34.005  18.811   8.444  0.00  0.00    -0.307 OA
HETATM   18  H   UNK N   1      34.876  19.238   8.462  0.00  0.00     0.222 HD
ENDBRANCH  15  17
BRANCH  15  19
HETATM   19  O   UNK N   1      34.119  17.874   5.753  0.00  0.00    -0.307 OA
HETATM   20  H   UNK N   1      33.917  17.953   4.807  0.00  0.00     0.222 HD
ENDBRANCH  15  19
ENDBRANCH  14  15
ENDBRANCH   9  14
BRANCH  10  21
HETATM   21  N   UNK N   1      28.904  17.516   7.140  0.00  0.00    -0.297 N 
HETATM   22  C   UNK N   1      28.496  17.623   8.433  0.00  0.00     0.188 A 
HETATM   23  N   UNK N   1      27.729  18.732   8.625  0.00  0.00    -0.346 N 
HETATM   24  C   UNK N   1      27.665  19.306   7.411  0.00  0.00     0.122 A 
ATOM     25  HN  UNK N   1      27.300  19.054   9.492  1.00  0.00     0.167 HD
HETATM   26  C   UNK N   1      27.020  20.463   7.010  0.00  0.00     0.131 A 
HETATM   27  C   UNK N   1      28.367  18.578   6.521  0.00  0.00     0.142 A 
HETATM   28  N   UNK N   1      27.105  20.821   5.694  0.00  0.00    -0.337 N 
HETATM   29  C   UNK N   1      27.819  20.059   4.800  0.00  0.00     0.183 A 
ATOM     30  HN  UNK N   1      26.632  21.665   5.370  1.00  0.00     0.168 HD
HETATM   31  N   UNK N   1      28.468  18.928   5.215  0.00  0.00    -0.336 N 
ATOM     32  HN  UNK N   1      29.012  18.366   4.562  1.00  0.00     0.168 HD
BRANCH  26  33
HETATM   33  N   UNK N   1      26.299  21.255   7.926  0.00  0.00    -0.383 N 
HETATM   34  H   UNK N   1      26.661  21.547   8.794  0.00  0.00     0.157 HD
HETATM   35  H   UNK N   1      25.385  21.531   7.685  0.00  0.00     0.157 HD
ENDBRANCH  26  33
ENDBRANCH  10  21
ENDBRANCH   6   7
ENDBRANCH   5   6
ENDBRANCH   2   5
BRANCH   2  36
HETATM   36  O   UNK N   1      28.283  12.527   2.609  0.00  0.00    -0.195 OA
BRANCH  36  37
HETATM   37  P   UNK N   1      26.545  12.652   2.528  0.00  0.00     0.401 P 
HETATM   38  O   UNK N   1      26.141  11.992   1.183  0.00  0.00    -0.631 OA
BRANCH  37  39
HETATM   39  O   UNK N   1      25.676  11.760   3.741  0.00  0.00    -0.307 OA
HETATM   40  H   UNK N   1      24.846  11.388   4.076  0.00  0.00     0.222 HD
ENDBRANCH  37  39
BRANCH  37  41
HETATM   41  O   UNK N   1      26.033  14.301   2.397  0.00  0.00    -0.294 OA
BRANCH  41  42
HETATM   42  C   UNK N   1      24.659  14.320   2.671  0.00  0.00     0.215 C 
BRANCH  42  43
HETATM   43  C   UNK N   1      24.333  15.696   3.181  0.00  0.00     0.180 C 
HETATM   44  C   UNK N   1      25.449  16.524   3.768  0.00  0.00     0.182 C 
HETATM   45  C   UNK N   1      24.574  17.653   4.293  0.00  0.00     0.198 C 
HETATM   46  C   UNK N   1      23.288  16.899   4.731  0.00  0.00     0.258 C 
HETATM   47  O   UNK N   1      23.408  15.585   4.225  0.00  0.00    -0.354 OA
BRANCH  44  48
HETATM   48  O   UNK N   1      26.051  15.824   4.819  0.00  0.00    -0.390 OA
HETATM   49  H   UNK N   1      26.014  15.793   5.788  0.00  0.00     0.210 HD
ENDBRANCH  44  48
BRANCH  45  50
HETATM   50  O   UNK N   1      25.181  18.377   5.323  0.00  0.00    -0.388 OA
HETATM   51  H   UNK N   1      26.138  18.432   5.471  0.00  0.00     0.210 HD
ENDBRANCH  45  50
BRANCH  46  52
HETATM   52  N   UNK N   1      22.071  17.490   4.171  0.00  0.00    -0.340 N 
HETATM   53  C   UNK N   1      21.024  16.606   3.740  0.00  0.00     0.096 A 
HETATM   54  C   UNK N   1      19.895  17.034   3.194  0.00  0.00     0.068 A 
HETATM   55  C   UNK N   1      19.666  18.463   3.041  0.00  0.00     0.167 A 
HETATM   56  C   UNK N   1      20.709  19.459   3.506  0.00  0.00     0.172 A 
HETATM   57  O   UNK N   1      18.609  18.846   2.567  0.00  0.00    -0.292 OA
HETATM   58  C   UNK N   1      21.949  18.777   4.075  0.00  0.00     0.087 A 
BRANCH  56  59
HETATM   59  C   UNK N   1      21.082  20.397   2.382  0.00  0.00     0.126 C 
BRANCH  59  60
HETATM   60  N   UNK N   1      20.721  20.129   1.180  0.00  0.00    -0.383 N 
HETATM   61  H   UNK N   1      20.111  19.387   0.969  0.00  0.00     0.158 HD
ATOM     62  HN  UNK N   1      21.077  20.708   0.419  1.00  0.00     0.158 HD
ENDBRANCH  59  60
BRANCH  59  63
HETATM   63  O   UNK N   1      21.764  21.533   2.629  0.00  0.00    -0.349 OA
HETATM   64  H   UNK N   1      21.466  22.230   3.178  0.00  0.00     0.219 HD
ENDBRANCH  59  63
ENDBRANCH  56  59
ENDBRANCH  46  52
ENDBRANCH  42  43
ENDBRANCH  41  42
ENDBRANCH  37  41
ENDBRANCH  36  37
ENDBRANCH   2  36
TORSDOF 23
ENDMDL
MODEL 3
REMARK VINA RESULT:      -8.0      7.249     11.092
REMARK  23 active torsions:
REMARK  status: ('A' for Active; 'I' for Inactive)
REMARK    1  A    between atoms: C_10  and  C_4 
REMARK    2  A    between atoms: O_45  and  C_4 
REMARK    3  A    between atoms: C_11  and  C_5 
REMARK    4  A    between atoms: O_46  and  C_5 
REMARK    5  A    between atoms: C_8  and  C_18 
REMARK    6  A    between atoms: C_13  and  O_34 
REMARK    7  A    between atoms: C_14  and  O_35 
REMARK    8  A    between atoms: C_15  and  O_36 
REMARK    9  A    between atoms: C_16  and  O_49 
REMARK   10  A    between atoms: N_22  and  C_17 
REMARK   11  A    between atoms: N_23  and  C_18 
REMARK   12  A    between atoms: O_37  and  C_18 
REMARK   13  A    between atoms: C_20  and  N_31 
REMARK   14  A    between atoms: C_21  and  N_32 
REMARK   15  A    between atoms: P_51  and  O_39 
REMARK   16  A    between atoms: P_51  and  O_40 
REMARK   17  A    between atoms: P_52  and  O_41 
REMARK   18  A    between atoms: P_53  and  O_44 
REMARK   19  A    between atoms: P_52  and  O_45 
REMARK   20  A    between atoms: P_53  and  O_46 
REMARK   21  A    between atoms: P_51  and  O_49 
REMARK   22  A    between atoms: P_52  and  O_50 
REMARK   23  A    between atoms: P_53  and  O_50 
ROOT
HETATM    1  O   UNK N   1      27.791  12.088   4.457  0.00  0.00    -0.631 OA
HETATM    2  P   UNK N   1      27.868  13.322   3.513  0.00  0.00     0.401 P 
ENDROOT
BRANCH   2   3
HETATM    3  O   UNK N   1      26.860  14.541   4.222  0.00  0.00    -0.307 OA
HETATM    4  H   UNK N   1      26.925  15.507   4.160  0.00  0.00     0.222 HD
ENDBRANCH   2   3
BRANCH   2   5
HETATM    5  O   UNK N   1      29.503  13.909   3.368  0.00  0.00    -0.294 OA
BRANCH   5   6
HETATM    6  C   UNK N   1      30.094  13.942   4.637  0.00  0.00     0.215 C 
BRANCH   6   7
HETATM    7  C   UNK N   1      30.225  15.382   5.120  0.00  0.00     0.180 C 
HETATM    8  C   UNK N   1      31.501  15.610   5.919  0.00  0.00     0.183 C 
HETATM    9  C   UNK N   1      31.140  16.931   6.553  0.00  0.00     0.214 C 
HETATM   10  C   UNK N   1      29.705  16.570   6.975  0.00  0.00     0.263 C 
HETATM   11  O   UNK N   1      29.151  15.734   5.965  0.00  0.00    -0.353 OA
BRANCH   8  12
HETATM   12  O   UNK N   1      31.628  14.607   6.893  0.00  0.00    -0.390 OA
HETATM   13  H   UNK N   1      31.609  13.810   7.444  0.00  0.00     0.210 HD
ENDBRANCH   8  12
BRANCH   9  14
HETATM   14  O   UNK N   1      31.890  17.328   7.693  0.00  0.00    -0.284 OA
BRANCH  14  15
HETATM   15  P   UNK N   1      33.618  17.469   7.414  0.00  0.00     0.391 P 
HETATM   16  O   UNK N   1      34.283  16.114   7.779  0.00  0.00    -0.632 OA
BRANCH  15  17
HETATM   17  O   UNK N   1      34.296  18.621   8.519  0.00  0.00    -0.307 OA
HETATM   18  H   UNK N   1      33.764  19.065   9.197  0.00  0.00     0.222 HD
ENDBRANCH  15  17
BRANCH  15  19
HETATM   19  O   UNK N   1      34.059  17.860   5.781  0.00  0.00    -0.307 OA
HETATM   20  H   UNK N   1      34.352  18.501   5.114  0.00  0.00     0.222 HD
ENDBRANCH  15  19
ENDBRANCH  14  15
ENDBRANCH   9  14
BRANCH  10  21
HETATM   21  N   UNK N   1      28.838  17.727   7.220  0.00  0.00    -0.297 N 
HETATM   22  C   UNK N   1      28.430  18.168   8.440  0.00  0.00     0.188 A 
HETATM   23  N   UNK N   1      27.691  19.307   8.338  0.00  0.00    -0.346 N 
HETATM   24  C   UNK N   1      27.644  19.556   7.018  0.00  0.00     0.122 A 
ATOM     25  HN  UNK N   1      27.268  19.848   9.092  1.00  0.00     0.167 HD
HETATM   26  C   UNK N   1      27.029  20.588   6.332  0.00  0.00     0.131 A 
HETATM   27  C   UNK N   1      28.330  18.609   6.348  0.00  0.00     0.142 A 
HETATM   28  N   UNK N   1      27.125  20.598   4.968  0.00  0.00    -0.337 N 
HETATM   29  C   UNK N   1      27.822  19.617   4.303  0.00  0.00     0.183 A 
ATOM     30  HN  UNK N   1      26.674  21.343   4.437  1.00  0.00     0.168 HD
HETATM   31  N   UNK N   1      28.442  18.614   4.997  0.00  0.00    -0.336 N 
ATOM     32  HN  UNK N   1      28.973  17.891   4.512  1.00  0.00     0.168 HD
BRANCH  26  33
HETATM   33  N   UNK N   1      26.326  21.603   7.010  0.00  0.00    -0.383 N 
HETATM   34  H   UNK N   1      25.345  21.690   6.992  0.00  0.00     0.157 HD
HETATM   35  H   UNK N   1      26.843  22.261   7.530  0.00  0.00     0.157 HD
ENDBRANCH  26  33
ENDBRANCH  10  21
ENDBRANCH   6   7
ENDBRANCH   5   6
ENDBRANCH   2   5
BRANCH   2  36
HETATM   36  O   UNK N   1      27.248  12.875   1.948  0.00  0.00    -0.195 OA
BRANCH  36  37
HETATM   37  P   UNK N   1      25.652  12.223   2.212  0.00  0.00     0.401 P 
HETATM   38  O   UNK N   1      25.126  11.826   0.808  0.00  0.00    -0.631 OA
BRANCH  37  39
HETATM   39  O   UNK N   1      25.592  10.755   3.143  0.00  0.00    -0.307 OA
HETATM   40  H   UNK N   1      26.025  10.112   3.725  0.00  0.00     0.222 HD
ENDBRANCH  37  39
BRANCH  37  41
HETATM   41  O   UNK N   1      24.557  13.436   2.783  0.00  0.00    -0.294 OA
BRANCH  41  42
HETATM   42  C   UNK N   1      23.596  12.779   3.562  0.00  0.00     0.215 C 
BRANCH  42  43
HETATM   43  C   UNK N   1      23.280  13.681   4.722  0.00  0.00     0.180 C 
HETATM   44  C   UNK N   1      23.035  15.143   4.444  0.00  0.00     0.182 C 
HETATM   45  C   UNK N   1      22.988  15.593   5.897  0.00  0.00     0.198 C 
HETATM   46  C   UNK N   1      24.037  14.664   6.566  0.00  0.00     0.258 C 
HETATM   47  O   UNK N   1      24.365  13.681   5.606  0.00  0.00    -0.354 OA
BRANCH  44  48
HETATM   48  O   UNK N   1      24.142  15.689   3.785  0.00  0.00    -0.390 OA
HETATM   49  H   UNK N   1      24.578  16.550   3.684  0.00  0.00     0.210 HD
ENDBRANCH  44  48
BRANCH  45  50
HETATM   50  O   UNK N   1      23.261  16.956   6.053  0.00  0.00    -0.388 OA
HETATM   51  H   UNK N   1      24.149  17.345   6.062  0.00  0.00     0.210 HD
ENDBRANCH  45  50
BRANCH  46  52
HETATM   52  N   UNK N   1      23.511  13.982   7.750  0.00  0.00    -0.340 N 
HETATM   53  C   UNK N   1      22.156  14.252   8.142  0.00  0.00     0.096 A 
HETATM   54  C   UNK N   1      21.591  13.712   9.213  0.00  0.00     0.068 A 
HETATM   55  C   UNK N   1      22.347  12.772  10.028  0.00  0.00     0.167 A 
HETATM   56  C   UNK N   1      23.770  12.409   9.656  0.00  0.00     0.172 A 
HETATM   57  O   UNK N   1      21.805  12.256  10.992  0.00  0.00    -0.292 OA
HETATM   58  C   UNK N   1      24.255  13.155   8.417  0.00  0.00     0.087 A 
BRANCH  56  59
HETATM   59  C   UNK N   1      24.699  12.650  10.823  0.00  0.00     0.126 C 
BRANCH  59  60
HETATM   60  N   UNK N   1      25.718  13.417  10.680  0.00  0.00    -0.383 N 
HETATM   61  H   UNK N   1      25.909  13.884   9.835  0.00  0.00     0.158 HD
ATOM     62  HN  UNK N   1      26.351  13.546  11.469  1.00  0.00     0.158 HD
ENDBRANCH  59  60
BRANCH  59  63
HETATM   63  O   UNK N   1      24.454  12.096  12.027  0.00  0.00    -0.349 OA
HETATM   64  H   UNK N   1      24.124  11.231  12.163  0.00  0.00     0.219 HD
ENDBRANCH  59  63
ENDBRANCH  56  59
ENDBRANCH  46  52
ENDBRANCH  42  43
ENDBRANCH  41  42
ENDBRANCH  37  41
ENDBRANCH  36  37
ENDBRANCH   2  36
TORSDOF 23
ENDMDL
MODEL 4
REMARK VINA RESULT:      -7.9      9.209     11.480
REMARK  23 active torsions:
REMARK  status: ('A' for Active; 'I' for Inactive)
REMARK    1  A    between atoms: C_10  and  C_4 
REMARK    2  A    between atoms: O_45  and  C_4 
REMARK    3  A    between atoms: C_11  and  C_5 
REMARK    4  A    between atoms: O_46  and  C_5 
REMARK    5  A    between atoms: C_8  and  C_18 
REMARK    6  A    between atoms: C_13  and  O_34 
REMARK    7  A    between atoms: C_14  and  O_35 
REMARK    8  A    between atoms: C_15  and  O_36 
REMARK    9  A    between atoms: C_16  and  O_49 
REMARK   10  A    between atoms: N_22  and  C_17 
REMARK   11  A    between atoms: N_23  and  C_18 
REMARK   12  A    between atoms: O_37  and  C_18 
REMARK   13  A    between atoms: C_20  and  N_31 
REMARK   14  A    between atoms: C_21  and  N_32 
REMARK   15  A    between atoms: P_51  and  O_39 
REMARK   16  A    between atoms: P_51  and  O_40 
REMARK   17  A    between atoms: P_52  and  O_41 
REMARK   18  A    between atoms: P_53  and  O_44 
REMARK   19  A    between atoms: P_52  and  O_45 
REMARK   20  A    between atoms: P_53  and  O_46 
REMARK   21  A    between atoms: P_51  and  O_49 
REMARK   22  A    between atoms: P_52  and  O_50 
REMARK   23  A    between atoms: P_53  and  O_50 
ROOT
HETATM    1  O   UNK N   1      28.063  17.285   3.914  0.00  0.00    -0.631 OA
HETATM    2  P   UNK N   1      26.943  17.180   4.988  0.00  0.00     0.401 P 
ENDROOT
BRANCH   2   3
HETATM    3  O   UNK N   1      25.449  17.023   4.120  0.00  0.00    -0.307 OA
HETATM    4  H   UNK N   1      24.668  16.489   4.330  0.00  0.00     0.222 HD
ENDBRANCH   2   3
BRANCH   2   5
HETATM    5  O   UNK N   1      27.181  15.796   6.020  0.00  0.00    -0.294 OA
BRANCH   5   6
HETATM    6  C   UNK N   1      27.012  14.626   5.269  0.00  0.00     0.215 C 
BRANCH   6   7
HETATM    7  C   UNK N   1      26.133  13.636   6.025  0.00  0.00     0.180 C 
HETATM    8  C   UNK N   1      24.801  13.397   5.327  0.00  0.00     0.183 C 
HETATM    9  C   UNK N   1      24.061  12.741   6.466  0.00  0.00     0.214 C 
HETATM   10  C   UNK N   1      24.488  13.717   7.577  0.00  0.00     0.263 C 
HETATM   11  O   UNK N   1      25.832  14.109   7.319  0.00  0.00    -0.353 OA
BRANCH   8  12
HETATM   12  O   UNK N   1      24.217  14.631   4.998  0.00  0.00    -0.390 OA
HETATM   13  H   UNK N   1      23.883  15.447   4.595  0.00  0.00     0.210 HD
ENDBRANCH   8  12
BRANCH   9  14
HETATM   14  O   UNK N   1      22.643  12.703   6.381  0.00  0.00    -0.284 OA
BRANCH  14  15
HETATM   15  P   UNK N   1      21.990  11.171   5.822  0.00  0.00     0.391 P 
HETATM   16  O   UNK N   1      22.237  11.065   4.292  0.00  0.00    -0.632 OA
BRANCH  15  17
HETATM   17  O   UNK N   1      20.265  11.170   6.005  0.00  0.00    -0.307 OA
HETATM   18  H   UNK N   1      19.669  11.480   5.306  0.00  0.00     0.222 HD
ENDBRANCH  15  17
BRANCH  15  19
HETATM   19  O   UNK N   1      22.683   9.769   6.575  0.00  0.00    -0.307 OA
HETATM   20  H   UNK N   1      22.973   9.291   7.369  0.00  0.00     0.222 HD
ENDBRANCH  15  19
ENDBRANCH  14  15
ENDBRANCH   9  14
BRANCH  10  21
HETATM   21  N   UNK N   1      24.358  13.182   8.935  0.00  0.00    -0.297 N 
HETATM   22  C   UNK N   1      25.382  12.957   9.801  0.00  0.00     0.188 A 
HETATM   23  N   UNK N   1      24.929  12.524  11.010  0.00  0.00    -0.346 N 
HETATM   24  C   UNK N   1      23.593  12.476  10.867  0.00  0.00     0.122 A 
ATOM     25  HN  UNK N   1      25.478  12.287  11.836  1.00  0.00     0.167 HD
HETATM   26  C   UNK N   1      22.617  12.107  11.775  0.00  0.00     0.131 A 
HETATM   27  C   UNK N   1      23.251  12.869   9.625  0.00  0.00     0.142 A 
HETATM   28  N   UNK N   1      21.314  12.137  11.362  0.00  0.00    -0.337 N 
HETATM   29  C   UNK N   1      20.986  12.532  10.087  0.00  0.00     0.183 A 
ATOM     30  HN  UNK N   1      20.575  11.862  12.010  1.00  0.00     0.168 HD
HETATM   31  N   UNK N   1      21.962  12.913   9.207  0.00  0.00    -0.336 N 
ATOM     32  HN  UNK N   1      21.726  13.222   8.264  1.00  0.00     0.168 HD
BRANCH  26  33
HETATM   33  N   UNK N   1      22.947  11.715  13.087  0.00  0.00    -0.383 N 
HETATM   34  H   UNK N   1      23.444  12.287  13.716  0.00  0.00     0.157 HD
HETATM   35  H   UNK N   1      22.665  10.822  13.392  0.00  0.00     0.157 HD
ENDBRANCH  26  33
ENDBRANCH  10  21
ENDBRANCH   6   7
ENDBRANCH   5   6
ENDBRANCH   2   5
BRANCH   2  36
HETATM   36  O   UNK N   1      26.928  18.641   5.934  0.00  0.00    -0.195 OA
BRANCH  36  37
HETATM   37  P   UNK N   1      26.224  19.880   4.927  0.00  0.00     0.401 P 
HETATM   38  O   UNK N   1      26.360  21.199   5.732  0.00  0.00    -0.631 OA
BRANCH  37  39
HETATM   39  O   UNK N   1      27.054  20.184   3.429  0.00  0.00    -0.307 OA
HETATM   40  H   UNK N   1      27.875  20.208   2.915  0.00  0.00     0.222 HD
ENDBRANCH  37  39
BRANCH  37  41
HETATM   41  O   UNK N   1      24.522  19.642   4.726  0.00  0.00    -0.294 OA
BRANCH  41  42
HETATM   42  C   UNK N   1      24.188  20.157   3.467  0.00  0.00     0.215 C 
BRANCH  42  43
HETATM   43  C   UNK N   1      22.838  19.600   3.109  0.00  0.00     0.180 C 
HETATM   44  C   UNK N   1      21.956  20.404   2.186  0.00  0.00     0.182 C 
HETATM   45  C   UNK N   1      20.712  19.540   2.334  0.00  0.00     0.198 C 
HETATM   46  C   UNK N   1      20.794  19.093   3.819  0.00  0.00     0.258 C 
HETATM   47  O   UNK N   1      22.077  19.469   4.275  0.00  0.00    -0.354 OA
BRANCH  44  48
HETATM   48  O   UNK N   1      21.749  21.679   2.725  0.00  0.00    -0.390 OA
HETATM   49  H   UNK N   1      21.618  22.089   3.594  0.00  0.00     0.210 HD
ENDBRANCH  44  48
BRANCH  45  50
HETATM   50  O   UNK N   1      19.535  20.224   2.015  0.00  0.00    -0.388 OA
HETATM   51  H   UNK N   1      19.084  20.852   2.600  0.00  0.00     0.210 HD
ENDBRANCH  45  50
BRANCH  46  52
HETATM   52  N   UNK N   1      20.664  17.643   3.978  0.00  0.00    -0.340 N 
HETATM   53  C   UNK N   1      20.143  16.884   2.876  0.00  0.00     0.096 A 
HETATM   54  C   UNK N   1      19.957  15.573   2.925  0.00  0.00     0.068 A 
HETATM   55  C   UNK N   1      20.320  14.838   4.127  0.00  0.00     0.167 A 
HETATM   56  C   UNK N   1      20.912  15.565   5.317  0.00  0.00     0.172 A 
HETATM   57  O   UNK N   1      20.176  13.627   4.147  0.00  0.00    -0.292 OA
HETATM   58  C   UNK N   1      21.017  17.069   5.086  0.00  0.00     0.087 A 
BRANCH  56  59
HETATM   59  C   UNK N   1      20.113  15.271   6.566  0.00  0.00     0.126 C 
BRANCH  59  60
HETATM   60  N   UNK N   1      19.472  16.216   7.151  0.00  0.00    -0.383 N 
HETATM   61  H   UNK N   1      18.706  16.042   7.744  0.00  0.00     0.158 HD
ATOM     62  HN  UNK N   1      19.767  17.180   6.997  1.00  0.00     0.158 HD
ENDBRANCH  59  60
BRANCH  59  63
HETATM   63  O   UNK N   1      20.036  14.019   7.058  0.00  0.00    -0.349 OA
HETATM   64  H   UNK N   1      20.766  13.514   7.358  0.00  0.00     0.219 HD
ENDBRANCH  59  63
ENDBRANCH  56  59
ENDBRANCH  46  52
ENDBRANCH  42  43
ENDBRANCH  41  42
ENDBRANCH  37  41
ENDBRANCH  36  37
ENDBRANCH   2  36
TORSDOF 23
ENDMDL
MODEL 5
REMARK VINA RESULT:      -7.9      5.894     12.408
REMARK  23 active torsions:
REMARK  status: ('A' for Active; 'I' for Inactive)
REMARK    1  A    between atoms: C_10  and  C_4 
REMARK    2  A    between atoms: O_45  and  C_4 
REMARK    3  A    between atoms: C_11  and  C_5 
REMARK    4  A    between atoms: O_46  and  C_5 
REMARK    5  A    between atoms: C_8  and  C_18 
REMARK    6  A    between atoms: C_13  and  O_34 
REMARK    7  A    between atoms: C_14  and  O_35 
REMARK    8  A    between atoms: C_15  and  O_36 
REMARK    9  A    between atoms: C_16  and  O_49 
REMARK   10  A    between atoms: N_22  and  C_17 
REMARK   11  A    between atoms: N_23  and  C_18 
REMARK   12  A    between atoms: O_37  and  C_18 
REMARK   13  A    between atoms: C_20  and  N_31 
REMARK   14  A    between atoms: C_21  and  N_32 
REMARK   15  A    between atoms: P_51  and  O_39 
REMARK   16  A    between atoms: P_51  and  O_40 
REMARK   17  A    between atoms: P_52  and  O_41 
REMARK   18  A    between atoms: P_53  and  O_44 
REMARK   19  A    between atoms: P_52  and  O_45 
REMARK   20  A    between atoms: P_53  and  O_46 
REMARK   21  A    between atoms: P_51  and  O_49 
REMARK   22  A    between atoms: P_52  and  O_50 
REMARK   23  A    between atoms: P_53  and  O_50 
ROOT
HETATM    1  O   UNK N   1      27.622  14.525   3.249  0.00  0.00    -0.631 OA
HETATM    2  P   UNK N   1      26.191  15.135   3.239  0.00  0.00     0.401 P 
ENDROOT
BRANCH   2   3
HETATM    3  O   UNK N   1      25.525  14.789   1.676  0.00  0.00    -0.307 OA
HETATM    4  H   UNK N   1      25.411  13.935   1.230  0.00  0.00     0.222 HD
ENDBRANCH   2   3
BRANCH   2   5
HETATM    5  O   UNK N   1      25.193  14.431   4.482  0.00  0.00    -0.294 OA
BRANCH   5   6
HETATM    6  C   UNK N   1      24.138  13.731   3.885  0.00  0.00     0.215 C 
BRANCH   6   7
HETATM    7  C   UNK N   1      22.986  13.570   4.872  0.00  0.00     0.180 C 
HETATM    8  C   UNK N   1      21.881  14.591   4.641  0.00  0.00     0.183 C 
HETATM    9  C   UNK N   1      21.147  14.432   5.951  0.00  0.00     0.214 C 
HETATM   10  C   UNK N   1      22.377  14.427   6.875  0.00  0.00     0.263 C 
HETATM   11  O   UNK N   1      23.427  13.744   6.201  0.00  0.00    -0.353 OA
BRANCH   8  12
HETATM   12  O   UNK N   1      22.444  15.873   4.538  0.00  0.00    -0.390 OA
HETATM   13  H   UNK N   1      22.765  16.782   4.647  0.00  0.00     0.210 HD
ENDBRANCH   8  12
BRANCH   9  14
HETATM   14  O   UNK N   1      20.266  15.479   6.330  0.00  0.00    -0.284 OA
BRANCH  14  15
HETATM   15  P   UNK N   1      18.819  15.605   5.343  0.00  0.00     0.391 P 
HETATM   16  O   UNK N   1      17.645  16.059   6.253  0.00  0.00    -0.632 OA
BRANCH  15  17
HETATM   17  O   UNK N   1      18.365  14.033   4.767  0.00  0.00    -0.307 OA
HETATM   18  H   UNK N   1      17.989  13.892   3.884  0.00  0.00     0.222 HD
ENDBRANCH  15  17
BRANCH  15  19
HETATM   19  O   UNK N   1      18.937  16.726   4.022  0.00  0.00    -0.307 OA
HETATM   20  H   UNK N   1      18.544  17.403   3.450  0.00  0.00     0.222 HD
ENDBRANCH  15  19
ENDBRANCH  14  15
ENDBRANCH   9  14
BRANCH  10  21
HETATM   21  N   UNK N   1      22.139  13.834   8.195  0.00  0.00    -0.297 N 
HETATM   22  C   UNK N   1      20.920  13.583   8.743  0.00  0.00     0.188 A 
HETATM   23  N   UNK N   1      21.034  12.962   9.950  0.00  0.00    -0.346 N 
HETATM   24  C   UNK N   1      22.360  12.843  10.139  0.00  0.00     0.122 A 
ATOM     25  HN  UNK N   1      20.284  12.657  10.570  1.00  0.00     0.167 HD
HETATM   26  C   UNK N   1      23.058  12.286  11.196  0.00  0.00     0.131 A 
HETATM   27  C   UNK N   1      23.022  13.365   9.089  0.00  0.00     0.142 A 
HETATM   28  N   UNK N   1      24.423  12.307  11.144  0.00  0.00    -0.337 N 
HETATM   29  C   UNK N   1      25.080  12.854  10.067  0.00  0.00     0.183 A 
ATOM     30  HN  UNK N   1      24.962  11.910  11.914  1.00  0.00     0.168 HD
HETATM   31  N   UNK N   1      24.375  13.382   9.020  0.00  0.00    -0.336 N 
ATOM     32  HN  UNK N   1      24.855  13.776   8.211  1.00  0.00     0.168 HD
BRANCH  26  33
HETATM   33  N   UNK N   1      22.389  11.711  12.295  0.00  0.00    -0.383 N 
HETATM   34  H   UNK N   1      22.786  11.633  13.192  0.00  0.00     0.157 HD
HETATM   35  H   UNK N   1      21.475  11.370  12.158  0.00  0.00     0.157 HD
ENDBRANCH  26  33
ENDBRANCH  10  21
ENDBRANCH   6   7
ENDBRANCH   5   6
ENDBRANCH   2   5
BRANCH   2  36
HETATM   36  O   UNK N   1      26.309  16.857   3.465  0.00  0.00    -0.195 OA
BRANCH  36  37
HETATM   37  P   UNK N   1      26.265  17.138   5.186  0.00  0.00     0.401 P 
HETATM   38  O   UNK N   1      26.307  18.679   5.359  0.00  0.00    -0.631 OA
BRANCH  37  39
HETATM   39  O   UNK N   1      24.803  16.639   5.985  0.00  0.00    -0.307 OA
HETATM   40  H   UNK N   1      23.860  16.419   5.949  0.00  0.00     0.222 HD
ENDBRANCH  37  39
BRANCH  37  41
HETATM   41  O   UNK N   1      27.699  16.554   5.961  0.00  0.00    -0.294 OA
BRANCH  41  42
HETATM   42  C   UNK N   1      28.354  17.671   6.493  0.00  0.00     0.215 C 
BRANCH  42  43
HETATM   43  C   UNK N   1      29.804  17.549   6.118  0.00  0.00     0.180 C 
HETATM   44  C   UNK N   1      30.176  17.654   4.660  0.00  0.00     0.182 C 
HETATM   45  C   UNK N   1      31.637  17.262   4.822  0.00  0.00     0.198 C 
HETATM   46  C   UNK N   1      31.575  16.215   5.966  0.00  0.00     0.258 C 
HETATM   47  O   UNK N   1      30.267  16.285   6.496  0.00  0.00    -0.354 OA
BRANCH  44  48
HETATM   48  O   UNK N   1      29.476  16.690   3.925  0.00  0.00    -0.390 OA
HETATM   49  H   UNK N   1      28.954  15.889   4.088  0.00  0.00     0.210 HD
ENDBRANCH  44  48
BRANCH  45  50
HETATM   50  O   UNK N   1      32.203  16.773   3.640  0.00  0.00    -0.388 OA
HETATM   51  H   UNK N   1      31.700  16.408   2.896  0.00  0.00     0.210 HD
ENDBRANCH  45  50
BRANCH  46  52
HETATM   52  N   UNK N   1      32.517  16.506   7.048  0.00  0.00    -0.340 N 
HETATM   53  C   UNK N   1      33.438  17.594   6.871  0.00  0.00     0.096 A 
HETATM   54  C   UNK N   1      34.350  17.924   7.774  0.00  0.00     0.068 A 
HETATM   55  C   UNK N   1      34.423  17.186   9.027  0.00  0.00     0.167 A 
HETATM   56  C   UNK N   1      33.460  16.050   9.302  0.00  0.00     0.172 A 
HETATM   57  O   UNK N   1      35.245  17.521   9.864  0.00  0.00    -0.292 OA
HETATM   58  C   UNK N   1      32.509  15.799   8.135  0.00  0.00     0.087 A 
BRANCH  56  59
HETATM   59  C   UNK N   1      34.216  14.791   9.656  0.00  0.00     0.126 C 
BRANCH  59  60
HETATM   60  N   UNK N   1      34.074  14.266  10.818  0.00  0.00    -0.383 N 
HETATM   61  H   UNK N   1      33.279  14.429  11.374  0.00  0.00     0.158 HD
ATOM     62  HN  UNK N   1      34.811  13.659  11.177  1.00  0.00     0.158 HD
ENDBRANCH  59  60
BRANCH  59  63
HETATM   63  O   UNK N   1      35.016  14.188   8.753  0.00  0.00    -0.349 OA
HETATM   64  H   UNK N   1      34.827  13.377   8.325  0.00  0.00     0.219 HD
ENDBRANCH  59  63
ENDBRANCH  56  59
ENDBRANCH  46  52
ENDBRANCH  42  43
ENDBRANCH  41  42
ENDBRANCH  37  41
ENDBRANCH  36  37
ENDBRANCH   2  36
TORSDOF 23
ENDMDL
MODEL 6
REMARK VINA RESULT:      -7.9      6.749     12.798
REMARK  23 active torsions:
REMARK  status: ('A' for Active; 'I' for Inactive)
REMARK    1  A    between atoms: C_10  and  C_4 
REMARK    2  A    between atoms: O_45  and  C_4 
REMARK    3  A    between atoms: C_11  and  C_5 
REMARK    4  A    between atoms: O_46  and  C_5 
REMARK    5  A    between atoms: C_8  and  C_18 
REMARK    6  A    between atoms: C_13  and  O_34 
REMARK    7  A    between atoms: C_14  and  O_35 
REMARK    8  A    between atoms: C_15  and  O_36 
REMARK    9  A    between atoms: C_16  and  O_49 
REMARK   10  A    between atoms: N_22  and  C_17 
REMARK   11  A    between atoms: N_23  and  C_18 
REMARK   12  A    between atoms: O_37  and  C_18 
REMARK   13  A    between atoms: C_20  and  N_31 
REMARK   14  A    between atoms: C_21  and  N_32 
REMARK   15  A    between atoms: P_51  and  O_39 
REMARK   16  A    between atoms: P_51  and  O_40 
REMARK   17  A    between atoms: P_52  and  O_41 
REMARK   18  A    between atoms: P_53  and  O_44 
REMARK   19  A    between atoms: P_52  and  O_45 
REMARK   20  A    between atoms: P_53  and  O_46 
REMARK   21  A    between atoms: P_51  and  O_49 
REMARK   22  A    between atoms: P_52  and  O_50 
REMARK   23  A    between atoms: P_53  and  O_50 
ROOT
HETATM    1  O   UNK N   1      24.507  14.097   4.197  0.00  0.00    -0.631 OA
HETATM    2  P   UNK N   1      23.921  15.255   3.340  0.00  0.00     0.401 P 
ENDROOT
BRANCH   2   3
HETATM    3  O   UNK N   1      23.662  14.606   1.753  0.00  0.00    -0.307 OA
HETATM    4  H   UNK N   1      23.754  13.693   1.438  0.00  0.00     0.222 HD
ENDBRANCH   2   3
BRANCH   2   5
HETATM    5  O   UNK N   1      22.415  15.833   4.001  0.00  0.00    -0.294 OA
BRANCH   5   6
HETATM    6  C   UNK N   1      21.493  14.780   4.037  0.00  0.00     0.215 C 
BRANCH   6   7
HETATM    7  C   UNK N   1      20.851  14.687   5.417  0.00  0.00     0.180 C 
HETATM    8  C   UNK N   1      20.190  15.993   5.835  0.00  0.00     0.183 C 
HETATM    9  C   UNK N   1      20.029  15.705   7.308  0.00  0.00     0.214 C 
HETATM   10  C   UNK N   1      21.434  15.129   7.558  0.00  0.00     0.263 C 
HETATM   11  O   UNK N   1      21.811  14.385   6.405  0.00  0.00    -0.353 OA
BRANCH   8  12
HETATM   12  O   UNK N   1      21.083  17.056   5.630  0.00  0.00    -0.390 OA
HETATM   13  H   UNK N   1      21.568  17.894   5.583  0.00  0.00     0.210 HD
ENDBRANCH   8  12
BRANCH   9  14
HETATM   14  O   UNK N   1      19.807  16.817   8.164  0.00  0.00    -0.284 OA
BRANCH  14  15
HETATM   15  P   UNK N   1      18.175  16.928   8.803  0.00  0.00     0.391 P 
HETATM   16  O   UNK N   1      17.920  15.692   9.708  0.00  0.00    -0.632 OA
BRANCH  15  17
HETATM   17  O   UNK N   1      17.029  16.789   7.508  0.00  0.00    -0.307 OA
HETATM   18  H   UNK N   1      17.236  17.061   6.601  0.00  0.00     0.222 HD
ENDBRANCH  15  17
BRANCH  15  19
HETATM   19  O   UNK N   1      17.861  18.354   9.743  0.00  0.00    -0.307 OA
HETATM   20  H   UNK N   1      17.381  19.186   9.884  0.00  0.00     0.222 HD
ENDBRANCH  15  19
ENDBRANCH  14  15
ENDBRANCH   9  14
BRANCH  10  21
HETATM   21  N   UNK N   1      21.541  14.302   8.764  0.00  0.00    -0.297 N 
HETATM   22  C   UNK N   1      20.505  13.911   9.553  0.00  0.00     0.188 A 
HETATM   23  N   UNK N   1      20.922  13.090  10.556  0.00  0.00    -0.346 N 
HETATM   24  C   UNK N   1      22.251  12.989  10.372  0.00  0.00     0.122 A 
ATOM     25  HN  UNK N   1      20.357  12.652  11.283  1.00  0.00     0.167 HD
HETATM   26  C   UNK N   1      23.194  12.280  11.095  0.00  0.00     0.131 A 
HETATM   27  C   UNK N   1      22.621  13.715   9.300  0.00  0.00     0.142 A 
HETATM   28  N   UNK N   1      24.499  12.362  10.697  0.00  0.00    -0.337 N 
HETATM   29  C   UNK N   1      24.859  13.116   9.605  0.00  0.00     0.183 A 
ATOM     30  HN  UNK N   1      25.216  11.855  11.216  1.00  0.00     0.168 HD
HETATM   31  N   UNK N   1      23.911  13.795   8.889  0.00  0.00    -0.336 N 
ATOM     32  HN  UNK N   1      24.167  14.345   8.069  1.00  0.00     0.168 HD
BRANCH  26  33
HETATM   33  N   UNK N   1      22.829  11.495  12.205  0.00  0.00    -0.383 N 
HETATM   34  H   UNK N   1      22.916  10.514  12.229  0.00  0.00     0.157 HD
HETATM   35  H   UNK N   1      22.467  11.951  13.000  0.00  0.00     0.157 HD
ENDBRANCH  26  33
ENDBRANCH  10  21
ENDBRANCH   6   7
ENDBRANCH   5   6
ENDBRANCH   2   5
BRANCH   2  36
HETATM   36  O   UNK N   1      25.083  16.549   3.269  0.00  0.00    -0.195 OA
BRANCH  36  37
HETATM   37  P   UNK N   1      25.102  17.289   4.850  0.00  0.00     0.401 P 
HETATM   38  O   UNK N   1      24.518  18.712   4.651  0.00  0.00    -0.631 OA
BRANCH  37  39
HETATM   39  O   UNK N   1      24.069  16.543   6.034  0.00  0.00    -0.307 OA
HETATM   40  H   UNK N   1      23.484  15.817   6.299  0.00  0.00     0.222 HD
ENDBRANCH  37  39
BRANCH  37  41
HETATM   41  O   UNK N   1      26.720  17.535   5.415  0.00  0.00    -0.294 OA
BRANCH  41  42
HETATM   42  C   UNK N   1      27.432  18.117   4.359  0.00  0.00     0.215 C 
BRANCH  42  43
HETATM   43  C   UNK N   1      28.721  17.355   4.226  0.00  0.00     0.180 C 
HETATM   44  C   UNK N   1      28.830  16.323   3.130  0.00  0.00     0.182 C 
HETATM   45  C   UNK N   1      30.167  15.742   3.569  0.00  0.00     0.198 C 
HETATM   46  C   UNK N   1      30.077  15.836   5.117  0.00  0.00     0.258 C 
HETATM   47  O   UNK N   1      28.941  16.627   5.400  0.00  0.00    -0.354 OA
BRANCH  44  48
HETATM   48  O   UNK N   1      27.804  15.381   3.267  0.00  0.00    -0.390 OA
HETATM   49  H   UNK N   1      27.228  14.846   2.699  0.00  0.00     0.210 HD
ENDBRANCH  44  48
BRANCH  45  50
HETATM   50  O   UNK N   1      30.376  14.443   3.095  0.00  0.00    -0.388 OA
HETATM   51  H   UNK N   1      30.702  14.223   2.209  0.00  0.00     0.210 HD
ENDBRANCH  45  50
BRANCH  46  52
HETATM   52  N   UNK N   1      31.244  16.492   5.709  0.00  0.00    -0.340 N 
HETATM   53  C   UNK N   1      32.343  16.828   4.847  0.00  0.00     0.096 A 
HETATM   54  C   UNK N   1      33.458  17.397   5.284  0.00  0.00     0.068 A 
HETATM   55  C   UNK N   1      33.588  17.737   6.693  0.00  0.00     0.167 A 
HETATM   56  C   UNK N   1      32.455  17.448   7.657  0.00  0.00     0.172 A 
HETATM   57  O   UNK N   1      34.605  18.290   7.078  0.00  0.00    -0.292 OA
HETATM   58  C   UNK N   1      31.274  16.763   6.977  0.00  0.00     0.087 A 
BRANCH  56  59
HETATM   59  C   UNK N   1      32.951  16.624   8.823  0.00  0.00     0.126 C 
BRANCH  59  60
HETATM   60  N   UNK N   1      33.861  17.094   9.596  0.00  0.00    -0.383 N 
HETATM   61  H   UNK N   1      34.816  17.060   9.364  0.00  0.00     0.158 HD
ATOM     62  HN  UNK N   1      33.583  17.519  10.481  1.00  0.00     0.158 HD
ENDBRANCH  59  60
BRANCH  59  63
HETATM   63  O   UNK N   1      32.426  15.410   9.084  0.00  0.00    -0.349 OA
HETATM   64  H   UNK N   1      31.594  15.107   8.778  0.00  0.00     0.219 HD
ENDBRANCH  59  63
ENDBRANCH  56  59
ENDBRANCH  46  52
ENDBRANCH  42  43
ENDBRANCH  41  42
ENDBRANCH  37  41
ENDBRANCH  36  37
ENDBRANCH   2  36
TORSDOF 23
ENDMDL
MODEL 7
REMARK VINA RESULT:      -7.9      1.279      1.864
REMARK  23 active torsions:
REMARK  status: ('A' for Active; 'I' for Inactive)
REMARK    1  A    between atoms: C_10  and  C_4 
REMARK    2  A    between atoms: O_45  and  C_4 
REMARK    3  A    between atoms: C_11  and  C_5 
REMARK    4  A    between atoms: O_46  and  C_5 
REMARK    5  A    between atoms: C_8  and  C_18 
REMARK    6  A    between atoms: C_13  and  O_34 
REMARK    7  A    between atoms: C_14  and  O_35 
REMARK    8  A    between atoms: C_15  and  O_36 
REMARK    9  A    between atoms: C_16  and  O_49 
REMARK   10  A    between atoms: N_22  and  C_17 
REMARK   11  A    between atoms: N_23  and  C_18 
REMARK   12  A    between atoms: O_37  and  C_18 
REMARK   13  A    between atoms: C_20  and  N_31 
REMARK   14  A    between atoms: C_21  and  N_32 
REMARK   15  A    between atoms: P_51  and  O_39 
REMARK   16  A    between atoms: P_51  and  O_40 
REMARK   17  A    between atoms: P_52  and  O_41 
REMARK   18  A    between atoms: P_53  and  O_44 
REMARK   19  A    between atoms: P_52  and  O_45 
REMARK   20  A    between atoms: P_53  and  O_46 
REMARK   21  A    between atoms: P_51  and  O_49 
REMARK   22  A    between atoms: P_52  and  O_50 
REMARK   23  A    between atoms: P_53  and  O_50 
ROOT
HETATM    1  O   UNK N   1      34.685  14.082   9.326  0.00  0.00    -0.631 OA
HETATM    2  P   UNK N   1      34.076  15.174  10.251  0.00  0.00     0.401 P 
ENDROOT
BRANCH   2   3
HETATM    3  O   UNK N   1      32.356  15.066  10.065  0.00  0.00    -0.307 OA
HETATM    4  H   UNK N   1      31.710  14.562  10.584  0.00  0.00     0.222 HD
ENDBRANCH   2   3
BRANCH   2   5
HETATM    5  O   UNK N   1      34.514  14.910  11.918  0.00  0.00    -0.294 OA
BRANCH   5   6
HETATM    6  C   UNK N   1      35.907  14.970  12.044  0.00  0.00     0.215 C 
BRANCH   6   7
HETATM    7  C   UNK N   1      36.379  14.027  13.144  0.00  0.00     0.180 C 
HETATM    8  C   UNK N   1      36.642  12.620  12.625  0.00  0.00     0.183 C 
HETATM    9  C   UNK N   1      36.688  11.894  13.948  0.00  0.00     0.214 C 
HETATM   10  C   UNK N   1      35.449  12.549  14.583  0.00  0.00     0.263 C 
HETATM   11  O   UNK N   1      35.409  13.907  14.162  0.00  0.00    -0.353 OA
BRANCH   8  12
HETATM   12  O   UNK N   1      35.547  12.192  11.859  0.00  0.00    -0.390 OA
HETATM   13  H   UNK N   1      34.839  11.720  11.393  0.00  0.00     0.210 HD
ENDBRANCH   8  12
BRANCH   9  14
HETATM   14  O   UNK N   1      36.523  10.484  13.918  0.00  0.00    -0.284 OA
BRANCH  14  15
HETATM   15  P   UNK N   1      37.996   9.573  14.209  0.00  0.00     0.391 P 
HETATM   16  O   UNK N   1      38.353   8.794  12.914  0.00  0.00    -0.632 OA
BRANCH  15  17
HETATM   17  O   UNK N   1      37.702   8.353  15.407  0.00  0.00    -0.307 OA
HETATM   18  H   UNK N   1      38.063   8.411  16.305  0.00  0.00     0.222 HD
ENDBRANCH  15  17
BRANCH  15  19
HETATM   19  O   UNK N   1      39.370  10.539  14.649  0.00  0.00    -0.307 OA
HETATM   20  H   UNK N   1      39.787  11.211  15.211  0.00  0.00     0.222 HD
ENDBRANCH  15  19
ENDBRANCH  14  15
ENDBRANCH   9  14
BRANCH  10  21
HETATM   21  N   UNK N   1      35.401  12.460  16.046  0.00  0.00    -0.297 N 
HETATM   22  C   UNK N   1      35.460  13.512  16.906  0.00  0.00     0.188 A 
HETATM   23  N   UNK N   1      35.319  13.108  18.199  0.00  0.00    -0.346 N 
HETATM   24  C   UNK N   1      35.181  11.773  18.117  0.00  0.00     0.122 A 
ATOM     25  HN  UNK N   1      35.320  13.686  19.039  1.00  0.00     0.167 HD
HETATM   26  C   UNK N   1      35.003  10.837  19.121  0.00  0.00     0.131 A 
HETATM   27  C   UNK N   1      35.231  11.385  16.828  0.00  0.00     0.142 A 
HETATM   28  N   UNK N   1      34.902   9.522  18.760  0.00  0.00    -0.337 N 
HETATM   29  C   UNK N   1      34.965   9.146  17.439  0.00  0.00     0.183 A 
ATOM     30  HN  UNK N   1      34.778   8.811  19.480  1.00  0.00     0.168 HD
HETATM   31  N   UNK N   1      35.122  10.086  16.457  0.00  0.00    -0.336 N 
ATOM     32  HN  UNK N   1      35.154   9.816  15.474  1.00  0.00     0.168 HD
BRANCH  26  33
HETATM   33  N   UNK N   1      34.923  11.219  20.474  0.00  0.00    -0.383 N 
HETATM   34  H   UNK N   1      34.860  12.156  20.771  0.00  0.00     0.157 HD
HETATM   35  H   UNK N   1      34.932  10.512  21.160  0.00  0.00     0.157 HD
ENDBRANCH  26  33
ENDBRANCH  10  21
ENDBRANCH   6   7
ENDBRANCH   5   6
ENDBRANCH   2   5
BRANCH   2  36
HETATM   36  O   UNK N   1      34.633  16.737   9.723  0.00  0.00    -0.195 OA
BRANCH  36  37
HETATM   37  P   UNK N   1      34.155  16.898   8.053  0.00  0.00     0.401 P 
HETATM   38  O   UNK N   1      34.666  18.293   7.606  0.00  0.00    -0.631 OA
BRANCH  37  39
HETATM   39  O   UNK N   1      34.900  15.776   6.953  0.00  0.00    -0.307 OA
HETATM   40  H   UNK N   1      34.851  14.973   6.413  0.00  0.00     0.222 HD
ENDBRANCH  37  39
BRANCH  37  41
HETATM   41  O   UNK N   1      32.433  16.970   7.891  0.00  0.00    -0.294 OA
BRANCH  41  42
HETATM   42  C   UNK N   1      32.034  18.224   8.370  0.00  0.00     0.215 C 
BRANCH  42  43
HETATM   43  C   UNK N   1      30.535  18.275   8.273  0.00  0.00     0.180 C 
HETATM   44  C   UNK N   1      29.730  18.053   9.530  0.00  0.00     0.182 C 
HETATM   45  C   UNK N   1      28.366  17.994   8.857  0.00  0.00     0.198 C 
HETATM   46  C   UNK N   1      28.692  17.297   7.508  0.00  0.00     0.258 C 
HETATM   47  O   UNK N   1      30.101  17.265   7.409  0.00  0.00    -0.354 OA
BRANCH  44  48
HETATM   48  O   UNK N   1      30.067  16.816  10.091  0.00  0.00    -0.390 OA
HETATM   49  H   UNK N   1      30.596  16.035   9.866  0.00  0.00     0.210 HD
ENDBRANCH  44  48
BRANCH  45  50
HETATM   50  O   UNK N   1      27.411  17.319   9.623  0.00  0.00    -0.388 OA
HETATM   51  H   UNK N   1      27.398  16.361   9.773  0.00  0.00     0.210 HD
ENDBRANCH  45  50
BRANCH  46  52
HETATM   52  N   UNK N   1      28.175  18.035   6.354  0.00  0.00    -0.340 N 
HETATM   53  C   UNK N   1      27.876  19.430   6.519  0.00  0.00     0.096 A 
HETATM   54  C   UNK N   1      27.377  20.183   5.550  0.00  0.00     0.068 A 
HETATM   55  C   UNK N   1      27.142  19.603   4.236  0.00  0.00     0.167 A 
HETATM   56  C   UNK N   1      27.468  18.147   3.974  0.00  0.00     0.172 A 
HETATM   57  O   UNK N   1      26.714  20.314   3.342  0.00  0.00    -0.292 OA
HETATM   58  C   UNK N   1      27.999  17.438   5.216  0.00  0.00     0.087 A 
BRANCH  56  59
HETATM   59  C   UNK N   1      26.260  17.425   3.423  0.00  0.00     0.126 C 
BRANCH  59  60
HETATM   60  N   UNK N   1      25.082  17.866   3.677  0.00  0.00    -0.383 N 
HETATM   61  H   UNK N   1      24.555  18.367   3.015  0.00  0.00     0.158 HD
ATOM     62  HN  UNK N   1      24.679  17.689   4.597  1.00  0.00     0.158 HD
ENDBRANCH  59  60
BRANCH  59  63
HETATM   63  O   UNK N   1      26.403  16.340   2.637  0.00  0.00    -0.349 OA
HETATM   64  H   UNK N   1      25.726  15.721   2.447  0.00  0.00     0.219 HD
ENDBRANCH  59  63
ENDBRANCH  56  59
ENDBRANCH  46  52
ENDBRANCH  42  43
ENDBRANCH  41  42
ENDBRANCH  37  41
ENDBRANCH  36  37
ENDBRANCH   2  36
TORSDOF 23
ENDMDL
MODEL 8
REMARK VINA RESULT:      -7.8      1.435      2.001
REMARK  23 active torsions:
REMARK  status: ('A' for Active; 'I' for Inactive)
REMARK    1  A    between atoms: C_10  and  C_4 
REMARK    2  A    between atoms: O_45  and  C_4 
REMARK    3  A    between atoms: C_11  and  C_5 
REMARK    4  A    between atoms: O_46  and  C_5 
REMARK    5  A    between atoms: C_8  and  C_18 
REMARK    6  A    between atoms: C_13  and  O_34 
REMARK    7  A    between atoms: C_14  and  O_35 
REMARK    8  A    between atoms: C_15  and  O_36 
REMARK    9  A    between atoms: C_16  and  O_49 
REMARK   10  A    between atoms: N_22  and  C_17 
REMARK   11  A    between atoms: N_23  and  C_18 
REMARK   12  A    between atoms: O_37  and  C_18 
REMARK   13  A    between atoms: C_20  and  N_31 
REMARK   14  A    between atoms: C_21  and  N_32 
REMARK   15  A    between atoms: P_51  and  O_39 
REMARK   16  A    between atoms: P_51  and  O_40 
REMARK   17  A    between atoms: P_52  and  O_41 
REMARK   18  A    between atoms: P_53  and  O_44 
REMARK   19  A    between atoms: P_52  and  O_45 
REMARK   20  A    between atoms: P_53  and  O_46 
REMARK   21  A    between atoms: P_51  and  O_49 
REMARK   22  A    between atoms: P_52  and  O_50 
REMARK   23  A    between atoms: P_53  and  O_50 
ROOT
HETATM    1  O   UNK N   1      34.959  14.297   9.473  0.00  0.00    -0.631 OA
HETATM    2  P   UNK N   1      34.204  15.231  10.461  0.00  0.00     0.401 P 
ENDROOT
BRANCH   2   3
HETATM    3  O   UNK N   1      32.515  15.033  10.126  0.00  0.00    -0.307 OA
HETATM    4  H   UNK N   1      32.075  14.798   9.295  0.00  0.00     0.222 HD
ENDBRANCH   2   3
BRANCH   2   5
HETATM    5  O   UNK N   1      34.538  14.804  12.118  0.00  0.00    -0.294 OA
BRANCH   5   6
HETATM    6  C   UNK N   1      35.921  14.845  12.335  0.00  0.00     0.215 C 
BRANCH   6   7
HETATM    7  C   UNK N   1      36.346  13.704  13.253  0.00  0.00     0.180 C 
HETATM    8  C   UNK N   1      36.645  12.425  12.485  0.00  0.00     0.183 C 
HETATM    9  C   UNK N   1      36.630  11.455  13.642  0.00  0.00     0.214 C 
HETATM   10  C   UNK N   1      35.357  11.977  14.330  0.00  0.00     0.263 C 
HETATM   11  O   UNK N   1      35.327  13.392  14.179  0.00  0.00    -0.353 OA
BRANCH   8  12
HETATM   12  O   UNK N   1      35.591  12.156  11.596  0.00  0.00    -0.390 OA
HETATM   13  H   UNK N   1      34.908  12.143  10.909  0.00  0.00     0.210 HD
ENDBRANCH   8  12
BRANCH   9  14
HETATM   14  O   UNK N   1      36.478  10.078  13.330  0.00  0.00    -0.284 OA
BRANCH  14  15
HETATM   15  P   UNK N   1      37.915   9.106  13.608  0.00  0.00     0.391 P 
HETATM   16  O   UNK N   1      38.676   8.965  12.262  0.00  0.00    -0.632 OA
BRANCH  15  17
HETATM   17  O   UNK N   1      37.453   7.491  14.041  0.00  0.00    -0.307 OA
HETATM   18  H   UNK N   1      37.142   6.848  13.386  0.00  0.00     0.222 HD
ENDBRANCH  15  17
BRANCH  15  19
HETATM   19  O   UNK N   1      39.016   9.760  14.781  0.00  0.00    -0.307 OA
HETATM   20  H   UNK N   1      39.222  10.029  15.690  0.00  0.00     0.222 HD
ENDBRANCH  15  19
ENDBRANCH  14  15
ENDBRANCH   9  14
BRANCH  10  21
HETATM   21  N   UNK N   1      35.238  11.606  15.743  0.00  0.00    -0.297 N 
HETATM   22  C   UNK N   1      35.112  10.340  16.223  0.00  0.00     0.188 A 
HETATM   23  N   UNK N   1      35.096  10.320  17.584  0.00  0.00    -0.346 N 
HETATM   24  C   UNK N   1      35.207  11.613  17.937  0.00  0.00     0.122 A 
ATOM     25  HN  UNK N   1      35.018   9.509  18.198  1.00  0.00     0.167 HD
HETATM   26  C   UNK N   1      35.247  12.189  19.194  0.00  0.00     0.131 A 
HETATM   27  C   UNK N   1      35.291  12.383  16.834  0.00  0.00     0.142 A 
HETATM   28  N   UNK N   1      35.352  13.549  19.272  0.00  0.00    -0.337 N 
HETATM   29  C   UNK N   1      35.426  14.319  18.135  0.00  0.00     0.183 A 
ATOM     30  HN  UNK N   1      35.376  14.001  20.187  1.00  0.00     0.168 HD
HETATM   31  N   UNK N   1      35.406  13.732  16.899  0.00  0.00    -0.336 N 
ATOM     32  HN  UNK N   1      35.476  14.294  16.051  1.00  0.00     0.168 HD
BRANCH  26  33
HETATM   33  N   UNK N   1      35.185  11.404  20.362  0.00  0.00    -0.383 N 
HETATM   34  H   UNK N   1      34.595  11.609  21.124  0.00  0.00     0.157 HD
HETATM   35  H   UNK N   1      35.763  10.608  20.421  0.00  0.00     0.157 HD
ENDBRANCH  26  33
ENDBRANCH  10  21
ENDBRANCH   6   7
ENDBRANCH   5   6
ENDBRANCH   2   5
BRANCH   2  36
HETATM   36  O   UNK N   1      34.680  16.878  10.157  0.00  0.00    -0.195 OA
BRANCH  36  37
HETATM   37  P   UNK N   1      34.197  17.242   8.521  0.00  0.00     0.401 P 
HETATM   38  O   UNK N   1      34.569  18.732   8.298  0.00  0.00    -0.631 OA
BRANCH  37  39
HETATM   39  O   UNK N   1      35.057  16.377   7.281  0.00  0.00    -0.307 OA
HETATM   40  H   UNK N   1      35.410  16.333   6.379  0.00  0.00     0.222 HD
ENDBRANCH  37  39
BRANCH  37  41
HETATM   41  O   UNK N   1      32.478  17.168   8.335  0.00  0.00    -0.294 OA
BRANCH  41  42
HETATM   42  C   UNK N   1      31.974  18.410   8.743  0.00  0.00     0.215 C 
BRANCH  42  43
HETATM   43  C   UNK N   1      30.479  18.343   8.607  0.00  0.00     0.180 C 
HETATM   44  C   UNK N   1      29.676  17.854   9.787  0.00  0.00     0.182 C 
HETATM   45  C   UNK N   1      28.336  17.782   9.070  0.00  0.00     0.198 C 
HETATM   46  C   UNK N   1      28.748  17.341   7.640  0.00  0.00     0.258 C 
HETATM   47  O   UNK N   1      30.155  17.449   7.582  0.00  0.00    -0.354 OA
BRANCH  44  48
HETATM   48  O   UNK N   1      30.116  16.578  10.158  0.00  0.00    -0.390 OA
HETATM   49  H   UNK N   1      30.163  15.686   9.781  0.00  0.00     0.210 HD
ENDBRANCH  44  48
BRANCH  45  50
HETATM   50  O   UNK N   1      27.434  16.912   9.691  0.00  0.00    -0.388 OA
HETATM   51  H   UNK N   1      26.573  17.173  10.053  0.00  0.00     0.210 HD
ENDBRANCH  45  50
BRANCH  46  52
HETATM   52  N   UNK N   1      28.185  18.204   6.600  0.00  0.00    -0.340 N 
HETATM   53  C   UNK N   1      28.666  18.050   5.256  0.00  0.00     0.096 A 
HETATM   54  C   UNK N   1      28.246  18.799   4.246  0.00  0.00     0.068 A 
HETATM   55  C   UNK N   1      27.225  19.810   4.477  0.00  0.00     0.167 A 
HETATM   56  C   UNK N   1      26.642  20.006   5.861  0.00  0.00     0.172 A 
HETATM   57  O   UNK N   1      26.822  20.470   3.533  0.00  0.00    -0.292 OA
HETATM   58  C   UNK N   1      27.273  19.079   6.894  0.00  0.00     0.087 A 
BRANCH  56  59
HETATM   59  C   UNK N   1      26.771  21.450   6.289  0.00  0.00     0.126 C 
BRANCH  59  60
HETATM   60  N   UNK N   1      27.867  22.084   6.076  0.00  0.00    -0.383 N 
HETATM   61  H   UNK N   1      28.748  21.677   6.240  0.00  0.00     0.158 HD
ATOM     62  HN  UNK N   1      27.821  23.039   5.724  1.00  0.00     0.158 HD
ENDBRANCH  59  60
BRANCH  59  63
HETATM   63  O   UNK N   1      25.736  22.095   6.864  0.00  0.00    -0.349 OA
HETATM   64  H   UNK N   1      24.904  22.243   6.461  0.00  0.00     0.219 HD
ENDBRANCH  59  63
ENDBRANCH  56  59
ENDBRANCH  46  52
ENDBRANCH  42  43
ENDBRANCH  41  42
ENDBRANCH  37  41
ENDBRANCH  36  37
ENDBRANCH   2  36
TORSDOF 23
ENDMDL
MODEL 9
REMARK VINA RESULT:      -7.7      3.830      6.011
REMARK  23 active torsions:
REMARK  status: ('A' for Active; 'I' for Inactive)
REMARK    1  A    between atoms: C_10  and  C_4 
REMARK    2  A    between atoms: O_45  and  C_4 
REMARK    3  A    between atoms: C_11  and  C_5 
REMARK    4  A    between atoms: O_46  and  C_5 
REMARK    5  A    between atoms: C_8  and  C_18 
REMARK    6  A    between atoms: C_13  and  O_34 
REMARK    7  A    between atoms: C_14  and  O_35 
REMARK    8  A    between atoms: C_15  and  O_36 
REMARK    9  A    between atoms: C_16  and  O_49 
REMARK   10  A    between atoms: N_22  and  C_17 
REMARK   11  A    between atoms: N_23  and  C_18 
REMARK   12  A    between atoms: O_37  and  C_18 
REMARK   13  A    between atoms: C_20  and  N_31 
REMARK   14  A    between atoms: C_21  and  N_32 
REMARK   15  A    between atoms: P_51  and  O_39 
REMARK   16  A    between atoms: P_51  and  O_40 
REMARK   17  A    between atoms: P_52  and  O_41 
REMARK   18  A    between atoms: P_53  and  O_44 
REMARK   19  A    between atoms: P_52  and  O_45 
REMARK   20  A    between atoms: P_53  and  O_46 
REMARK   21  A    between atoms: P_51  and  O_49 
REMARK   22  A    between atoms: P_52  and  O_50 
REMARK   23  A    between atoms: P_53  and  O_50 
ROOT
HETATM    1  O   UNK N   1      32.562  10.375   3.731  0.00  0.00    -0.631 OA
HETATM    2  P   UNK N   1      32.486  11.810   4.327  0.00  0.00     0.401 P 
ENDROOT
BRANCH   2   3
HETATM    3  O   UNK N   1      31.101  12.564   3.607  0.00  0.00    -0.307 OA
HETATM    4  H   UNK N   1      30.476  12.212   2.955  0.00  0.00     0.222 HD
ENDBRANCH   2   3
BRANCH   2   5
HETATM    5  O   UNK N   1      32.310  11.769   6.060  0.00  0.00    -0.294 OA
BRANCH   5   6
HETATM    6  C   UNK N   1      33.463  11.213   6.628  0.00  0.00     0.215 C 
BRANCH   6   7
HETATM    7  C   UNK N   1      33.880  12.007   7.861  0.00  0.00     0.180 C 
HETATM    8  C   UNK N   1      33.863  13.508   7.615  0.00  0.00     0.183 C 
HETATM    9  C   UNK N   1      34.667  13.946   8.814  0.00  0.00     0.214 C 
HETATM   10  C   UNK N   1      35.782  12.891   8.708  0.00  0.00     0.263 C 
HETATM   11  O   UNK N   1      35.193  11.677   8.259  0.00  0.00    -0.353 OA
BRANCH   8  12
HETATM   12  O   UNK N   1      34.550  13.795   6.424  0.00  0.00    -0.390 OA
HETATM   13  H   UNK N   1      35.076  13.806   5.609  0.00  0.00     0.210 HD
ENDBRANCH   8  12
BRANCH   9  14
HETATM   14  O   UNK N   1      35.233  15.248   8.775  0.00  0.00    -0.284 OA
BRANCH  14  15
HETATM   15  P   UNK N   1      35.285  16.066  10.329  0.00  0.00     0.391 P 
HETATM   16  O   UNK N   1      34.937  17.563  10.104  0.00  0.00    -0.632 OA
BRANCH  15  17
HETATM   17  O   UNK N   1      36.909  16.062  10.938  0.00  0.00    -0.307 OA
HETATM   18  H   UNK N   1      37.107  16.092  11.886  0.00  0.00     0.222 HD
ENDBRANCH  15  17
BRANCH  15  19
HETATM   19  O   UNK N   1      34.188  15.434  11.517  0.00  0.00    -0.307 OA
HETATM   20  H   UNK N   1      33.659  15.544  12.323  0.00  0.00     0.222 HD
ENDBRANCH  15  19
ENDBRANCH  14  15
ENDBRANCH   9  14
BRANCH  10  21
HETATM   21  N   UNK N   1      36.528  12.673   9.952  0.00  0.00    -0.297 N 
HETATM   22  C   UNK N   1      37.858  12.896  10.129  0.00  0.00     0.188 A 
HETATM   23  N   UNK N   1      38.237  12.666  11.417  0.00  0.00    -0.346 N 
HETATM   24  C   UNK N   1      37.104  12.284  12.033  0.00  0.00     0.122 A 
ATOM     25  HN  UNK N   1      39.168  12.761  11.822  1.00  0.00     0.167 HD
HETATM   26  C   UNK N   1      36.890  11.926  13.352  0.00  0.00     0.131 A 
HETATM   27  C   UNK N   1      36.082  12.287  11.156  0.00  0.00     0.142 A 
HETATM   28  N   UNK N   1      35.626  11.561  13.719  0.00  0.00    -0.337 N 
HETATM   29  C   UNK N   1      34.597  11.562  12.807  0.00  0.00     0.183 A 
ATOM     30  HN  UNK N   1      35.442  11.285  14.685  1.00  0.00     0.168 HD
HETATM   31  N   UNK N   1      34.821  11.938  11.511  0.00  0.00    -0.336 N 
ATOM     32  HN  UNK N   1      34.060  11.955  10.831  1.00  0.00     0.168 HD
BRANCH  26  33
HETATM   33  N   UNK N   1      37.937  11.938  14.294  0.00  0.00    -0.383 N 
HETATM   34  H   UNK N   1      37.809  12.150  15.247  0.00  0.00     0.157 HD
HETATM   35  H   UNK N   1      38.847  11.723  13.983  0.00  0.00     0.157 HD
ENDBRANCH  26  33
ENDBRANCH  10  21
ENDBRANCH   6   7
ENDBRANCH   5   6
ENDBRANCH   2   5
BRANCH   2  36
HETATM   36  O   UNK N   1      33.929  12.680   3.889  0.00  0.00    -0.195 OA
BRANCH  36  37
HETATM   37  P   UNK N   1      33.536  13.615   2.470  0.00  0.00     0.401 P 
HETATM   38  O   UNK N   1      34.885  14.190   1.962  0.00  0.00    -0.631 OA
BRANCH  37  39
HETATM   39  O   UNK N   1      32.905  12.705   1.129  0.00  0.00    -0.307 OA
HETATM   40  H   UNK N   1      32.468  12.679   0.264  0.00  0.00     0.222 HD
ENDBRANCH  37  39
BRANCH  37  41
HETATM   41  O   UNK N   1      32.573  14.998   2.868  0.00  0.00    -0.294 OA
BRANCH  41  42
HETATM   42  C   UNK N   1      33.437  15.941   3.439  0.00  0.00     0.215 C 
BRANCH  42  43
HETATM   43  C   UNK N   1      32.714  16.548   4.608  0.00  0.00     0.180 C 
HETATM   44  C   UNK N   1      33.508  17.377   5.587  0.00  0.00     0.182 C 
HETATM   45  C   UNK N   1      32.400  17.544   6.616  0.00  0.00     0.198 C 
HETATM   46  C   UNK N   1      31.659  16.182   6.529  0.00  0.00     0.258 C 
HETATM   47  O   UNK N   1      32.175  15.523   5.391  0.00  0.00    -0.354 OA
BRANCH  44  48
HETATM   48  O   UNK N   1      34.562  16.615   6.102  0.00  0.00    -0.390 OA
HETATM   49  H   UNK N   1      35.104  16.571   6.906  0.00  0.00     0.210 HD
ENDBRANCH  44  48
BRANCH  45  50
HETATM   50  O   UNK N   1      32.885  17.842   7.893  0.00  0.00    -0.388 OA
HETATM   51  H   UNK N   1      33.374  18.646   8.126  0.00  0.00     0.210 HD
ENDBRANCH  45  50
BRANCH  46  52
HETATM   52  N   UNK N   1      30.215  16.337   6.346  0.00  0.00    -0.340 N 
HETATM   53  C   UNK N   1      29.497  15.282   5.688  0.00  0.00     0.096 A 
HETATM   54  C   UNK N   1      28.195  15.334   5.445  0.00  0.00     0.068 A 
HETATM   55  C   UNK N   1      27.427  16.489   5.886  0.00  0.00     0.167 A 
HETATM   56  C   UNK N   1      28.107  17.625   6.620  0.00  0.00     0.172 A 
HETATM   57  O   UNK N   1      26.223  16.509   5.687  0.00  0.00    -0.292 OA
HETATM   58  C   UNK N   1      29.608  17.400   6.775  0.00  0.00     0.087 A 
BRANCH  56  59
HETATM   59  C   UNK N   1      27.832  18.940   5.930  0.00  0.00     0.126 C 
BRANCH  59  60
HETATM   60  N   UNK N   1      26.920  19.721   6.384  0.00  0.00    -0.383 N 
HETATM   61  H   UNK N   1      25.966  19.585   6.185  0.00  0.00     0.158 HD
ATOM     62  HN  UNK N   1      27.194  20.508   6.972  1.00  0.00     0.158 HD
ENDBRANCH  59  60
BRANCH  59  63
HETATM   63  O   UNK N   1      28.555  19.323   4.859  0.00  0.00    -0.349 OA
HETATM   64  H   UNK N   1      29.286  19.909   4.886  0.00  0.00     0.219 HD
ENDBRANCH  59  63
ENDBRANCH  56  59
ENDBRANCH  46  52
ENDBRANCH  42  43
ENDBRANCH  41  42
ENDBRANCH  37  41
ENDBRANCH  36  37
ENDBRANCH   2  36
TORSDOF 23
ENDMDL
