MODEL 1
REMARK VINA RESULT:      -7.1      0.000      0.000
REMARK  2 active torsions:
REMARK  status: ('A' for Active; 'I' for Inactive)
REMARK    1  A    between atoms: C_10  and  O_11 
REMARK    2  A    between atoms: C_16  and  O_20 
ROOT
HETATM    1  C   UNK N   1      27.589  19.570   4.698  0.00  0.00     0.018 C 
HETATM    2  C   UNK N   1      27.511  18.077   4.978  0.00  0.00    -0.014 C 
HETATM    3  C   UNK N   1      28.585  17.366   4.119  0.00  0.00     0.012 C 
HETATM    4  C   UNK N   1      29.734  16.730   4.911  0.00  0.00     0.006 C 
HETATM    5  C   UNK N   1      30.206  17.628   6.056  0.00  0.00    -0.002 C 
HETATM    6  C   UNK N   1      29.048  17.996   7.024  0.00  0.00    -0.005 C 
HETATM    7  C   UNK N   1      27.633  17.762   6.464  0.00  0.00     0.001 C 
HETATM    8  C   UNK N   1      27.114  16.331   6.581  0.00  0.00     0.008 C 
HETATM    9  C   UNK N   1      26.128  16.169   5.421  0.00  0.00     0.033 C 
HETATM   10  C   UNK N   1      26.141  17.491   4.654  0.00  0.00     0.126 C 
HETATM   11  C   UNK N   1      29.205  17.448   8.441  0.00  0.00     0.009 C 
HETATM   12  C   UNK N   1      30.538  17.882   9.041  0.00  0.00     0.034 C 
HETATM   13  C   UNK N   1      31.690  17.574   8.129  0.00  0.00    -0.077 C 
HETATM   14  C   UNK N   1      32.937  17.755   8.592  0.00  0.00     0.007 C 
HETATM   15  C   UNK N   1      34.174  17.385   7.809  0.00  0.00     0.141 C 
HETATM   16  C   UNK N   1      33.873  16.551   6.562  0.00  0.00     0.036 C 
HETATM   17  C   UNK N   1      32.652  17.089   5.836  0.00  0.00     0.012 C 
HETATM   18  C   UNK N   1      31.424  16.993   6.747  0.00  0.00     0.019 C 
ENDROOT
BRANCH  10  19
HETATM   19  O   UNK N   1      25.121  18.300   5.170  0.00  0.00    -0.395 OA
HETATM   20  H   UNK N   1      25.144  19.220   5.477  0.00  0.00     0.210 HD
ENDBRANCH  10  19
BRANCH  15  21
HETATM   21  O   UNK N   1      34.884  18.537   7.474  0.00  0.00    -0.392 OA
HETATM   22  H   UNK N   1      34.945  19.505   7.459  0.00  0.00     0.210 HD
ENDBRANCH  15  21
TORSDOF 2
ENDMDL
MODEL 2
REMARK VINA RESULT:      -6.7     14.314     16.493
REMARK  2 active torsions:
REMARK  status: ('A' for Active; 'I' for Inactive)
REMARK    1  A    between atoms: C_10  and  O_11 
REMARK    2  A    between atoms: C_16  and  O_20 
ROOT
HETATM    1  C   UNK N   1      25.590  28.401  -3.893  0.00  0.00     0.018 C 
HETATM    2  C   UNK N   1      26.990  27.918  -4.240  0.00  0.00    -0.014 C 
HETATM    3  C   UNK N   1      27.169  26.494  -3.662  0.00  0.00     0.012 C 
HETATM    4  C   UNK N   1      27.298  25.380  -4.708  0.00  0.00     0.006 C 
HETATM    5  C   UNK N   1      26.320  25.569  -5.869  0.00  0.00    -0.002 C 
HETATM    6  C   UNK N   1      26.491  26.951  -6.558  0.00  0.00    -0.005 C 
HETATM    7  C   UNK N   1      27.271  27.994  -5.736  0.00  0.00     0.001 C 
HETATM    8  C   UNK N   1      28.791  27.894  -5.831  0.00  0.00     0.008 C 
HETATM    9  C   UNK N   1      29.311  28.460  -4.507  0.00  0.00     0.033 C 
HETATM   10  C   UNK N   1      28.079  28.828  -3.680  0.00  0.00     0.126 C 
HETATM   11  C   UNK N   1      26.967  26.885  -8.007  0.00  0.00     0.009 C 
HETATM   12  C   UNK N   1      26.041  26.005  -8.838  0.00  0.00     0.034 C 
HETATM   13  C   UNK N   1      25.819  24.664  -8.200  0.00  0.00    -0.077 C 
HETATM   14  C   UNK N   1      25.153  23.728  -8.895  0.00  0.00     0.007 C 
HETATM   15  C   UNK N   1      24.957  22.314  -8.405  0.00  0.00     0.141 C 
HETATM   16  C   UNK N   1      25.803  21.978  -7.175  0.00  0.00     0.036 C 
HETATM   17  C   UNK N   1      25.795  23.130  -6.184  0.00  0.00     0.012 C 
HETATM   18  C   UNK N   1      26.416  24.372  -6.831  0.00  0.00     0.019 C 
ENDROOT
BRANCH  10  19
HETATM   19  O   UNK N   1      27.778  30.172  -3.928  0.00  0.00    -0.395 OA
HETATM   20  H   UNK N   1      26.988  30.578  -4.318  0.00  0.00     0.210 HD
ENDBRANCH  10  19
BRANCH  15  21
HETATM   21  O   UNK N   1      23.605  22.084  -8.153  0.00  0.00    -0.392 OA
HETATM   22  H   UNK N   1      22.690  22.407  -8.148  0.00  0.00     0.210 HD
ENDBRANCH  15  21
TORSDOF 2
ENDMDL
MODEL 3
REMARK VINA RESULT:      -6.7     11.200     13.966
REMARK  2 active torsions:
REMARK  status: ('A' for Active; 'I' for Inactive)
REMARK    1  A    between atoms: C_10  and  O_11 
REMARK    2  A    between atoms: C_16  and  O_20 
ROOT
HETATM    1  C   UNK N   1      38.286  11.188  14.319  0.00  0.00     0.018 C 
HETATM    2  C   UNK N   1      36.814  11.449  14.035  0.00  0.00    -0.014 C 
HETATM    3  C   UNK N   1      36.058  10.101  14.115  0.00  0.00     0.012 C 
HETATM    4  C   UNK N   1      35.074   9.977  15.285  0.00  0.00     0.006 C 
HETATM    5  C   UNK N   1      35.648  10.559  16.579  0.00  0.00    -0.002 C 
HETATM    6  C   UNK N   1      36.072  12.044  16.412  0.00  0.00    -0.005 C 
HETATM    7  C   UNK N   1      36.231  12.515  14.954  0.00  0.00     0.001 C 
HETATM    8  C   UNK N   1      34.937  12.933  14.260  0.00  0.00     0.008 C 
HETATM    9  C   UNK N   1      35.181  12.669  12.772  0.00  0.00     0.033 C 
HETATM   10  C   UNK N   1      36.585  12.073  12.662  0.00  0.00     0.126 C 
HETATM   11  C   UNK N   1      35.269  13.034  17.253  0.00  0.00     0.009 C 
HETATM   12  C   UNK N   1      35.313  12.647  18.727  0.00  0.00     0.034 C 
HETATM   13  C   UNK N   1      34.937  11.209  18.940  0.00  0.00    -0.077 C 
HETATM   14  C   UNK N   1      34.779  10.770  20.199  0.00  0.00     0.007 C 
HETATM   15  C   UNK N   1      34.305   9.377  20.538  0.00  0.00     0.141 C 
HETATM   16  C   UNK N   1      33.776   8.607  19.327  0.00  0.00     0.036 C 
HETATM   17  C   UNK N   1      34.668   8.828  18.117  0.00  0.00     0.012 C 
HETATM   18  C   UNK N   1      34.669  10.313  17.739  0.00  0.00     0.019 C 
ENDROOT
BRANCH  10  19
HETATM   19  O   UNK N   1      37.483  13.122  12.437  0.00  0.00    -0.395 OA
HETATM   20  H   UNK N   1      38.431  13.191  12.632  0.00  0.00     0.210 HD
ENDBRANCH  10  19
BRANCH  15  21
HETATM   21  O   UNK N   1      35.328   8.669  21.167  0.00  0.00    -0.392 OA
HETATM   22  H   UNK N   1      36.009   7.979  21.132  0.00  0.00     0.210 HD
ENDBRANCH  15  21
TORSDOF 2
ENDMDL
MODEL 4
REMARK VINA RESULT:      -6.7     13.751     15.522
REMARK  2 active torsions:
REMARK  status: ('A' for Active; 'I' for Inactive)
REMARK    1  A    between atoms: C_10  and  O_11 
REMARK    2  A    between atoms: C_16  and  O_20 
ROOT
HETATM    1  C   UNK N   1      27.457  28.457  -6.411  0.00  0.00     0.018 C 
HETATM    2  C   UNK N   1      26.632  27.742  -5.351  0.00  0.00    -0.014 C 
HETATM    3  C   UNK N   1      25.356  27.183  -6.025  0.00  0.00     0.012 C 
HETATM    4  C   UNK N   1      25.277  25.653  -6.098  0.00  0.00     0.006 C 
HETATM    5  C   UNK N   1      26.622  25.027  -6.471  0.00  0.00    -0.002 C 
HETATM    6  C   UNK N   1      27.752  25.444  -5.489  0.00  0.00    -0.005 C 
HETATM    7  C   UNK N   1      27.436  26.675  -4.619  0.00  0.00     0.001 C 
HETATM    8  C   UNK N   1      26.615  26.392  -3.364  0.00  0.00     0.008 C 
HETATM    9  C   UNK N   1      25.856  27.691  -3.083  0.00  0.00     0.033 C 
HETATM   10  C   UNK N   1      26.231  28.662  -4.203  0.00  0.00     0.126 C 
HETATM   11  C   UNK N   1      28.340  24.295  -4.672  0.00  0.00     0.009 C 
HETATM   12  C   UNK N   1      28.836  23.182  -5.587  0.00  0.00     0.034 C 
HETATM   13  C   UNK N   1      27.788  22.762  -6.577  0.00  0.00    -0.077 C 
HETATM   14  C   UNK N   1      28.027  21.685  -7.342  0.00  0.00     0.007 C 
HETATM   15  C   UNK N   1      27.013  21.105  -8.298  0.00  0.00     0.141 C 
HETATM   16  C   UNK N   1      25.612  21.694  -8.124  0.00  0.00     0.036 C 
HETATM   17  C   UNK N   1      25.681  23.197  -7.916  0.00  0.00     0.012 C 
HETATM   18  C   UNK N   1      26.462  23.506  -6.634  0.00  0.00     0.019 C 
ENDROOT
BRANCH  10  19
HETATM   19  O   UNK N   1      27.326  29.420  -3.769  0.00  0.00    -0.395 OA
HETATM   20  H   UNK N   1      27.890  30.043  -4.253  0.00  0.00     0.210 HD
ENDBRANCH  10  19
BRANCH  15  21
HETATM   21  O   UNK N   1      27.456  21.263  -9.611  0.00  0.00    -0.392 OA
HETATM   22  H   UNK N   1      27.327  21.108 -10.560  0.00  0.00     0.210 HD
ENDBRANCH  15  21
TORSDOF 2
ENDMDL
MODEL 5
REMARK VINA RESULT:      -6.5      2.764      5.461
REMARK  2 active torsions:
REMARK  status: ('A' for Active; 'I' for Inactive)
REMARK    1  A    between atoms: C_10  and  O_11 
REMARK    2  A    between atoms: C_16  and  O_20 
ROOT
HETATM    1  C   UNK N   1      31.187  13.118   4.498  0.00  0.00     0.018 C 
HETATM    2  C   UNK N   1      31.751  14.441   4.001  0.00  0.00    -0.014 C 
HETATM    3  C   UNK N   1      30.574  15.316   3.509  0.00  0.00     0.012 C 
HETATM    4  C   UNK N   1      30.298  16.568   4.351  0.00  0.00     0.006 C 
HETATM    5  C   UNK N   1      30.407  16.284   5.850  0.00  0.00    -0.002 C 
HETATM    6  C   UNK N   1      31.792  15.695   6.233  0.00  0.00    -0.005 C 
HETATM    7  C   UNK N   1      32.608  15.133   5.054  0.00  0.00     0.001 C 
HETATM    8  C   UNK N   1      33.403  16.167   4.261  0.00  0.00     0.008 C 
HETATM    9  C   UNK N   1      33.517  15.584   2.850  0.00  0.00     0.033 C 
HETATM   10  C   UNK N   1      32.753  14.260   2.865  0.00  0.00     0.126 C 
HETATM   11  C   UNK N   1      32.633  16.586   7.144  0.00  0.00     0.009 C 
HETATM   12  C   UNK N   1      31.859  16.949   8.407  0.00  0.00     0.034 C 
HETATM   13  C   UNK N   1      30.498  17.499   8.091  0.00  0.00    -0.077 C 
HETATM   14  C   UNK N   1      29.766  18.007   9.095  0.00  0.00     0.007 C 
HETATM   15  C   UNK N   1      28.430  18.679   8.889  0.00  0.00     0.141 C 
HETATM   16  C   UNK N   1      28.113  18.958   7.418  0.00  0.00     0.036 C 
HETATM   17  C   UNK N   1      28.506  17.775   6.549  0.00  0.00     0.012 C 
HETATM   18  C   UNK N   1      30.017  17.541   6.647  0.00  0.00     0.019 C 
ENDROOT
BRANCH  10  19
HETATM   19  O   UNK N   1      33.663  13.240   3.164  0.00  0.00    -0.395 OA
HETATM   20  H   UNK N   1      34.227  13.108   3.943  0.00  0.00     0.210 HD
ENDBRANCH  10  19
BRANCH  15  21
HETATM   21  O   UNK N   1      27.421  17.917   9.476  0.00  0.00    -0.392 OA
HETATM   22  H   UNK N   1      26.935  17.646  10.270  0.00  0.00     0.210 HD
ENDBRANCH  15  21
TORSDOF 2
ENDMDL
MODEL 6
REMARK VINA RESULT:      -6.5     13.768     16.123
REMARK  2 active torsions:
REMARK  status: ('A' for Active; 'I' for Inactive)
REMARK    1  A    between atoms: C_10  and  O_11 
REMARK    2  A    between atoms: C_16  and  O_20 
ROOT
HETATM    1  C   UNK N   1      29.731  28.349  -4.882  0.00  0.00     0.018 C 
HETATM    2  C   UNK N   1      28.264  28.748  -4.840  0.00  0.00    -0.014 C 
HETATM    3  C   UNK N   1      27.747  28.853  -6.295  0.00  0.00     0.012 C 
HETATM    4  C   UNK N   1      26.711  27.795  -6.695  0.00  0.00     0.006 C 
HETATM    5  C   UNK N   1      27.071  26.409  -6.156  0.00  0.00    -0.002 C 
HETATM    6  C   UNK N   1      27.244  26.410  -4.613  0.00  0.00    -0.005 C 
HETATM    7  C   UNK N   1      27.434  27.801  -3.980  0.00  0.00     0.001 C 
HETATM    8  C   UNK N   1      26.147  28.577  -3.715  0.00  0.00     0.008 C 
HETATM    9  C   UNK N   1      26.550  30.053  -3.786  0.00  0.00     0.033 C 
HETATM   10  C   UNK N   1      28.039  30.079  -4.130  0.00  0.00     0.126 C 
HETATM   11  C   UNK N   1      26.219  25.568  -3.857  0.00  0.00     0.009 C 
HETATM   12  C   UNK N   1      26.212  24.135  -4.375  0.00  0.00     0.034 C 
HETATM   13  C   UNK N   1      26.075  24.079  -5.869  0.00  0.00    -0.077 C 
HETATM   14  C   UNK N   1      25.895  22.883  -6.450  0.00  0.00     0.007 C 
HETATM   15  C   UNK N   1      25.643  22.708  -7.929  0.00  0.00     0.141 C 
HETATM   16  C   UNK N   1      25.353  24.025  -8.652  0.00  0.00     0.036 C 
HETATM   17  C   UNK N   1      26.286  25.122  -8.169  0.00  0.00     0.012 C 
HETATM   18  C   UNK N   1      26.061  25.371  -6.674  0.00  0.00     0.019 C 
ENDROOT
BRANCH  10  19
HETATM   19  O   UNK N   1      28.758  30.128  -2.930  0.00  0.00    -0.395 OA
HETATM   20  H   UNK N   1      28.992  30.883  -2.368  0.00  0.00     0.210 HD
ENDBRANCH  10  19
BRANCH  15  21
HETATM   21  O   UNK N   1      26.720  22.047  -8.517  0.00  0.00    -0.392 OA
HETATM   22  H   UNK N   1      27.637  21.734  -8.465  0.00  0.00     0.210 HD
ENDBRANCH  15  21
TORSDOF 2
ENDMDL
MODEL 7
REMARK VINA RESULT:      -6.5      3.165      4.791
REMARK  2 active torsions:
REMARK  status: ('A' for Active; 'I' for Inactive)
REMARK    1  A    between atoms: C_10  and  O_11 
REMARK    2  A    between atoms: C_16  and  O_20 
ROOT
HETATM    1  C   UNK N   1      33.670  15.458   3.870  0.00  0.00     0.018 C 
HETATM    2  C   UNK N   1      32.413  15.737   4.681  0.00  0.00    -0.014 C 
HETATM    3  C   UNK N   1      32.128  14.505   5.573  0.00  0.00     0.012 C 
HETATM    4  C   UNK N   1      32.292  14.742   7.080  0.00  0.00     0.006 C 
HETATM    5  C   UNK N   1      33.526  15.589   7.395  0.00  0.00    -0.002 C 
HETATM    6  C   UNK N   1      33.501  16.954   6.653  0.00  0.00    -0.005 C 
HETATM    7  C   UNK N   1      32.515  17.035   5.473  0.00  0.00     0.001 C 
HETATM    8  C   UNK N   1      31.071  17.351   5.850  0.00  0.00     0.008 C 
HETATM    9  C   UNK N   1      30.222  16.709   4.750  0.00  0.00     0.033 C 
HETATM   10  C   UNK N   1      31.197  16.012   3.802  0.00  0.00     0.126 C 
HETATM   11  C   UNK N   1      33.406  18.174   7.568  0.00  0.00     0.009 C 
HETATM   12  C   UNK N   1      34.532  18.165   8.595  0.00  0.00     0.034 C 
HETATM   13  C   UNK N   1      34.618  16.853   9.322  0.00  0.00    -0.077 C 
HETATM   14  C   UNK N   1      35.458  16.754  10.364  0.00  0.00     0.007 C 
HETATM   15  C   UNK N   1      35.558  15.524  11.235  0.00  0.00     0.141 C 
HETATM   16  C   UNK N   1      34.438  14.513  10.983  0.00  0.00     0.036 C 
HETATM   17  C   UNK N   1      34.170  14.365   9.495  0.00  0.00     0.012 C 
HETATM   18  C   UNK N   1      33.703  15.706   8.918  0.00  0.00     0.019 C 
ENDROOT
BRANCH  10  19
HETATM   19  O   UNK N   1      31.520  16.911   2.778  0.00  0.00    -0.395 OA
HETATM   20  H   UNK N   1      32.306  16.964   2.212  0.00  0.00     0.210 HD
ENDBRANCH  10  19
BRANCH  15  21
HETATM   21  O   UNK N   1      36.808  14.929  11.071  0.00  0.00    -0.392 OA
HETATM   22  H   UNK N   1      37.563  14.717  10.500  0.00  0.00     0.210 HD
ENDBRANCH  15  21
TORSDOF 2
ENDMDL
MODEL 8
REMARK VINA RESULT:      -6.5     12.346     15.198
REMARK  2 active torsions:
REMARK  status: ('A' for Active; 'I' for Inactive)
REMARK    1  A    between atoms: C_10  and  O_11 
REMARK    2  A    between atoms: C_16  and  O_20 
ROOT
HETATM    1  C   UNK N   1      33.463   8.733  19.656  0.00  0.00     0.018 C 
HETATM    2  C   UNK N   1      34.949   9.022  19.808  0.00  0.00    -0.014 C 
HETATM    3  C   UNK N   1      35.693   8.383  18.611  0.00  0.00     0.012 C 
HETATM    4  C   UNK N   1      36.327   9.379  17.633  0.00  0.00     0.006 C 
HETATM    5  C   UNK N   1      35.410  10.572  17.357  0.00  0.00    -0.002 C 
HETATM    6  C   UNK N   1      35.006  11.311  18.663  0.00  0.00    -0.005 C 
HETATM    7  C   UNK N   1      35.233  10.511  19.959  0.00  0.00     0.001 C 
HETATM    8  C   UNK N   1      36.653  10.561  20.515  0.00  0.00     0.008 C 
HETATM    9  C   UNK N   1      36.827   9.248  21.281  0.00  0.00     0.033 C 
HETATM   10  C   UNK N   1      35.523   8.470  21.109  0.00  0.00     0.126 C 
HETATM   11  C   UNK N   1      35.524  12.744  18.770  0.00  0.00     0.009 C 
HETATM   12  C   UNK N   1      35.095  13.563  17.559  0.00  0.00     0.034 C 
HETATM   13  C   UNK N   1      35.439  12.878  16.268  0.00  0.00    -0.077 C 
HETATM   14  C   UNK N   1      35.265  13.553  15.120  0.00  0.00     0.007 C 
HETATM   15  C   UNK N   1      35.668  13.011  13.770  0.00  0.00     0.141 C 
HETATM   16  C   UNK N   1      36.525  11.746  13.858  0.00  0.00     0.036 C 
HETATM   17  C   UNK N   1      35.987  10.803  14.920  0.00  0.00     0.012 C 
HETATM   18  C   UNK N   1      36.046  11.483  16.293  0.00  0.00     0.019 C 
ENDROOT
BRANCH  10  19
HETATM   19  O   UNK N   1      34.689   8.780  22.190  0.00  0.00    -0.395 OA
HETATM   20  H   UNK N   1      33.960   9.416  22.260  0.00  0.00     0.210 HD
ENDBRANCH  10  19
BRANCH  15  21
HETATM   21  O   UNK N   1      34.534  12.786  12.992  0.00  0.00    -0.392 OA
HETATM   22  H   UNK N   1      33.786  12.217  12.752  0.00  0.00     0.210 HD
ENDBRANCH  15  21
TORSDOF 2
ENDMDL
MODEL 9
REMARK VINA RESULT:      -6.4      1.247      2.810
REMARK  2 active torsions:
REMARK  status: ('A' for Active; 'I' for Inactive)
REMARK    1  A    between atoms: C_10  and  O_11 
REMARK    2  A    between atoms: C_16  and  O_20 
ROOT
HETATM    1  C   UNK N   1      27.517  15.300   5.631  0.00  0.00     0.018 C 
HETATM    2  C   UNK N   1      27.688  16.807   5.755  0.00  0.00    -0.014 C 
HETATM    3  C   UNK N   1      27.996  17.140   7.234  0.00  0.00     0.012 C 
HETATM    4  C   UNK N   1      29.408  17.677   7.499  0.00  0.00     0.006 C 
HETATM    5  C   UNK N   1      30.467  16.920   6.696  0.00  0.00    -0.002 C 
HETATM    6  C   UNK N   1      30.176  16.953   5.170  0.00  0.00    -0.005 C 
HETATM    7  C   UNK N   1      28.737  17.348   4.791  0.00  0.00     0.001 C 
HETATM    8  C   UNK N   1      28.462  18.849   4.753  0.00  0.00     0.008 C 
HETATM    9  C   UNK N   1      26.970  18.989   5.067  0.00  0.00     0.033 C 
HETATM   10  C   UNK N   1      26.445  17.574   5.315  0.00  0.00     0.126 C 
HETATM   11  C   UNK N   1      31.217  17.701   4.340  0.00  0.00     0.009 C 
HETATM   12  C   UNK N   1      32.610  17.135   4.587  0.00  0.00     0.034 C 
HETATM   13  C   UNK N   1      32.931  17.056   6.052  0.00  0.00    -0.077 C 
HETATM   14  C   UNK N   1      34.181  16.726   6.415  0.00  0.00     0.007 C 
HETATM   15  C   UNK N   1      34.651  16.713   7.850  0.00  0.00     0.141 C 
HETATM   16  C   UNK N   1      33.656  17.356   8.818  0.00  0.00     0.036 C 
HETATM   17  C   UNK N   1      32.234  16.940   8.485  0.00  0.00     0.012 C 
HETATM   18  C   UNK N   1      31.869  17.425   7.078  0.00  0.00     0.019 C 
ENDROOT
BRANCH  10  19
HETATM   19  O   UNK N   1      25.958  17.076   4.101  0.00  0.00    -0.395 OA
HETATM   20  H   UNK N   1      25.506  17.528   3.372  0.00  0.00     0.210 HD
ENDBRANCH  10  19
BRANCH  15  21
HETATM   21  O   UNK N   1      34.945  15.407   8.239  0.00  0.00    -0.392 OA
HETATM   22  H   UNK N   1      34.797  14.662   8.843  0.00  0.00     0.210 HD
ENDBRANCH  15  21
TORSDOF 2
ENDMDL
