MODEL 1
REMARK VINA RESULT:      -7.7      0.000      0.000
REMARK  21 active torsions:
REMARK  status: ('A' for Active; 'I' for Inactive)
REMARK    1  A    between atoms: C_8  and  C_5 
REMARK    2  A    between atoms: C_15  and  C_5 
REMARK    3  A    between atoms: C_18  and  C_8 
REMARK    4  A    between atoms: C_14  and  C_13 
REMARK    5  A    between atoms: C_21  and  C_13 
REMARK    6  A    between atoms: C_22  and  C_14 
REMARK    7  A    between atoms: N_28  and  C_15 
REMARK    8  A    between atoms: C_19  and  C_16 
REMARK    9  A    between atoms: N_29  and  C_16 
REMARK   10  A    between atoms: C_23  and  C_17 
REMARK   11  A    between atoms: N_29  and  C_17 
REMARK   12  A    between atoms: O_39  and  C_20 
REMARK   13  A    between atoms: C_24  and  C_21 
REMARK   14  A    between atoms: C_21  and  N_26 
REMARK   15  A    between atoms: O_31  and  C_22 
REMARK   16  A    between atoms: O_33  and  C_23 
REMARK       I    between atoms: N_28  and  C_24 
REMARK   17  A    between atoms: N_29  and  C_25 
REMARK   18  A    between atoms: C_25  and  O_35 
REMARK   19  A    between atoms: P_40  and  O_36 
REMARK   20  A    between atoms: P_40  and  O_37 
REMARK   21  A    between atoms: P_40  and  O_39 
ROOT
HETATM    1  C   UNK N   1      25.241  17.444   4.922  0.00  0.00     0.216 C 
HETATM    2  N   UNK N   1      24.231  18.095   5.419  0.00  0.00    -0.343 N 
ATOM      3  HN  UNK N   1      24.396  18.792   6.144  1.00  0.00     0.164 HD
ENDROOT
BRANCH   1   4
HETATM    4  N   UNK N   1      26.562  17.673   5.405  0.00  0.00    -0.334 N 
BRANCH   4   5
HETATM    5  C   UNK N   1      27.042  16.828   6.488  0.00  0.00     0.165 C 
BRANCH   5   6
HETATM    6  C   UNK N   1      28.530  16.773   6.490  0.00  0.00    -0.040 A 
HETATM    7  C   UNK N   1      29.264  17.503   7.433  0.00  0.00     0.011 A 
HETATM    8  C   UNK N   1      30.653  17.334   7.514  0.00  0.00     0.038 A 
HETATM    9  C   UNK N   1      31.293  16.423   6.656  0.00  0.00     0.081 A 
HETATM   10  C   UNK N   1      30.559  15.742   5.688  0.00  0.00     0.038 A 
HETATM   11  C   UNK N   1      29.188  15.924   5.596  0.00  0.00     0.011 A 
BRANCH   9  12
HETATM   12  O   UNK N   1      32.580  16.082   6.844  0.00  0.00    -0.255 OA
BRANCH  12  13
HETATM   13  P   UNK N   1      33.772  17.224   6.350  0.00  0.00     0.396 P 
HETATM   14  O   UNK N   1      33.447  17.910   4.990  0.00  0.00    -0.631 OA
BRANCH  13  15
HETATM   15  O   UNK N   1      34.622  18.243   7.474  0.00  0.00    -0.307 OA
HETATM   16  H   UNK N   1      34.534  18.159   8.437  0.00  0.00     0.222 HD
ENDBRANCH  13  15
BRANCH  13  17
HETATM   17  O   UNK N   1      35.011  16.157   5.865  0.00  0.00    -0.307 OA
HETATM   18  H   UNK N   1      35.608  15.413   6.049  0.00  0.00     0.222 HD
ENDBRANCH  13  17
ENDBRANCH  12  13
ENDBRANCH   9  12
ENDBRANCH   5   6
ENDBRANCH   4   5
BRANCH   4  19
HETATM   19  C   UNK N   1      27.404  18.726   4.870  0.00  0.00     0.236 C 
BRANCH  19  20
HETATM   20  C   UNK N   1      27.074  20.068   5.474  0.00  0.00     0.158 C 
HETATM   21  O   UNK N   1      27.803  20.567   6.316  0.00  0.00    -0.649 OA
BRANCH  20  22
HETATM   22  O   UNK N   1      25.957  20.715   5.098  0.00  0.00    -0.775 OA
HETATM   23  H   UNK N   1      25.443  21.179   5.728  0.00  0.00     0.167 HD
ENDBRANCH  20  22
ENDBRANCH  19  20
ENDBRANCH   4  19
ENDBRANCH   1   4
BRANCH   1  24
HETATM   24  O   UNK N   1      25.050  16.532   3.946  0.00  0.00    -0.333 OA
HETATM   25  H   UNK N   1      25.076  15.598   3.864  0.00  0.00     0.220 HD
ENDBRANCH   1  24
BRANCH   2  26
HETATM   26  C   UNK N   1      22.870  17.852   4.965  0.00  0.00     0.177 C 
BRANCH  26  27
HETATM   27  C   UNK N   1      22.424  18.923   3.953  0.00  0.00     0.045 C 
BRANCH  27  28
HETATM   28  C   UNK N   1      21.275  18.493   3.049  0.00  0.00     0.112 C 
BRANCH  28  29
HETATM   29  C   UNK N   1      20.187  19.510   3.147  0.00  0.00     0.139 C 
HETATM   30  O   UNK N   1      20.334  20.494   3.854  0.00  0.00    -0.650 OA
BRANCH  29  31
HETATM   31  O   UNK N   1      19.051  19.354   2.442  0.00  0.00    -0.776 OA
HETATM   32  H   UNK N   1      19.016  19.055   1.555  0.00  0.00     0.167 HD
ENDBRANCH  29  31
ENDBRANCH  28  29
ENDBRANCH  27  28
ENDBRANCH  26  27
BRANCH  26  33
HETATM   33  C   UNK N   1      21.930  17.494   6.131  0.00  0.00     0.242 C 
HETATM   34  N   UNK N   1      21.684  16.212   6.569  0.00  0.00    -0.355 N 
HETATM   35  C   UNK N   1      22.215  15.056   5.902  0.00  0.00     0.152 C 
HETATM   36  O   UNK N   1      21.450  18.430   6.756  0.00  0.00    -0.271 OA
BRANCH  34  37
HETATM   37  C   UNK N   1      21.081  16.003   7.875  0.00  0.00     0.125 C 
BRANCH  37  38
HETATM   38  C   UNK N   1      20.661  14.566   8.154  0.00  0.00     0.020 C 
BRANCH  38  39
HETATM   39  C   UNK N   1      20.809  14.116   9.612  0.00  0.00     0.006 C 
BRANCH  39  40
HETATM   40  C   UNK N   1      22.120  13.418  10.005  0.00  0.00    -0.014 C 
HETATM   41  C   UNK N   1      21.926  12.387  11.111  0.00  0.00     0.004 C 
HETATM   42  C   UNK N   1      23.249  11.841  11.657  0.00  0.00     0.000 C 
HETATM   43  C   UNK N   1      24.454  12.181  10.777  0.00  0.00     0.000 C 
HETATM   44  C   UNK N   1      24.118  11.984   9.297  0.00  0.00     0.000 C 
HETATM   45  C   UNK N   1      22.921  12.837   8.833  0.00  0.00     0.004 C 
ENDBRANCH  39  40
ENDBRANCH  38  39
ENDBRANCH  37  38
ENDBRANCH  34  37
ENDBRANCH  26  33
ENDBRANCH   2  26
TORSDOF 21
ENDMDL
MODEL 2
REMARK VINA RESULT:      -7.6      2.469      3.208
REMARK  21 active torsions:
REMARK  status: ('A' for Active; 'I' for Inactive)
REMARK    1  A    between atoms: C_8  and  C_5 
REMARK    2  A    between atoms: C_15  and  C_5 
REMARK    3  A    between atoms: C_18  and  C_8 
REMARK    4  A    between atoms: C_14  and  C_13 
REMARK    5  A    between atoms: C_21  and  C_13 
REMARK    6  A    between atoms: C_22  and  C_14 
REMARK    7  A    between atoms: N_28  and  C_15 
REMARK    8  A    between atoms: C_19  and  C_16 
REMARK    9  A    between atoms: N_29  and  C_16 
REMARK   10  A    between atoms: C_23  and  C_17 
REMARK   11  A    between atoms: N_29  and  C_17 
REMARK   12  A    between atoms: O_39  and  C_20 
REMARK   13  A    between atoms: C_24  and  C_21 
REMARK   14  A    between atoms: C_21  and  N_26 
REMARK   15  A    between atoms: O_31  and  C_22 
REMARK   16  A    between atoms: O_33  and  C_23 
REMARK       I    between atoms: N_28  and  C_24 
REMARK   17  A    between atoms: N_29  and  C_25 
REMARK   18  A    between atoms: C_25  and  O_35 
REMARK   19  A    between atoms: P_40  and  O_36 
REMARK   20  A    between atoms: P_40  and  O_37 
REMARK   21  A    between atoms: P_40  and  O_39 
ROOT
HETATM    1  C   UNK N   1      23.513  17.883   4.221  0.00  0.00     0.216 C 
HETATM    2  N   UNK N   1      22.424  18.457   4.642  0.00  0.00    -0.343 N 
ATOM      3  HN  UNK N   1      22.418  19.466   4.789  1.00  0.00     0.164 HD
ENDROOT
BRANCH   1   4
HETATM    4  N   UNK N   1      24.696  18.644   3.997  0.00  0.00    -0.334 N 
BRANCH   4   5
HETATM    5  C   UNK N   1      25.927  17.917   3.728  0.00  0.00     0.165 C 
BRANCH   5   6
HETATM    6  C   UNK N   1      26.716  17.739   4.979  0.00  0.00    -0.040 A 
HETATM    7  C   UNK N   1      26.625  16.547   5.708  0.00  0.00     0.011 A 
HETATM    8  C   UNK N   1      27.475  16.337   6.803  0.00  0.00     0.038 A 
HETATM    9  C   UNK N   1      28.418  17.321   7.149  0.00  0.00     0.081 A 
HETATM   10  C   UNK N   1      28.461  18.523   6.448  0.00  0.00     0.038 A 
HETATM   11  C   UNK N   1      27.607  18.738   5.377  0.00  0.00     0.011 A 
BRANCH   9  12
HETATM   12  O   UNK N   1      29.381  17.069   8.053  0.00  0.00    -0.255 OA
BRANCH  12  13
HETATM   13  P   UNK N   1      29.089  17.583   9.672  0.00  0.00     0.396 P 
HETATM   14  O   UNK N   1      28.863  16.404  10.664  0.00  0.00    -0.631 OA
BRANCH  13  15
HETATM   15  O   UNK N   1      29.878  18.963  10.377  0.00  0.00    -0.307 OA
HETATM   16  H   UNK N   1      30.817  19.165  10.240  0.00  0.00     0.222 HD
ENDBRANCH  13  15
BRANCH  13  17
HETATM   17  O   UNK N   1      27.492  18.157   9.510  0.00  0.00    -0.307 OA
HETATM   18  H   UNK N   1      26.691  18.294   8.978  0.00  0.00     0.222 HD
ENDBRANCH  13  17
ENDBRANCH  12  13
ENDBRANCH   9  12
ENDBRANCH   5   6
ENDBRANCH   4   5
BRANCH   4  19
HETATM   19  C   UNK N   1      24.701  20.093   4.063  0.00  0.00     0.236 C 
BRANCH  19  20
HETATM   20  C   UNK N   1      24.224  20.715   2.774  0.00  0.00     0.158 C 
HETATM   21  O   UNK N   1      24.836  20.536   1.733  0.00  0.00    -0.649 OA
BRANCH  20  22
HETATM   22  O   UNK N   1      23.125  21.489   2.771  0.00  0.00    -0.775 OA
HETATM   23  H   UNK N   1      22.679  21.674   1.969  0.00  0.00     0.167 HD
ENDBRANCH  20  22
ENDBRANCH  19  20
ENDBRANCH   4  19
ENDBRANCH   1   4
BRANCH   1  24
HETATM   24  O   UNK N   1      23.538  16.553   3.998  0.00  0.00    -0.333 OA
HETATM   25  H   UNK N   1      23.136  15.948   3.405  0.00  0.00     0.220 HD
ENDBRANCH   1  24
BRANCH   2  26
HETATM   26  C   UNK N   1      21.214  17.694   4.910  0.00  0.00     0.177 C 
BRANCH  26  27
HETATM   27  C   UNK N   1      20.065  18.134   3.984  0.00  0.00     0.045 C 
BRANCH  27  28
HETATM   28  C   UNK N   1      20.504  18.509   2.574  0.00  0.00     0.112 C 
BRANCH  28  29
HETATM   29  C   UNK N   1      20.445  19.994   2.437  0.00  0.00     0.139 C 
HETATM   30  O   UNK N   1      20.399  20.696   3.433  0.00  0.00    -0.650 OA
BRANCH  29  31
HETATM   31  O   UNK N   1      20.463  20.560   1.215  0.00  0.00    -0.776 OA
HETATM   32  H   UNK N   1      20.063  21.382   1.009  0.00  0.00     0.167 HD
ENDBRANCH  29  31
ENDBRANCH  28  29
ENDBRANCH  27  28
ENDBRANCH  26  27
BRANCH  26  33
HETATM   33  C   UNK N   1      20.942  17.557   6.419  0.00  0.00     0.242 C 
HETATM   34  N   UNK N   1      20.502  16.405   7.031  0.00  0.00    -0.355 N 
HETATM   35  C   UNK N   1      20.152  15.226   6.289  0.00  0.00     0.152 C 
HETATM   36  O   UNK N   1      21.230  18.520   7.118  0.00  0.00    -0.271 OA
BRANCH  34  37
HETATM   37  C   UNK N   1      20.618  16.269   8.474  0.00  0.00     0.125 C 
BRANCH  37  38
HETATM   38  C   UNK N   1      20.543  14.835   8.981  0.00  0.00     0.020 C 
BRANCH  38  39
HETATM   39  C   UNK N   1      21.829  14.017   8.813  0.00  0.00     0.006 C 
BRANCH  39  40
HETATM   40  C   UNK N   1      22.413  13.354  10.070  0.00  0.00    -0.014 C 
HETATM   41  C   UNK N   1      21.505  12.269  10.636  0.00  0.00     0.004 C 
HETATM   42  C   UNK N   1      21.972  11.752  12.000  0.00  0.00     0.000 C 
HETATM   43  C   UNK N   1      23.399  12.176  12.353  0.00  0.00     0.000 C 
HETATM   44  C   UNK N   1      24.324  12.032  11.142  0.00  0.00     0.000 C 
HETATM   45  C   UNK N   1      23.857  12.858   9.927  0.00  0.00     0.004 C 
ENDBRANCH  39  40
ENDBRANCH  38  39
ENDBRANCH  37  38
ENDBRANCH  34  37
ENDBRANCH  26  33
ENDBRANCH   2  26
TORSDOF 21
ENDMDL
MODEL 3
REMARK VINA RESULT:      -7.4      4.617      9.377
REMARK  21 active torsions:
REMARK  status: ('A' for Active; 'I' for Inactive)
REMARK    1  A    between atoms: C_8  and  C_5 
REMARK    2  A    between atoms: C_15  and  C_5 
REMARK    3  A    between atoms: C_18  and  C_8 
REMARK    4  A    between atoms: C_14  and  C_13 
REMARK    5  A    between atoms: C_21  and  C_13 
REMARK    6  A    between atoms: C_22  and  C_14 
REMARK    7  A    between atoms: N_28  and  C_15 
REMARK    8  A    between atoms: C_19  and  C_16 
REMARK    9  A    between atoms: N_29  and  C_16 
REMARK   10  A    between atoms: C_23  and  C_17 
REMARK   11  A    between atoms: N_29  and  C_17 
REMARK   12  A    between atoms: O_39  and  C_20 
REMARK   13  A    between atoms: C_24  and  C_21 
REMARK   14  A    between atoms: C_21  and  N_26 
REMARK   15  A    between atoms: O_31  and  C_22 
REMARK   16  A    between atoms: O_33  and  C_23 
REMARK       I    between atoms: N_28  and  C_24 
REMARK   17  A    between atoms: N_29  and  C_25 
REMARK   18  A    between atoms: C_25  and  O_35 
REMARK   19  A    between atoms: P_40  and  O_36 
REMARK   20  A    between atoms: P_40  and  O_37 
REMARK   21  A    between atoms: P_40  and  O_39 
ROOT
HETATM    1  C   UNK N   1      20.936  14.309   7.450  0.00  0.00     0.216 C 
HETATM    2  N   UNK N   1      22.052  14.186   8.107  0.00  0.00    -0.343 N 
ATOM      3  HN  UNK N   1      22.364  14.949   8.706  1.00  0.00     0.164 HD
ENDROOT
BRANCH   1   4
HETATM    4  N   UNK N   1      20.172  15.508   7.535  0.00  0.00    -0.334 N 
BRANCH   4   5
HETATM    5  C   UNK N   1      19.380  15.889   6.376  0.00  0.00     0.165 C 
BRANCH   5   6
HETATM    6  C   UNK N   1      20.215  16.626   5.387  0.00  0.00    -0.040 A 
HETATM    7  C   UNK N   1      20.039  16.413   4.015  0.00  0.00     0.011 A 
HETATM    8  C   UNK N   1      20.731  17.211   3.094  0.00  0.00     0.038 A 
HETATM    9  C   UNK N   1      21.587  18.225   3.558  0.00  0.00     0.081 A 
HETATM   10  C   UNK N   1      21.793  18.391   4.926  0.00  0.00     0.038 A 
HETATM   11  C   UNK N   1      21.122  17.589   5.836  0.00  0.00     0.011 A 
BRANCH   9  12
HETATM   12  O   UNK N   1      22.101  19.138   2.716  0.00  0.00    -0.255 OA
BRANCH  12  13
HETATM   13  P   UNK N   1      21.250  20.629   2.563  0.00  0.00     0.396 P 
HETATM   14  O   UNK N   1      20.920  21.005   1.088  0.00  0.00    -0.631 OA
BRANCH  13  15
HETATM   15  O   UNK N   1      20.055  21.153   3.714  0.00  0.00    -0.307 OA
HETATM   16  H   UNK N   1      20.279  21.613   4.538  0.00  0.00     0.222 HD
ENDBRANCH  13  15
BRANCH  13  17
HETATM   17  O   UNK N   1      22.521  21.721   2.881  0.00  0.00    -0.307 OA
HETATM   18  H   UNK N   1      23.168  22.113   3.489  0.00  0.00     0.222 HD
ENDBRANCH  13  17
ENDBRANCH  12  13
ENDBRANCH   9  12
ENDBRANCH   5   6
ENDBRANCH   4   5
BRANCH   4  19
HETATM   19  C   UNK N   1      20.194  16.352   8.715  0.00  0.00     0.236 C 
BRANCH  19  20
HETATM   20  C   UNK N   1      18.809  16.802   9.108  0.00  0.00     0.158 C 
HETATM   21  O   UNK N   1      17.954  15.987   9.415  0.00  0.00    -0.649 OA
BRANCH  20  22
HETATM   22  O   UNK N   1      18.505  18.112   9.104  0.00  0.00    -0.775 OA
HETATM   23  H   UNK N   1      18.744  18.656   9.827  0.00  0.00     0.167 HD
ENDBRANCH  20  22
ENDBRANCH  19  20
ENDBRANCH   4  19
ENDBRANCH   1   4
BRANCH   1  24
HETATM   24  O   UNK N   1      20.491  13.304   6.668  0.00  0.00    -0.333 OA
HETATM   25  H   UNK N   1      19.662  12.942   6.421  0.00  0.00     0.220 HD
ENDBRANCH   1  24
BRANCH   2  26
HETATM   26  C   UNK N   1      22.865  12.983   8.007  0.00  0.00     0.177 C 
BRANCH  26  27
HETATM   27  C   UNK N   1      22.603  12.037   9.194  0.00  0.00     0.045 C 
BRANCH  27  28
HETATM   28  C   UNK N   1      22.364  12.747  10.521  0.00  0.00     0.112 C 
BRANCH  28  29
HETATM   29  C   UNK N   1      20.955  12.499  10.945  0.00  0.00     0.139 C 
HETATM   30  O   UNK N   1      20.037  13.053  10.361  0.00  0.00    -0.650 OA
BRANCH  29  31
HETATM   31  O   UNK N   1      20.693  11.652  11.958  0.00  0.00    -0.776 OA
HETATM   32  H   UNK N   1      20.932  11.806  12.850  0.00  0.00     0.167 HD
ENDBRANCH  29  31
ENDBRANCH  28  29
ENDBRANCH  27  28
ENDBRANCH  26  27
BRANCH  26  33
HETATM   33  C   UNK N   1      24.320  13.303   7.619  0.00  0.00     0.242 C 
HETATM   34  N   UNK N   1      24.748  13.553   6.334  0.00  0.00    -0.355 N 
HETATM   35  C   UNK N   1      23.876  13.438   5.198  0.00  0.00     0.152 C 
HETATM   36  O   UNK N   1      25.118  13.430   8.538  0.00  0.00    -0.271 OA
BRANCH  34  37
HETATM   37  C   UNK N   1      26.037  14.188   6.117  0.00  0.00     0.125 C 
BRANCH  37  38
HETATM   38  C   UNK N   1      26.103  15.082   4.886  0.00  0.00     0.020 C 
BRANCH  38  39
HETATM   39  C   UNK N   1      27.204  16.147   4.913  0.00  0.00     0.006 C 
BRANCH  39  40
HETATM   40  C   UNK N   1      26.782  17.606   4.681  0.00  0.00    -0.014 C 
HETATM   41  C   UNK N   1      27.949  18.495   4.266  0.00  0.00     0.004 C 
HETATM   42  C   UNK N   1      27.585  19.983   4.240  0.00  0.00     0.000 C 
HETATM   43  C   UNK N   1      26.079  20.240   4.306  0.00  0.00     0.000 C 
HETATM   44  C   UNK N   1      25.321  19.269   3.397  0.00  0.00     0.000 C 
HETATM   45  C   UNK N   1      25.578  17.791   3.749  0.00  0.00     0.004 C 
ENDBRANCH  39  40
ENDBRANCH  38  39
ENDBRANCH  37  38
ENDBRANCH  34  37
ENDBRANCH  26  33
ENDBRANCH   2  26
TORSDOF 21
ENDMDL
MODEL 4
REMARK VINA RESULT:      -7.3      2.583      3.595
REMARK  21 active torsions:
REMARK  status: ('A' for Active; 'I' for Inactive)
REMARK    1  A    between atoms: C_8  and  C_5 
REMARK    2  A    between atoms: C_15  and  C_5 
REMARK    3  A    between atoms: C_18  and  C_8 
REMARK    4  A    between atoms: C_14  and  C_13 
REMARK    5  A    between atoms: C_21  and  C_13 
REMARK    6  A    between atoms: C_22  and  C_14 
REMARK    7  A    between atoms: N_28  and  C_15 
REMARK    8  A    between atoms: C_19  and  C_16 
REMARK    9  A    between atoms: N_29  and  C_16 
REMARK   10  A    between atoms: C_23  and  C_17 
REMARK   11  A    between atoms: N_29  and  C_17 
REMARK   12  A    between atoms: O_39  and  C_20 
REMARK   13  A    between atoms: C_24  and  C_21 
REMARK   14  A    between atoms: C_21  and  N_26 
REMARK   15  A    between atoms: O_31  and  C_22 
REMARK   16  A    between atoms: O_33  and  C_23 
REMARK       I    between atoms: N_28  and  C_24 
REMARK   17  A    between atoms: N_29  and  C_25 
REMARK   18  A    between atoms: C_25  and  O_35 
REMARK   19  A    between atoms: P_40  and  O_36 
REMARK   20  A    between atoms: P_40  and  O_37 
REMARK   21  A    between atoms: P_40  and  O_39 
ROOT
HETATM    1  C   UNK N   1      23.227  16.233   3.934  0.00  0.00     0.216 C 
HETATM    2  N   UNK N   1      22.907  17.190   4.754  0.00  0.00    -0.343 N 
ATOM      3  HN  UNK N   1      23.585  17.497   5.451  1.00  0.00     0.164 HD
ENDROOT
BRANCH   1   4
HETATM    4  N   UNK N   1      24.496  15.593   4.025  0.00  0.00    -0.334 N 
BRANCH   4   5
HETATM    5  C   UNK N   1      25.591  16.146   3.244  0.00  0.00     0.165 C 
BRANCH   5   6
HETATM    6  C   UNK N   1      26.597  16.791   4.133  0.00  0.00    -0.040 A 
HETATM    7  C   UNK N   1      26.326  18.029   4.728  0.00  0.00     0.011 A 
HETATM    8  C   UNK N   1      27.220  18.557   5.670  0.00  0.00     0.038 A 
HETATM    9  C   UNK N   1      28.373  17.832   6.016  0.00  0.00     0.081 A 
HETATM   10  C   UNK N   1      28.657  16.627   5.378  0.00  0.00     0.038 A 
HETATM   11  C   UNK N   1      27.782  16.114   4.433  0.00  0.00     0.011 A 
BRANCH   9  12
HETATM   12  O   UNK N   1      29.138  18.203   7.057  0.00  0.00    -0.255 OA
BRANCH  12  13
HETATM   13  P   UNK N   1      28.561  17.807   8.633  0.00  0.00     0.396 P 
HETATM   14  O   UNK N   1      27.541  16.630   8.642  0.00  0.00    -0.631 OA
BRANCH  13  15
HETATM   15  O   UNK N   1      29.567  17.886  10.050  0.00  0.00    -0.307 OA
HETATM   16  H   UNK N   1      29.878  18.722  10.433  0.00  0.00     0.222 HD
ENDBRANCH  13  15
BRANCH  13  17
HETATM   17  O   UNK N   1      27.510  19.125   8.895  0.00  0.00    -0.307 OA
HETATM   18  H   UNK N   1      26.926  19.822   8.557  0.00  0.00     0.222 HD
ENDBRANCH  13  17
ENDBRANCH  12  13
ENDBRANCH   9  12
ENDBRANCH   5   6
ENDBRANCH   4   5
BRANCH   4  19
HETATM   19  C   UNK N   1      24.703  14.409   4.838  0.00  0.00     0.236 C 
BRANCH  19  20
HETATM   20  C   UNK N   1      24.783  14.745   6.307  0.00  0.00     0.158 C 
HETATM   21  O   UNK N   1      23.801  15.152   6.906  0.00  0.00    -0.649 OA
BRANCH  20  22
HETATM   22  O   UNK N   1      25.951  14.612   6.960  0.00  0.00    -0.775 OA
HETATM   23  H   UNK N   1      26.083  15.039   7.783  0.00  0.00     0.167 HD
ENDBRANCH  20  22
ENDBRANCH  19  20
ENDBRANCH   4  19
ENDBRANCH   1   4
BRANCH   1  24
HETATM   24  O   UNK N   1      22.354  15.826   2.990  0.00  0.00    -0.333 OA
HETATM   25  H   UNK N   1      21.936  15.024   2.741  0.00  0.00     0.220 HD
ENDBRANCH   1  24
BRANCH   2  26
HETATM   26  C   UNK N   1      21.603  17.835   4.702  0.00  0.00     0.177 C 
BRANCH  26  27
HETATM   27  C   UNK N   1      21.686  19.195   3.983  0.00  0.00     0.045 C 
BRANCH  27  28
HETATM   28  C   UNK N   1      20.955  19.244   2.647  0.00  0.00     0.112 C 
BRANCH  28  29
HETATM   29  C   UNK N   1      21.316  20.515   1.954  0.00  0.00     0.139 C 
HETATM   30  O   UNK N   1      21.335  20.561   0.735  0.00  0.00    -0.650 OA
BRANCH  29  31
HETATM   31  O   UNK N   1      21.603  21.618   2.672  0.00  0.00    -0.776 OA
HETATM   32  H   UNK N   1      22.212  21.642   3.383  0.00  0.00     0.167 HD
ENDBRANCH  29  31
ENDBRANCH  28  29
ENDBRANCH  27  28
ENDBRANCH  26  27
BRANCH  26  33
HETATM   33  C   UNK N   1      20.865  17.751   6.050  0.00  0.00     0.242 C 
HETATM   34  N   UNK N   1      20.134  16.664   6.472  0.00  0.00    -0.355 N 
HETATM   35  C   UNK N   1      19.903  15.520   5.634  0.00  0.00     0.152 C 
HETATM   36  O   UNK N   1      21.026  18.686   6.823  0.00  0.00    -0.271 OA
BRANCH  34  37
HETATM   37  C   UNK N   1      19.783  16.536   7.877  0.00  0.00     0.125 C 
BRANCH  37  38
HETATM   38  C   UNK N   1      20.814  15.799   8.722  0.00  0.00     0.020 C 
BRANCH  38  39
HETATM   39  C   UNK N   1      20.366  14.430   9.246  0.00  0.00     0.006 C 
BRANCH  39  40
HETATM   40  C   UNK N   1      21.453  13.497   9.801  0.00  0.00    -0.014 C 
HETATM   41  C   UNK N   1      20.961  12.655  10.973  0.00  0.00     0.004 C 
HETATM   42  C   UNK N   1      22.087  11.883  11.667  0.00  0.00     0.000 C 
HETATM   43  C   UNK N   1      23.386  11.849  10.859  0.00  0.00     0.000 C 
HETATM   44  C   UNK N   1      23.100  11.583   9.379  0.00  0.00     0.000 C 
HETATM   45  C   UNK N   1      22.163  12.634   8.750  0.00  0.00     0.004 C 
ENDBRANCH  39  40
ENDBRANCH  38  39
ENDBRANCH  37  38
ENDBRANCH  34  37
ENDBRANCH  26  33
ENDBRANCH   2  26
TORSDOF 21
ENDMDL
MODEL 5
REMARK VINA RESULT:      -7.3      1.138      1.564
REMARK  21 active torsions:
REMARK  status: ('A' for Active; 'I' for Inactive)
REMARK    1  A    between atoms: C_8  and  C_5 
REMARK    2  A    between atoms: C_15  and  C_5 
REMARK    3  A    between atoms: C_18  and  C_8 
REMARK    4  A    between atoms: C_14  and  C_13 
REMARK    5  A    between atoms: C_21  and  C_13 
REMARK    6  A    between atoms: C_22  and  C_14 
REMARK    7  A    between atoms: N_28  and  C_15 
REMARK    8  A    between atoms: C_19  and  C_16 
REMARK    9  A    between atoms: N_29  and  C_16 
REMARK   10  A    between atoms: C_23  and  C_17 
REMARK   11  A    between atoms: N_29  and  C_17 
REMARK   12  A    between atoms: O_39  and  C_20 
REMARK   13  A    between atoms: C_24  and  C_21 
REMARK   14  A    between atoms: C_21  and  N_26 
REMARK   15  A    between atoms: O_31  and  C_22 
REMARK   16  A    between atoms: O_33  and  C_23 
REMARK       I    between atoms: N_28  and  C_24 
REMARK   17  A    between atoms: N_29  and  C_25 
REMARK   18  A    between atoms: C_25  and  O_35 
REMARK   19  A    between atoms: P_40  and  O_36 
REMARK   20  A    between atoms: P_40  and  O_37 
REMARK   21  A    between atoms: P_40  and  O_39 
ROOT
HETATM    1  C   UNK N   1      24.366  17.426   4.648  0.00  0.00     0.216 C 
HETATM    2  N   UNK N   1      23.542  18.146   5.351  0.00  0.00    -0.343 N 
ATOM      3  HN  UNK N   1      23.913  18.776   6.061  1.00  0.00     0.164 HD
ENDROOT
BRANCH   1   4
HETATM    4  N   UNK N   1      25.768  17.485   4.886  0.00  0.00    -0.334 N 
BRANCH   4   5
HETATM    5  C   UNK N   1      26.350  16.475   5.757  0.00  0.00     0.165 C 
BRANCH   5   6
HETATM    6  C   UNK N   1      27.834  16.597   5.786  0.00  0.00    -0.040 A 
HETATM    7  C   UNK N   1      28.606  16.087   4.736  0.00  0.00     0.011 A 
HETATM    8  C   UNK N   1      29.986  16.330   4.707  0.00  0.00     0.038 A 
HETATM    9  C   UNK N   1      30.578  17.096   5.726  0.00  0.00     0.081 A 
HETATM   10  C   UNK N   1      29.808  17.553   6.792  0.00  0.00     0.038 A 
HETATM   11  C   UNK N   1      28.446  17.295   6.830  0.00  0.00     0.011 A 
BRANCH   9  12
HETATM   12  O   UNK N   1      31.848  17.523   5.623  0.00  0.00    -0.255 OA
BRANCH  12  13
HETATM   13  P   UNK N   1      32.902  17.172   6.941  0.00  0.00     0.396 P 
HETATM   14  O   UNK N   1      32.874  18.254   8.062  0.00  0.00    -0.631 OA
BRANCH  13  15
HETATM   15  O   UNK N   1      33.177  15.556   7.521  0.00  0.00    -0.307 OA
HETATM   16  H   UNK N   1      32.485  15.016   7.934  0.00  0.00     0.222 HD
ENDBRANCH  13  15
BRANCH  13  17
HETATM   17  O   UNK N   1      34.404  17.526   6.213  0.00  0.00    -0.307 OA
HETATM   18  H   UNK N   1      35.372  17.570   6.249  0.00  0.00     0.222 HD
ENDBRANCH  13  17
ENDBRANCH  12  13
ENDBRANCH   9  12
ENDBRANCH   5   6
ENDBRANCH   4   5
BRANCH   4  19
HETATM   19  C   UNK N   1      26.602  18.526   4.315  0.00  0.00     0.236 C 
BRANCH  19  20
HETATM   20  C   UNK N   1      26.373  19.858   4.984  0.00  0.00     0.158 C 
HETATM   21  O   UNK N   1      26.505  20.899   4.360  0.00  0.00    -0.649 OA
BRANCH  20  22
HETATM   22  O   UNK N   1      26.037  19.904   6.285  0.00  0.00    -0.775 OA
HETATM   23  H   UNK N   1      26.521  20.441   6.880  0.00  0.00     0.167 HD
ENDBRANCH  20  22
ENDBRANCH  19  20
ENDBRANCH   4  19
ENDBRANCH   1   4
BRANCH   1  24
HETATM   24  O   UNK N   1      23.899  16.602   3.687  0.00  0.00    -0.333 OA
HETATM   25  H   UNK N   1      23.258  15.921   3.618  0.00  0.00     0.220 HD
ENDBRANCH   1  24
BRANCH   2  26
HETATM   26  C   UNK N   1      22.103  18.076   5.147  0.00  0.00     0.177 C 
BRANCH  26  27
HETATM   27  C   UNK N   1      21.591  19.308   4.379  0.00  0.00     0.045 C 
BRANCH  27  28
HETATM   28  C   UNK N   1      21.430  19.090   2.879  0.00  0.00     0.112 C 
BRANCH  28  29
HETATM   29  C   UNK N   1      21.729  20.373   2.178  0.00  0.00     0.139 C 
HETATM   30  O   UNK N   1      22.280  21.281   2.777  0.00  0.00    -0.650 OA
BRANCH  29  31
HETATM   31  O   UNK N   1      21.408  20.523   0.879  0.00  0.00    -0.776 OA
HETATM   32  H   UNK N   1      20.558  20.767   0.570  0.00  0.00     0.167 HD
ENDBRANCH  29  31
ENDBRANCH  28  29
ENDBRANCH  27  28
ENDBRANCH  26  27
BRANCH  26  33
HETATM   33  C   UNK N   1      21.362  17.635   6.423  0.00  0.00     0.242 C 
HETATM   34  N   UNK N   1      21.128  16.325   6.776  0.00  0.00    -0.355 N 
HETATM   35  C   UNK N   1      21.472  15.225   5.919  0.00  0.00     0.152 C 
HETATM   36  O   UNK N   1      21.050  18.520   7.209  0.00  0.00    -0.271 OA
BRANCH  34  37
HETATM   37  C   UNK N   1      20.752  16.006   8.144  0.00  0.00     0.125 C 
BRANCH  37  38
HETATM   38  C   UNK N   1      20.430  14.537   8.384  0.00  0.00     0.020 C 
BRANCH  38  39
HETATM   39  C   UNK N   1      20.736  14.027   9.796  0.00  0.00     0.006 C 
BRANCH  39  40
HETATM   40  C   UNK N   1      22.120  13.406  10.038  0.00  0.00    -0.014 C 
HETATM   41  C   UNK N   1      22.095  12.314  11.102  0.00  0.00     0.004 C 
HETATM   42  C   UNK N   1      23.495  11.840  11.503  0.00  0.00     0.000 C 
HETATM   43  C   UNK N   1      24.590  12.303  10.541  0.00  0.00     0.000 C 
HETATM   44  C   UNK N   1      24.138  12.151   9.087  0.00  0.00     0.000 C 
HETATM   45  C   UNK N   1      22.850  12.938   8.773  0.00  0.00     0.004 C 
ENDBRANCH  39  40
ENDBRANCH  38  39
ENDBRANCH  37  38
ENDBRANCH  34  37
ENDBRANCH  26  33
ENDBRANCH   2  26
TORSDOF 21
ENDMDL
MODEL 6
REMARK VINA RESULT:      -7.1      1.244      1.922
REMARK  21 active torsions:
REMARK  status: ('A' for Active; 'I' for Inactive)
REMARK    1  A    between atoms: C_8  and  C_5 
REMARK    2  A    between atoms: C_15  and  C_5 
REMARK    3  A    between atoms: C_18  and  C_8 
REMARK    4  A    between atoms: C_14  and  C_13 
REMARK    5  A    between atoms: C_21  and  C_13 
REMARK    6  A    between atoms: C_22  and  C_14 
REMARK    7  A    between atoms: N_28  and  C_15 
REMARK    8  A    between atoms: C_19  and  C_16 
REMARK    9  A    between atoms: N_29  and  C_16 
REMARK   10  A    between atoms: C_23  and  C_17 
REMARK   11  A    between atoms: N_29  and  C_17 
REMARK   12  A    between atoms: O_39  and  C_20 
REMARK   13  A    between atoms: C_24  and  C_21 
REMARK   14  A    between atoms: C_21  and  N_26 
REMARK   15  A    between atoms: O_31  and  C_22 
REMARK   16  A    between atoms: O_33  and  C_23 
REMARK       I    between atoms: N_28  and  C_24 
REMARK   17  A    between atoms: N_29  and  C_25 
REMARK   18  A    between atoms: C_25  and  O_35 
REMARK   19  A    between atoms: P_40  and  O_36 
REMARK   20  A    between atoms: P_40  and  O_37 
REMARK   21  A    between atoms: P_40  and  O_39 
ROOT
HETATM    1  C   UNK N   1      25.766  18.032   4.949  0.00  0.00     0.216 C 
HETATM    2  N   UNK N   1      24.619  18.413   5.431  0.00  0.00    -0.343 N 
ATOM      3  HN  UNK N   1      24.583  18.830   6.360  1.00  0.00     0.164 HD
ENDROOT
BRANCH   1   4
HETATM    4  N   UNK N   1      26.957  18.162   5.720  0.00  0.00    -0.334 N 
BRANCH   4   5
HETATM    5  C   UNK N   1      27.351  17.036   6.551  0.00  0.00     0.165 C 
BRANCH   5   6
HETATM    6  C   UNK N   1      28.816  17.066   6.818  0.00  0.00    -0.040 A 
HETATM    7  C   UNK N   1      29.724  16.689   5.822  0.00  0.00     0.011 A 
HETATM    8  C   UNK N   1      31.099  16.854   6.037  0.00  0.00     0.038 A 
HETATM    9  C   UNK N   1      31.552  17.410   7.246  0.00  0.00     0.081 A 
HETATM   10  C   UNK N   1      30.641  17.732   8.249  0.00  0.00     0.038 A 
HETATM   11  C   UNK N   1      29.282  17.550   8.043  0.00  0.00     0.011 A 
BRANCH   9  12
HETATM   12  O   UNK N   1      32.835  17.775   7.404  0.00  0.00    -0.255 OA
BRANCH  12  13
HETATM   13  P   UNK N   1      33.741  16.950   8.617  0.00  0.00     0.396 P 
HETATM   14  O   UNK N   1      34.829  17.839   9.289  0.00  0.00    -0.631 OA
BRANCH  13  15
HETATM   15  O   UNK N   1      33.032  15.769   9.679  0.00  0.00    -0.307 OA
HETATM   16  H   UNK N   1      32.078  15.709   9.844  0.00  0.00     0.222 HD
ENDBRANCH  13  15
BRANCH  13  17
HETATM   17  O   UNK N   1      34.720  15.965   7.627  0.00  0.00    -0.307 OA
HETATM   18  H   UNK N   1      35.574  15.551   7.426  0.00  0.00     0.222 HD
ENDBRANCH  13  17
ENDBRANCH  12  13
ENDBRANCH   9  12
ENDBRANCH   5   6
ENDBRANCH   4   5
BRANCH   4  19
HETATM   19  C   UNK N   1      27.747  19.379   5.714  0.00  0.00     0.236 C 
BRANCH  19  20
HETATM   20  C   UNK N   1      27.155  20.436   6.613  0.00  0.00     0.158 C 
HETATM   21  O   UNK N   1      27.019  21.583   6.219  0.00  0.00    -0.649 OA
BRANCH  20  22
HETATM   22  O   UNK N   1      26.790  20.119   7.868  0.00  0.00    -0.775 OA
HETATM   23  H   UNK N   1      26.319  20.735   8.394  0.00  0.00     0.167 HD
ENDBRANCH  20  22
ENDBRANCH  19  20
ENDBRANCH   4  19
ENDBRANCH   1   4
BRANCH   1  24
HETATM   24  O   UNK N   1      25.842  17.497   3.713  0.00  0.00    -0.333 OA
HETATM   25  H   UNK N   1      26.410  17.563   2.971  0.00  0.00     0.220 HD
ENDBRANCH   1  24
BRANCH   2  26
HETATM   26  C   UNK N   1      23.385  18.257   4.674  0.00  0.00     0.177 C 
BRANCH  26  27
HETATM   27  C   UNK N   1      23.163  19.450   3.726  0.00  0.00     0.045 C 
BRANCH  27  28
HETATM   28  C   UNK N   1      22.007  19.269   2.750  0.00  0.00     0.112 C 
BRANCH  28  29
HETATM   29  C   UNK N   1      21.146  20.486   2.801  0.00  0.00     0.139 C 
HETATM   30  O   UNK N   1      21.145  21.272   1.868  0.00  0.00    -0.650 OA
BRANCH  29  31
HETATM   31  O   UNK N   1      20.355  20.709   3.868  0.00  0.00    -0.776 OA
HETATM   32  H   UNK N   1      20.253  20.114   4.584  0.00  0.00     0.167 HD
ENDBRANCH  29  31
ENDBRANCH  28  29
ENDBRANCH  27  28
ENDBRANCH  26  27
BRANCH  26  33
HETATM   33  C   UNK N   1      22.221  17.787   5.564  0.00  0.00     0.242 C 
HETATM   34  N   UNK N   1      21.658  16.531   5.514  0.00  0.00    -0.355 N 
HETATM   35  C   UNK N   1      22.047  15.553   4.536  0.00  0.00     0.152 C 
HETATM   36  O   UNK N   1      21.844  18.564   6.431  0.00  0.00    -0.271 OA
BRANCH  34  37
HETATM   37  C   UNK N   1      20.826  16.072   6.614  0.00  0.00     0.125 C 
BRANCH  37  38
HETATM   38  C   UNK N   1      21.564  15.257   7.667  0.00  0.00     0.020 C 
BRANCH  38  39
HETATM   39  C   UNK N   1      21.036  13.833   7.874  0.00  0.00     0.006 C 
BRANCH  39  40
HETATM   40  C   UNK N   1      21.732  12.970   8.938  0.00  0.00    -0.014 C 
HETATM   41  C   UNK N   1      23.214  13.295   9.079  0.00  0.00     0.004 C 
HETATM   42  C   UNK N   1      23.961  12.303   9.977  0.00  0.00     0.000 C 
HETATM   43  C   UNK N   1      23.029  11.408  10.796  0.00  0.00     0.000 C 
HETATM   44  C   UNK N   1      21.870  12.220  11.381  0.00  0.00     0.000 C 
HETATM   45  C   UNK N   1      21.033  12.936  10.303  0.00  0.00     0.004 C 
ENDBRANCH  39  40
ENDBRANCH  38  39
ENDBRANCH  37  38
ENDBRANCH  34  37
ENDBRANCH  26  33
ENDBRANCH   2  26
TORSDOF 21
ENDMDL
MODEL 7
REMARK VINA RESULT:      -7.1      6.806     11.846
REMARK  21 active torsions:
REMARK  status: ('A' for Active; 'I' for Inactive)
REMARK    1  A    between atoms: C_8  and  C_5 
REMARK    2  A    between atoms: C_15  and  C_5 
REMARK    3  A    between atoms: C_18  and  C_8 
REMARK    4  A    between atoms: C_14  and  C_13 
REMARK    5  A    between atoms: C_21  and  C_13 
REMARK    6  A    between atoms: C_22  and  C_14 
REMARK    7  A    between atoms: N_28  and  C_15 
REMARK    8  A    between atoms: C_19  and  C_16 
REMARK    9  A    between atoms: N_29  and  C_16 
REMARK   10  A    between atoms: C_23  and  C_17 
REMARK   11  A    between atoms: N_29  and  C_17 
REMARK   12  A    between atoms: O_39  and  C_20 
REMARK   13  A    between atoms: C_24  and  C_21 
REMARK   14  A    between atoms: C_21  and  N_26 
REMARK   15  A    between atoms: O_31  and  C_22 
REMARK   16  A    between atoms: O_33  and  C_23 
REMARK       I    between atoms: N_28  and  C_24 
REMARK   17  A    between atoms: N_29  and  C_25 
REMARK   18  A    between atoms: C_25  and  O_35 
REMARK   19  A    between atoms: P_40  and  O_36 
REMARK   20  A    between atoms: P_40  and  O_37 
REMARK   21  A    between atoms: P_40  and  O_39 
ROOT
HETATM    1  C   UNK N   1      34.097  15.708   9.440  0.00  0.00     0.216 C 
HETATM    2  N   UNK N   1      34.658  14.709   8.823  0.00  0.00    -0.343 N 
ATOM      3  HN  UNK N   1      34.367  14.484   7.872  1.00  0.00     0.164 HD
ENDROOT
BRANCH   1   4
HETATM    4  N   UNK N   1      33.063  16.460   8.813  0.00  0.00    -0.334 N 
BRANCH   4   5
HETATM    5  C   UNK N   1      31.926  15.730   8.274  0.00  0.00     0.165 C 
BRANCH   5   6
HETATM    6  C   UNK N   1      30.737  16.620   8.157  0.00  0.00    -0.040 A 
HETATM    7  C   UNK N   1      30.149  17.167   9.303  0.00  0.00     0.011 A 
HETATM    8  C   UNK N   1      29.121  18.111   9.172  0.00  0.00     0.038 A 
HETATM    9  C   UNK N   1      28.700  18.507   7.891  0.00  0.00     0.081 A 
HETATM   10  C   UNK N   1      29.257  17.915   6.760  0.00  0.00     0.038 A 
HETATM   11  C   UNK N   1      30.261  16.967   6.891  0.00  0.00     0.011 A 
BRANCH   9  12
HETATM   12  O   UNK N   1      27.871  19.552   7.725  0.00  0.00    -0.255 OA
BRANCH  12  13
HETATM   13  P   UNK N   1      27.098  19.703   6.192  0.00  0.00     0.396 P 
HETATM   14  O   UNK N   1      27.940  20.497   5.150  0.00  0.00    -0.631 OA
BRANCH  13  15
HETATM   15  O   UNK N   1      26.120  18.441   5.503  0.00  0.00    -0.307 OA
HETATM   16  H   UNK N   1      25.193  18.569   5.248  0.00  0.00     0.222 HD
ENDBRANCH  13  15
BRANCH  13  17
HETATM   17  O   UNK N   1      25.914  20.869   6.580  0.00  0.00    -0.307 OA
HETATM   18  H   UNK N   1      25.516  21.496   7.205  0.00  0.00     0.222 HD
ENDBRANCH  13  17
ENDBRANCH  12  13
ENDBRANCH   9  12
ENDBRANCH   5   6
ENDBRANCH   4   5
BRANCH   4  19
HETATM   19  C   UNK N   1      33.136  17.903   8.677  0.00  0.00     0.236 C 
BRANCH  19  20
HETATM   20  C   UNK N   1      34.371  18.334   7.926  0.00  0.00     0.158 C 
HETATM   21  O   UNK N   1      35.179  19.090   8.440  0.00  0.00    -0.649 OA
BRANCH  20  22
HETATM   22  O   UNK N   1      34.577  17.897   6.671  0.00  0.00    -0.775 OA
HETATM   23  H   UNK N   1      35.430  17.621   6.400  0.00  0.00     0.167 HD
ENDBRANCH  20  22
ENDBRANCH  19  20
ENDBRANCH   4  19
ENDBRANCH   1   4
BRANCH   1  24
HETATM   24  O   UNK N   1      34.481  16.038  10.690  0.00  0.00    -0.333 OA
HETATM   25  H   UNK N   1      35.027  16.686  11.091  0.00  0.00     0.220 HD
ENDBRANCH   1  24
BRANCH   2  26
HETATM   26  C   UNK N   1      35.692  13.905   9.458  0.00  0.00     0.177 C 
BRANCH  26  27
HETATM   27  C   UNK N   1      36.971  13.871   8.601  0.00  0.00     0.045 C 
BRANCH  27  28
HETATM   28  C   UNK N   1      36.773  13.308   7.199  0.00  0.00     0.112 C 
BRANCH  28  29
HETATM   29  C   UNK N   1      36.912  14.421   6.216  0.00  0.00     0.139 C 
HETATM   30  O   UNK N   1      37.891  14.474   5.490  0.00  0.00    -0.650 OA
BRANCH  29  31
HETATM   31  O   UNK N   1      35.950  15.358   6.115  0.00  0.00    -0.776 OA
HETATM   32  H   UNK N   1      35.069  15.184   5.846  0.00  0.00     0.167 HD
ENDBRANCH  29  31
ENDBRANCH  28  29
ENDBRANCH  27  28
ENDBRANCH  26  27
BRANCH  26  33
HETATM   33  C   UNK N   1      35.132  12.582  10.011  0.00  0.00     0.242 C 
HETATM   34  N   UNK N   1      35.292  12.150  11.309  0.00  0.00    -0.355 N 
HETATM   35  C   UNK N   1      36.097  12.860  12.263  0.00  0.00     0.152 C 
HETATM   36  O   UNK N   1      34.424  11.928   9.258  0.00  0.00    -0.271 OA
BRANCH  34  37
HETATM   37  C   UNK N   1      34.441  11.088  11.822  0.00  0.00     0.125 C 
BRANCH  37  38
HETATM   38  C   UNK N   1      34.862  10.543  13.180  0.00  0.00     0.020 C 
BRANCH  38  39
HETATM   39  C   UNK N   1      33.826  10.711  14.298  0.00  0.00     0.006 C 
BRANCH  39  40
HETATM   40  C   UNK N   1      34.339  11.164  15.673  0.00  0.00    -0.014 C 
HETATM   41  C   UNK N   1      35.565  10.382  16.129  0.00  0.00     0.004 C 
HETATM   42  C   UNK N   1      35.954  10.675  17.581  0.00  0.00     0.000 C 
HETATM   43  C   UNK N   1      35.259  11.909  18.157  0.00  0.00     0.000 C 
HETATM   44  C   UNK N   1      35.250  13.053  17.141  0.00  0.00     0.000 C 
HETATM   45  C   UNK N   1      34.554  12.676  15.818  0.00  0.00     0.004 C 
ENDBRANCH  39  40
ENDBRANCH  38  39
ENDBRANCH  37  38
ENDBRANCH  34  37
ENDBRANCH  26  33
ENDBRANCH   2  26
TORSDOF 21
ENDMDL
MODEL 8
REMARK VINA RESULT:      -7.0      2.067      2.915
REMARK  21 active torsions:
REMARK  status: ('A' for Active; 'I' for Inactive)
REMARK    1  A    between atoms: C_8  and  C_5 
REMARK    2  A    between atoms: C_15  and  C_5 
REMARK    3  A    between atoms: C_18  and  C_8 
REMARK    4  A    between atoms: C_14  and  C_13 
REMARK    5  A    between atoms: C_21  and  C_13 
REMARK    6  A    between atoms: C_22  and  C_14 
REMARK    7  A    between atoms: N_28  and  C_15 
REMARK    8  A    between atoms: C_19  and  C_16 
REMARK    9  A    between atoms: N_29  and  C_16 
REMARK   10  A    between atoms: C_23  and  C_17 
REMARK   11  A    between atoms: N_29  and  C_17 
REMARK   12  A    between atoms: O_39  and  C_20 
REMARK   13  A    between atoms: C_24  and  C_21 
REMARK   14  A    between atoms: C_21  and  N_26 
REMARK   15  A    between atoms: O_31  and  C_22 
REMARK   16  A    between atoms: O_33  and  C_23 
REMARK       I    between atoms: N_28  and  C_24 
REMARK   17  A    between atoms: N_29  and  C_25 
REMARK   18  A    between atoms: C_25  and  O_35 
REMARK   19  A    between atoms: P_40  and  O_36 
REMARK   20  A    between atoms: P_40  and  O_37 
REMARK   21  A    between atoms: P_40  and  O_39 
ROOT
HETATM    1  C   UNK N   1      26.843  17.955   5.370  0.00  0.00     0.216 C 
HETATM    2  N   UNK N   1      25.564  17.823   5.564  0.00  0.00    -0.343 N 
ATOM      3  HN  UNK N   1      25.161  18.121   6.452  1.00  0.00     0.164 HD
ENDROOT
BRANCH   1   4
HETATM    4  N   UNK N   1      27.683  18.476   6.395  0.00  0.00    -0.334 N 
BRANCH   4   5
HETATM    5  C   UNK N   1      28.118  17.564   7.442  0.00  0.00     0.165 C 
BRANCH   5   6
HETATM    6  C   UNK N   1      29.605  17.506   7.504  0.00  0.00    -0.040 A 
HETATM    7  C   UNK N   1      30.294  18.120   8.556  0.00  0.00     0.011 A 
HETATM    8  C   UNK N   1      31.678  17.940   8.679  0.00  0.00     0.038 A 
HETATM    9  C   UNK N   1      32.359  17.134   7.750  0.00  0.00     0.081 A 
HETATM   10  C   UNK N   1      31.670  16.572   6.678  0.00  0.00     0.038 A 
HETATM   11  C   UNK N   1      30.304  16.766   6.547  0.00  0.00     0.011 A 
BRANCH   9  12
HETATM   12  O   UNK N   1      33.637  16.770   7.953  0.00  0.00    -0.255 OA
BRANCH  12  13
HETATM   13  P   UNK N   1      33.947  15.693   9.261  0.00  0.00     0.396 P 
HETATM   14  O   UNK N   1      35.308  15.956   9.971  0.00  0.00    -0.631 OA
BRANCH  13  15
HETATM   15  O   UNK N   1      32.694  15.113  10.320  0.00  0.00    -0.307 OA
HETATM   16  H   UNK N   1      32.301  14.229  10.242  0.00  0.00     0.222 HD
ENDBRANCH  13  15
BRANCH  13  17
HETATM   17  O   UNK N   1      34.326  14.278   8.387  0.00  0.00    -0.307 OA
HETATM   18  H   UNK N   1      34.778  13.832   7.653  0.00  0.00     0.222 HD
ENDBRANCH  13  17
ENDBRANCH  12  13
ENDBRANCH   9  12
ENDBRANCH   5   6
ENDBRANCH   4   5
BRANCH   4  19
HETATM   19  C   UNK N   1      28.078  19.872   6.430  0.00  0.00     0.236 C 
BRANCH  19  20
HETATM   20  C   UNK N   1      26.933  20.768   6.828  0.00  0.00     0.158 C 
HETATM   21  O   UNK N   1      26.588  21.693   6.111  0.00  0.00    -0.649 OA
BRANCH  20  22
HETATM   22  O   UNK N   1      26.295  20.562   7.994  0.00  0.00    -0.775 OA
HETATM   23  H   UNK N   1      25.533  20.018   8.027  0.00  0.00     0.167 HD
ENDBRANCH  20  22
ENDBRANCH  19  20
ENDBRANCH   4  19
ENDBRANCH   1   4
BRANCH   1  24
HETATM   24  O   UNK N   1      27.395  17.589   4.195  0.00  0.00    -0.333 OA
HETATM   25  H   UNK N   1      28.255  17.415   3.865  0.00  0.00     0.220 HD
ENDBRANCH   1  24
BRANCH   2  26
HETATM   26  C   UNK N   1      24.692  17.261   4.543  0.00  0.00     0.177 C 
BRANCH  26  27
HETATM   27  C   UNK N   1      23.859  18.361   3.858  0.00  0.00     0.045 C 
BRANCH  27  28
HETATM   28  C   UNK N   1      24.389  19.774   4.073  0.00  0.00     0.112 C 
BRANCH  28  29
HETATM   29  C   UNK N   1      23.996  20.611   2.903  0.00  0.00     0.139 C 
HETATM   30  O   UNK N   1      24.787  20.796   1.992  0.00  0.00    -0.650 OA
BRANCH  29  31
HETATM   31  O   UNK N   1      22.763  21.150   2.840  0.00  0.00    -0.776 OA
HETATM   32  H   UNK N   1      22.484  21.754   2.182  0.00  0.00     0.167 HD
ENDBRANCH  29  31
ENDBRANCH  28  29
ENDBRANCH  27  28
ENDBRANCH  26  27
BRANCH  26  33
HETATM   33  C   UNK N   1      23.981  15.986   5.032  0.00  0.00     0.242 C 
HETATM   34  N   UNK N   1      24.518  14.720   4.969  0.00  0.00    -0.355 N 
HETATM   35  C   UNK N   1      25.779  14.451   4.335  0.00  0.00     0.152 C 
HETATM   36  O   UNK N   1      22.905  16.140   5.595  0.00  0.00    -0.271 OA
BRANCH  34  37
HETATM   37  C   UNK N   1      23.937  13.653   5.767  0.00  0.00     0.125 C 
BRANCH  37  38
HETATM   38  C   UNK N   1      24.468  13.568   7.191  0.00  0.00     0.020 C 
BRANCH  38  39
HETATM   39  C   UNK N   1      24.204  12.238   7.906  0.00  0.00     0.006 C 
BRANCH  39  40
HETATM   40  C   UNK N   1      23.174  12.240   9.045  0.00  0.00    -0.014 C 
HETATM   41  C   UNK N   1      23.823  12.322  10.422  0.00  0.00     0.004 C 
HETATM   42  C   UNK N   1      22.825  12.110  11.566  0.00  0.00     0.000 C 
HETATM   43  C   UNK N   1      21.365  12.194  11.118  0.00  0.00     0.000 C 
HETATM   44  C   UNK N   1      21.157  13.362  10.152  0.00  0.00     0.000 C 
HETATM   45  C   UNK N   1      22.046  13.269   8.896  0.00  0.00     0.004 C 
ENDBRANCH  39  40
ENDBRANCH  38  39
ENDBRANCH  37  38
ENDBRANCH  34  37
ENDBRANCH  26  33
ENDBRANCH   2  26
TORSDOF 21
ENDMDL
MODEL 9
REMARK VINA RESULT:      -6.9     10.123     15.177
REMARK  21 active torsions:
REMARK  status: ('A' for Active; 'I' for Inactive)
REMARK    1  A    between atoms: C_8  and  C_5 
REMARK    2  A    between atoms: C_15  and  C_5 
REMARK    3  A    between atoms: C_18  and  C_8 
REMARK    4  A    between atoms: C_14  and  C_13 
REMARK    5  A    between atoms: C_21  and  C_13 
REMARK    6  A    between atoms: C_22  and  C_14 
REMARK    7  A    between atoms: N_28  and  C_15 
REMARK    8  A    between atoms: C_19  and  C_16 
REMARK    9  A    between atoms: N_29  and  C_16 
REMARK   10  A    between atoms: C_23  and  C_17 
REMARK   11  A    between atoms: N_29  and  C_17 
REMARK   12  A    between atoms: O_39  and  C_20 
REMARK   13  A    between atoms: C_24  and  C_21 
REMARK   14  A    between atoms: C_21  and  N_26 
REMARK   15  A    between atoms: O_31  and  C_22 
REMARK   16  A    between atoms: O_33  and  C_23 
REMARK       I    between atoms: N_28  and  C_24 
REMARK   17  A    between atoms: N_29  and  C_25 
REMARK   18  A    between atoms: C_25  and  O_35 
REMARK   19  A    between atoms: P_40  and  O_36 
REMARK   20  A    between atoms: P_40  and  O_37 
REMARK   21  A    between atoms: P_40  and  O_39 
ROOT
HETATM    1  C   UNK N   1      35.778  13.437  13.531  0.00  0.00     0.216 C 
HETATM    2  N   UNK N   1      36.738  13.815  12.738  0.00  0.00    -0.343 N 
ATOM      3  HN  UNK N   1      37.619  14.134  13.139  1.00  0.00     0.164 HD
ENDROOT
BRANCH   1   4
HETATM    4  N   UNK N   1      35.938  13.499  14.945  0.00  0.00    -0.334 N 
BRANCH   4   5
HETATM    5  C   UNK N   1      34.788  13.162  15.770  0.00  0.00     0.165 C 
BRANCH   5   6
HETATM    6  C   UNK N   1      35.224  12.514  17.039  0.00  0.00    -0.040 A 
HETATM    7  C   UNK N   1      35.093  13.188  18.259  0.00  0.00     0.011 A 
HETATM    8  C   UNK N   1      35.376  12.516  19.456  0.00  0.00     0.038 A 
HETATM    9  C   UNK N   1      35.775  11.169  19.420  0.00  0.00     0.081 A 
HETATM   10  C   UNK N   1      35.951  10.527  18.197  0.00  0.00     0.038 A 
HETATM   11  C   UNK N   1      35.690  11.197  17.012  0.00  0.00     0.011 A 
BRANCH   9  12
HETATM   12  O   UNK N   1      35.851  10.438  20.545  0.00  0.00    -0.255 OA
BRANCH  12  13
HETATM   13  P   UNK N   1      34.408   9.653  21.069  0.00  0.00     0.396 P 
HETATM   14  O   UNK N   1      33.412   9.351  19.910  0.00  0.00    -0.631 OA
BRANCH  13  15
HETATM   15  O   UNK N   1      34.390   8.474  22.347  0.00  0.00    -0.307 OA
HETATM   16  H   UNK N   1      35.176   7.975  22.618  0.00  0.00     0.222 HD
ENDBRANCH  13  15
BRANCH  13  17
HETATM   17  O   UNK N   1      33.619  10.968  21.816  0.00  0.00    -0.307 OA
HETATM   18  H   UNK N   1      33.454  11.921  21.898  0.00  0.00     0.222 HD
ENDBRANCH  13  17
ENDBRANCH  12  13
ENDBRANCH   9  12
ENDBRANCH   5   6
ENDBRANCH   4   5
BRANCH   4  19
HETATM   19  C   UNK N   1      37.185  13.911  15.561  0.00  0.00     0.236 C 
BRANCH  19  20
HETATM   20  C   UNK N   1      37.183  15.380  15.901  0.00  0.00     0.158 C 
HETATM   21  O   UNK N   1      37.347  16.220  15.031  0.00  0.00    -0.649 OA
BRANCH  20  22
HETATM   22  O   UNK N   1      37.020  15.771  17.177  0.00  0.00    -0.775 OA
HETATM   23  H   UNK N   1      37.738  15.742  17.777  0.00  0.00     0.167 HD
ENDBRANCH  20  22
ENDBRANCH  19  20
ENDBRANCH   4  19
ENDBRANCH   1   4
BRANCH   1  24
HETATM   24  O   UNK N   1      34.612  12.990  13.023  0.00  0.00    -0.333 OA
HETATM   25  H   UNK N   1      34.192  12.967  12.184  0.00  0.00     0.220 HD
ENDBRANCH   1  24
BRANCH   2  26
HETATM   26  C   UNK N   1      36.584  13.793  11.291  0.00  0.00     0.177 C 
BRANCH  26  27
HETATM   27  C   UNK N   1      37.695  12.956  10.629  0.00  0.00     0.045 C 
BRANCH  27  28
HETATM   28  C   UNK N   1      37.218  11.632  10.043  0.00  0.00     0.112 C 
BRANCH  28  29
HETATM   29  C   UNK N   1      36.975  10.677  11.163  0.00  0.00     0.139 C 
HETATM   30  O   UNK N   1      37.640  10.751  12.183  0.00  0.00    -0.650 OA
BRANCH  29  31
HETATM   31  O   UNK N   1      36.010   9.744  11.057  0.00  0.00    -0.776 OA
HETATM   32  H   UNK N   1      35.748   9.174  11.753  0.00  0.00     0.167 HD
ENDBRANCH  29  31
ENDBRANCH  28  29
ENDBRANCH  27  28
ENDBRANCH  26  27
BRANCH  26  33
HETATM   33  C   UNK N   1      36.268  15.189  10.725  0.00  0.00     0.242 C 
HETATM   34  N   UNK N   1      35.071  15.541  10.142  0.00  0.00    -0.355 N 
HETATM   35  C   UNK N   1      34.019  14.591   9.911  0.00  0.00     0.152 C 
HETATM   36  O   UNK N   1      37.115  16.055  10.896  0.00  0.00    -0.271 OA
BRANCH  34  37
HETATM   37  C   UNK N   1      34.743  16.947   9.969  0.00  0.00     0.125 C 
BRANCH  37  38
HETATM   38  C   UNK N   1      33.734  17.229   8.863  0.00  0.00     0.020 C 
BRANCH  38  39
HETATM   39  C   UNK N   1      34.335  17.403   7.464  0.00  0.00     0.006 C 
BRANCH  39  40
HETATM   40  C   UNK N   1      33.359  17.453   6.278  0.00  0.00    -0.014 C 
HETATM   41  C   UNK N   1      33.805  16.573   5.115  0.00  0.00     0.004 C 
HETATM   42  C   UNK N   1      32.960  16.778   3.854  0.00  0.00     0.000 C 
HETATM   43  C   UNK N   1      31.667  17.553   4.111  0.00  0.00     0.000 C 
HETATM   44  C   UNK N   1      30.988  17.070   5.395  0.00  0.00     0.000 C 
HETATM   45  C   UNK N   1      31.889  17.203   6.638  0.00  0.00     0.004 C 
ENDBRANCH  39  40
ENDBRANCH  38  39
ENDBRANCH  37  38
ENDBRANCH  34  37
ENDBRANCH  26  33
ENDBRANCH   2  26
TORSDOF 21
ENDMDL
