MODEL 1
REMARK VINA RESULT:      -7.4      0.000      0.000
REMARK  2 active torsions:
REMARK  status: ('A' for Active; 'I' for Inactive)
REMARK    1  A    between atoms: C_10  and  O_11 
REMARK    2  A    between atoms: C_15  and  O_22 
ROOT
HETATM    1  C   UNK N   1      29.559  15.382   4.957  0.00  0.00     0.018 C 
HETATM    2  C   UNK N   1      31.026  15.730   4.700  0.00  0.00    -0.014 C 
HETATM    3  C   UNK N   1      31.895  14.611   5.277  0.00  0.00     0.012 C 
HETATM    4  C   UNK N   1      31.671  14.549   6.786  0.00  0.00     0.007 C 
HETATM    5  C   UNK N   1      32.242  15.795   7.482  0.00  0.00     0.002 C 
HETATM    6  C   UNK N   1      32.336  17.053   6.570  0.00  0.00    -0.004 C 
HETATM    7  C   UNK N   1      31.383  17.094   5.333  0.00  0.00     0.001 C 
HETATM    8  C   UNK N   1      31.954  17.942   4.198  0.00  0.00     0.008 C 
HETATM    9  C   UNK N   1      32.389  16.933   3.151  0.00  0.00     0.033 C 
HETATM   10  C   UNK N   1      31.299  15.886   3.198  0.00  0.00     0.126 C 
HETATM   11  C   UNK N   1      33.780  17.492   6.334  0.00  0.00     0.010 C 
HETATM   12  C   UNK N   1      34.420  17.842   7.674  0.00  0.00     0.038 C 
HETATM   13  C   UNK N   1      34.301  16.712   8.674  0.00  0.00    -0.034 C 
HETATM   14  C   UNK N   1      34.980  16.792   9.842  0.00  0.00     0.114 C 
HETATM   15  C   UNK N   1      34.985  15.660  10.800  0.00  0.00     0.182 C 
HETATM   16  O   UNK N   1      35.687  15.714  11.798  0.00  0.00    -0.290 OA
HETATM   17  C   UNK N   1      34.198  14.414  10.530  0.00  0.00     0.087 C 
HETATM   18  C   UNK N   1      33.075  14.675   9.533  0.00  0.00     0.022 C 
HETATM   19  C   UNK N   1      33.530  15.454   8.291  0.00  0.00    -0.013 C 
HETATM   20  C   UNK N   1      34.482  14.590   7.462  0.00  0.00     0.020 C 
ENDROOT
BRANCH  10  21
HETATM   21  O   UNK N   1      30.186  16.404   2.523  0.00  0.00    -0.395 OA
HETATM   22  H   UNK N   1      29.291  16.042   2.432  0.00  0.00     0.210 HD
ENDBRANCH  10  21
BRANCH  14  23
HETATM   23  O   UNK N   1      35.704  17.895  10.128  0.00  0.00    -0.357 OA
HETATM   24  H   UNK N   1      36.460  17.836  10.678  0.00  0.00     0.218 HD
ENDBRANCH  14  23
TORSDOF 2
ENDMDL
MODEL 2
REMARK VINA RESULT:      -7.4      7.743     10.618
REMARK  2 active torsions:
REMARK  status: ('A' for Active; 'I' for Inactive)
REMARK    1  A    between atoms: C_10  and  O_11 
REMARK    2  A    between atoms: C_15  and  O_22 
ROOT
HETATM    1  C   UNK N   1      33.980  10.323  12.275  0.00  0.00     0.018 C 
HETATM    2  C   UNK N   1      35.148  11.042  12.952  0.00  0.00    -0.014 C 
HETATM    3  C   UNK N   1      35.876  10.039  13.847  0.00  0.00     0.012 C 
HETATM    4  C   UNK N   1      34.911   9.562  14.930  0.00  0.00     0.007 C 
HETATM    5  C   UNK N   1      34.578  10.695  15.914  0.00  0.00     0.002 C 
HETATM    6  C   UNK N   1      34.736  12.125  15.322  0.00  0.00    -0.004 C 
HETATM    7  C   UNK N   1      34.645  12.254  13.768  0.00  0.00     0.001 C 
HETATM    8  C   UNK N   1      35.426  13.459  13.246  0.00  0.00     0.008 C 
HETATM    9  C   UNK N   1      36.653  12.860  12.585  0.00  0.00     0.033 C 
HETATM   10  C   UNK N   1      36.118  11.617  11.910  0.00  0.00     0.126 C 
HETATM   11  C   UNK N   1      35.845  12.919  16.009  0.00  0.00     0.010 C 
HETATM   12  C   UNK N   1      35.510  13.065  17.491  0.00  0.00     0.038 C 
HETATM   13  C   UNK N   1      35.245  11.728  18.148  0.00  0.00    -0.034 C 
HETATM   14  C   UNK N   1      35.120  11.670  19.495  0.00  0.00     0.114 C 
HETATM   15  C   UNK N   1      34.975  10.368  20.191  0.00  0.00     0.182 C 
HETATM   16  O   UNK N   1      34.967  10.332  21.412  0.00  0.00    -0.290 OA
HETATM   17  C   UNK N   1      34.910   9.082  19.423  0.00  0.00     0.087 C 
HETATM   18  C   UNK N   1      34.487   9.322  17.979  0.00  0.00     0.022 C 
HETATM   19  C   UNK N   1      35.257  10.462  17.298  0.00  0.00    -0.013 C 
HETATM   20  C   UNK N   1      36.723  10.062  17.126  0.00  0.00     0.020 C 
ENDROOT
BRANCH  10  21
HETATM   21  O   UNK N   1      35.447  12.023  10.750  0.00  0.00    -0.395 OA
HETATM   22  H   UNK N   1      35.761  12.063   9.833  0.00  0.00     0.210 HD
ENDBRANCH  10  21
BRANCH  14  23
HETATM   23  O   UNK N   1      35.173  12.802  20.228  0.00  0.00    -0.357 OA
HETATM   24  H   UNK N   1      35.864  13.420  20.095  0.00  0.00     0.218 HD
ENDBRANCH  14  23
TORSDOF 2
ENDMDL
MODEL 3
REMARK VINA RESULT:      -7.4     11.619     13.901
REMARK  2 active torsions:
REMARK  status: ('A' for Active; 'I' for Inactive)
REMARK    1  A    between atoms: C_10  and  O_11 
REMARK    2  A    between atoms: C_15  and  O_22 
ROOT
HETATM    1  C   UNK N   1      19.774  16.210   8.225  0.00  0.00     0.018 C 
HETATM    2  C   UNK N   1      20.574  15.592   7.078  0.00  0.00    -0.014 C 
HETATM    3  C   UNK N   1      21.691  16.563   6.692  0.00  0.00     0.012 C 
HETATM    4  C   UNK N   1      21.058  17.861   6.195  0.00  0.00     0.007 C 
HETATM    5  C   UNK N   1      20.336  17.647   4.855  0.00  0.00     0.002 C 
HETATM    6  C   UNK N   1      19.864  16.185   4.606  0.00  0.00    -0.004 C 
HETATM    7  C   UNK N   1      19.657  15.292   5.871  0.00  0.00     0.001 C 
HETATM    8  C   UNK N   1      19.849  13.808   5.563  0.00  0.00     0.008 C 
HETATM    9  C   UNK N   1      21.182  13.457   6.196  0.00  0.00     0.033 C 
HETATM   10  C   UNK N   1      21.173  14.240   7.490  0.00  0.00     0.126 C 
HETATM   11  C   UNK N   1      20.581  15.537   3.423  0.00  0.00     0.010 C 
HETATM   12  C   UNK N   1      20.284  16.341   2.160  0.00  0.00     0.038 C 
HETATM   13  C   UNK N   1      20.623  17.806   2.326  0.00  0.00    -0.034 C 
HETATM   14  C   UNK N   1      20.595  18.615   1.241  0.00  0.00     0.114 C 
HETATM   15  C   UNK N   1      21.030  20.030   1.334  0.00  0.00     0.182 C 
HETATM   16  O   UNK N   1      21.095  20.712   0.323  0.00  0.00    -0.290 OA
HETATM   17  C   UNK N   1      21.463  20.623   2.641  0.00  0.00     0.087 C 
HETATM   18  C   UNK N   1      20.912  19.826   3.818  0.00  0.00     0.022 C 
HETATM   19  C   UNK N   1      21.114  18.311   3.679  0.00  0.00    -0.013 C 
HETATM   20  C   UNK N   1      22.606  17.981   3.756  0.00  0.00     0.020 C 
ENDROOT
BRANCH  10  21
HETATM   21  O   UNK N   1      20.342  13.561   8.389  0.00  0.00    -0.395 OA
HETATM   22  H   UNK N   1      20.551  13.163   9.249  0.00  0.00     0.210 HD
ENDBRANCH  10  21
BRANCH  14  23
HETATM   23  O   UNK N   1      20.213  18.125   0.043  0.00  0.00    -0.357 OA
HETATM   24  H   UNK N   1      19.345  17.796  -0.079  0.00  0.00     0.218 HD
ENDBRANCH  14  23
TORSDOF 2
ENDMDL
MODEL 4
REMARK VINA RESULT:      -6.8      5.199      9.794
REMARK  2 active torsions:
REMARK  status: ('A' for Active; 'I' for Inactive)
REMARK    1  A    between atoms: C_10  and  O_11 
REMARK    2  A    between atoms: C_15  and  O_22 
ROOT
HETATM    1  C   UNK N   1      35.159  13.437  17.064  0.00  0.00     0.018 C 
HETATM    2  C   UNK N   1      35.609  12.269  16.186  0.00  0.00    -0.014 C 
HETATM    3  C   UNK N   1      36.786  12.738  15.328  0.00  0.00     0.012 C 
HETATM    4  C   UNK N   1      36.307  13.868  14.419  0.00  0.00     0.007 C 
HETATM    5  C   UNK N   1      35.320  13.348  13.362  0.00  0.00     0.002 C 
HETATM    6  C   UNK N   1      34.562  12.052  13.773  0.00  0.00    -0.004 C 
HETATM    7  C   UNK N   1      34.444  11.767  15.304  0.00  0.00     0.001 C 
HETATM    8  C   UNK N   1      34.312  10.274  15.601  0.00  0.00     0.008 C 
HETATM    9  C   UNK N   1      35.659   9.881  16.180  0.00  0.00     0.033 C 
HETATM   10  C   UNK N   1      36.030  11.067  17.042  0.00  0.00     0.126 C 
HETATM   11  C   UNK N   1      34.920  10.864  12.883  0.00  0.00     0.010 C 
HETATM   12  C   UNK N   1      34.537  11.186  11.441  0.00  0.00     0.038 C 
HETATM   13  C   UNK N   1      35.151  12.486  10.968  0.00  0.00    -0.034 C 
HETATM   14  C   UNK N   1      35.061  12.817   9.658  0.00  0.00     0.114 C 
HETATM   15  C   UNK N   1      35.746  14.022   9.129  0.00  0.00     0.182 C 
HETATM   16  O   UNK N   1      35.737  14.244   7.928  0.00  0.00    -0.290 OA
HETATM   17  C   UNK N   1      36.513  14.938  10.034  0.00  0.00     0.087 C 
HETATM   18  C   UNK N   1      36.062  14.787  11.482  0.00  0.00     0.022 C 
HETATM   19  C   UNK N   1      35.967  13.326  11.944  0.00  0.00    -0.013 C 
HETATM   20  C   UNK N   1      37.366  12.709  11.991  0.00  0.00     0.020 C 
ENDROOT
BRANCH  10  21
HETATM   21  O   UNK N   1      35.276  10.985  18.220  0.00  0.00    -0.395 OA
HETATM   22  H   UNK N   1      35.067  11.672  18.872  0.00  0.00     0.210 HD
ENDBRANCH  10  21
BRANCH  14  23
HETATM   23  O   UNK N   1      34.382  12.022   8.805  0.00  0.00    -0.357 OA
HETATM   24  H   UNK N   1      34.143  12.334   7.955  0.00  0.00     0.218 HD
ENDBRANCH  14  23
TORSDOF 2
ENDMDL
MODEL 5
REMARK VINA RESULT:      -6.8      2.810      7.193
REMARK  2 active torsions:
REMARK  status: ('A' for Active; 'I' for Inactive)
REMARK    1  A    between atoms: C_10  and  O_11 
REMARK    2  A    between atoms: C_15  and  O_22 
ROOT
HETATM    1  C   UNK N   1      37.184  11.308  11.241  0.00  0.00     0.018 C 
HETATM    2  C   UNK N   1      36.111  12.282  11.730  0.00  0.00    -0.014 C 
HETATM    3  C   UNK N   1      34.943  12.247  10.743  0.00  0.00     0.012 C 
HETATM    4  C   UNK N   1      35.442  12.723   9.380  0.00  0.00     0.007 C 
HETATM    5  C   UNK N   1      35.796  14.219   9.412  0.00  0.00     0.002 C 
HETATM    6  C   UNK N   1      36.173  14.759  10.823  0.00  0.00    -0.004 C 
HETATM    7  C   UNK N   1      36.686  13.709  11.860  0.00  0.00     0.001 C 
HETATM    8  C   UNK N   1      36.406  14.141  13.298  0.00  0.00     0.008 C 
HETATM    9  C   UNK N   1      35.275  13.237  13.753  0.00  0.00     0.033 C 
HETATM   10  C   UNK N   1      35.622  11.902  13.134  0.00  0.00     0.126 C 
HETATM   11  C   UNK N   1      35.172  15.792  11.336  0.00  0.00     0.010 C 
HETATM   12  C   UNK N   1      35.144  16.979  10.377  0.00  0.00     0.038 C 
HETATM   13  C   UNK N   1      34.875  16.551   8.951  0.00  0.00    -0.034 C 
HETATM   14  C   UNK N   1      34.633  17.499   8.014  0.00  0.00     0.114 C 
HETATM   15  C   UNK N   1      34.253  17.122   6.631  0.00  0.00     0.182 C 
HETATM   16  O   UNK N   1      33.939  17.991   5.832  0.00  0.00    -0.290 OA
HETATM   17  C   UNK N   1      34.174  15.685   6.212  0.00  0.00     0.087 C 
HETATM   18  C   UNK N   1      34.998  14.796   7.135  0.00  0.00     0.022 C 
HETATM   19  C   UNK N   1      34.751  15.066   8.626  0.00  0.00    -0.013 C 
HETATM   20  C   UNK N   1      33.325  14.654   8.995  0.00  0.00     0.020 C 
ENDROOT
BRANCH  10  21
HETATM   21  O   UNK N   1      36.649  11.335  13.901  0.00  0.00    -0.395 OA
HETATM   22  H   UNK N   1      37.530  11.682  14.111  0.00  0.00     0.210 HD
ENDBRANCH  10  21
BRANCH  14  23
HETATM   23  O   UNK N   1      34.692  18.806   8.345  0.00  0.00    -0.357 OA
HETATM   24  H   UNK N   1      34.295  19.452   7.795  0.00  0.00     0.218 HD
ENDBRANCH  14  23
TORSDOF 2
ENDMDL
MODEL 6
REMARK VINA RESULT:      -6.8     11.761     15.375
REMARK  2 active torsions:
REMARK  status: ('A' for Active; 'I' for Inactive)
REMARK    1  A    between atoms: C_10  and  O_11 
REMARK    2  A    between atoms: C_15  and  O_22 
ROOT
HETATM    1  C   UNK N   1      32.725  21.277  -2.733  0.00  0.00     0.018 C 
HETATM    2  C   UNK N   1      32.517  21.673  -4.195  0.00  0.00    -0.014 C 
HETATM    3  C   UNK N   1      32.152  23.158  -4.245  0.00  0.00     0.012 C 
HETATM    4  C   UNK N   1      30.835  23.360  -3.498  0.00  0.00     0.007 C 
HETATM    5  C   UNK N   1      29.664  22.712  -4.254  0.00  0.00     0.002 C 
HETATM    6  C   UNK N   1      30.076  21.535  -5.186  0.00  0.00    -0.004 C 
HETATM    7  C   UNK N   1      31.415  20.808  -4.845  0.00  0.00     0.001 C 
HETATM    8  C   UNK N   1      32.056  20.178  -6.081  0.00  0.00     0.008 C 
HETATM    9  C   UNK N   1      33.245  21.069  -6.389  0.00  0.00     0.033 C 
HETATM   10  C   UNK N   1      33.786  21.418  -5.020  0.00  0.00     0.126 C 
HETATM   11  C   UNK N   1      29.824  21.847  -6.660  0.00  0.00     0.010 C 
HETATM   12  C   UNK N   1      28.334  22.105  -6.869  0.00  0.00     0.038 C 
HETATM   13  C   UNK N   1      27.807  23.176  -5.939  0.00  0.00    -0.034 C 
HETATM   14  C   UNK N   1      26.553  23.652  -6.127  0.00  0.00     0.114 C 
HETATM   15  C   UNK N   1      26.037  24.780  -5.314  0.00  0.00     0.182 C 
HETATM   16  O   UNK N   1      24.944  25.260  -5.570  0.00  0.00    -0.290 OA
HETATM   17  C   UNK N   1      26.866  25.394  -4.227  0.00  0.00     0.087 C 
HETATM   18  C   UNK N   1      27.952  24.436  -3.752  0.00  0.00     0.022 C 
HETATM   19  C   UNK N   1      28.740  23.788  -4.900  0.00  0.00    -0.013 C 
HETATM   20  C   UNK N   1      29.565  24.854  -5.623  0.00  0.00     0.020 C 
ENDROOT
BRANCH  10  21
HETATM   21  O   UNK N   1      34.491  20.303  -4.548  0.00  0.00    -0.395 OA
HETATM   22  H   UNK N   1      34.190  19.568  -3.991  0.00  0.00     0.210 HD
ENDBRANCH  10  21
BRANCH  14  23
HETATM   23  O   UNK N   1      25.771  23.130  -7.095  0.00  0.00    -0.357 OA
HETATM   24  H   UNK N   1      25.651  23.587  -7.904  0.00  0.00     0.218 HD
ENDBRANCH  14  23
TORSDOF 2
ENDMDL
MODEL 7
REMARK VINA RESULT:      -6.7      6.728     10.799
REMARK  2 active torsions:
REMARK  status: ('A' for Active; 'I' for Inactive)
REMARK    1  A    between atoms: C_10  and  O_11 
REMARK    2  A    between atoms: C_15  and  O_22 
ROOT
HETATM    1  C   UNK N   1      27.689  15.724   4.128  0.00  0.00     0.018 C 
HETATM    2  C   UNK N   1      27.248  16.989   4.864  0.00  0.00    -0.014 C 
HETATM    3  C   UNK N   1      25.915  16.703   5.558  0.00  0.00     0.012 C 
HETATM    4  C   UNK N   1      24.871  16.377   4.492  0.00  0.00     0.007 C 
HETATM    5  C   UNK N   1      24.538  17.616   3.645  0.00  0.00     0.002 C 
HETATM    6  C   UNK N   1      25.672  18.682   3.594  0.00  0.00    -0.004 C 
HETATM    7  C   UNK N   1      27.121  18.176   3.884  0.00  0.00     0.001 C 
HETATM    8  C   UNK N   1      28.010  19.281   4.452  0.00  0.00     0.008 C 
HETATM    9  C   UNK N   1      28.172  18.924   5.918  0.00  0.00     0.033 C 
HETATM   10  C   UNK N   1      28.297  17.417   5.900  0.00  0.00     0.126 C 
HETATM   11  C   UNK N   1      25.262  19.997   4.255  0.00  0.00     0.010 C 
HETATM   12  C   UNK N   1      24.054  20.570   3.519  0.00  0.00     0.038 C 
HETATM   13  C   UNK N   1      22.918  19.574   3.430  0.00  0.00    -0.034 C 
HETATM   14  C   UNK N   1      21.712  19.990   2.976  0.00  0.00     0.114 C 
HETATM   15  C   UNK N   1      20.542  19.079   2.980  0.00  0.00     0.182 C 
HETATM   16  O   UNK N   1      19.442  19.505   2.663  0.00  0.00    -0.290 OA
HETATM   17  C   UNK N   1      20.668  17.657   3.436  0.00  0.00     0.087 C 
HETATM   18  C   UNK N   1      22.113  17.179   3.359  0.00  0.00     0.022 C 
HETATM   19  C   UNK N   1      23.117  18.164   3.975  0.00  0.00    -0.013 C 
HETATM   20  C   UNK N   1      22.899  18.242   5.487  0.00  0.00     0.020 C 
ENDROOT
BRANCH  10  21
HETATM   21  O   UNK N   1      29.595  17.106   5.477  0.00  0.00    -0.395 OA
HETATM   22  H   UNK N   1      29.893  16.623   4.690  0.00  0.00     0.210 HD
ENDBRANCH  10  21
BRANCH  14  23
HETATM   23  O   UNK N   1      21.551  21.262   2.556  0.00  0.00    -0.357 OA
HETATM   24  H   UNK N   1      21.614  21.973   3.163  0.00  0.00     0.218 HD
ENDBRANCH  14  23
TORSDOF 2
ENDMDL
MODEL 8
REMARK VINA RESULT:      -6.7     16.018     18.339
REMARK  2 active torsions:
REMARK  status: ('A' for Active; 'I' for Inactive)
REMARK    1  A    between atoms: C_10  and  O_11 
REMARK    2  A    between atoms: C_15  and  O_22 
ROOT
HETATM    1  C   UNK N   1      29.700  27.255  -3.687  0.00  0.00     0.018 C 
HETATM    2  C   UNK N   1      28.199  27.376  -3.950  0.00  0.00    -0.014 C 
HETATM    3  C   UNK N   1      27.553  26.014  -3.688  0.00  0.00     0.012 C 
HETATM    4  C   UNK N   1      28.135  25.002  -4.672  0.00  0.00     0.007 C 
HETATM    5  C   UNK N   1      27.683  25.305  -6.110  0.00  0.00     0.002 C 
HETATM    6  C   UNK N   1      27.307  26.794  -6.364  0.00  0.00    -0.004 C 
HETATM    7  C   UNK N   1      27.932  27.849  -5.396  0.00  0.00     0.001 C 
HETATM    8  C   UNK N   1      27.063  29.098  -5.271  0.00  0.00     0.008 C 
HETATM    9  C   UNK N   1      26.443  28.994  -3.890  0.00  0.00     0.033 C 
HETATM   10  C   UNK N   1      27.566  28.440  -3.042  0.00  0.00     0.126 C 
HETATM   11  C   UNK N   1      25.827  26.969  -6.701  0.00  0.00     0.010 C 
HETATM   12  C   UNK N   1      25.509  26.188  -7.972  0.00  0.00     0.038 C 
HETATM   13  C   UNK N   1      25.923  24.736  -7.866  0.00  0.00    -0.034 C 
HETATM   14  C   UNK N   1      25.541  23.869  -8.833  0.00  0.00     0.114 C 
HETATM   15  C   UNK N   1      25.825  22.419  -8.712  0.00  0.00     0.182 C 
HETATM   16  O   UNK N   1      25.381  21.643  -9.545  0.00  0.00    -0.290 OA
HETATM   17  C   UNK N   1      26.589  21.874  -7.544  0.00  0.00     0.087 C 
HETATM   18  C   UNK N   1      27.425  22.959  -6.876  0.00  0.00     0.022 C 
HETATM   19  C   UNK N   1      26.646  24.255  -6.612  0.00  0.00    -0.013 C 
HETATM   20  C   UNK N   1      25.570  24.002  -5.554  0.00  0.00     0.020 C 
ENDROOT
BRANCH  10  21
HETATM   21  O   UNK N   1      28.456  29.490  -2.781  0.00  0.00    -0.395 OA
HETATM   22  H   UNK N   1      29.410  29.550  -2.945  0.00  0.00     0.210 HD
ENDBRANCH  10  21
BRANCH  14  23
HETATM   23  O   UNK N   1      24.850  24.314  -9.903  0.00  0.00    -0.357 OA
HETATM   24  H   UNK N   1      24.744  25.233 -10.050  0.00  0.00     0.218 HD
ENDBRANCH  14  23
TORSDOF 2
ENDMDL
MODEL 9
REMARK VINA RESULT:      -6.7      3.337      6.499
REMARK  2 active torsions:
REMARK  status: ('A' for Active; 'I' for Inactive)
REMARK    1  A    between atoms: C_10  and  O_11 
REMARK    2  A    between atoms: C_15  and  O_22 
ROOT
HETATM    1  C   UNK N   1      33.820  15.571   5.677  0.00  0.00     0.018 C 
HETATM    2  C   UNK N   1      32.722  15.290   6.703  0.00  0.00    -0.014 C 
HETATM    3  C   UNK N   1      31.434  14.954   5.950  0.00  0.00     0.012 C 
HETATM    4  C   UNK N   1      31.022  16.171   5.123  0.00  0.00     0.007 C 
HETATM    5  C   UNK N   1      30.576  17.331   6.029  0.00  0.00     0.002 C 
HETATM    6  C   UNK N   1      31.185  17.296   7.461  0.00  0.00    -0.004 C 
HETATM    7  C   UNK N   1      32.520  16.505   7.635  0.00  0.00     0.001 C 
HETATM    8  C   UNK N   1      32.689  15.971   9.056  0.00  0.00     0.008 C 
HETATM    9  C   UNK N   1      32.449  14.478   8.933  0.00  0.00     0.033 C 
HETATM   10  C   UNK N   1      33.112  14.123   7.621  0.00  0.00     0.126 C 
HETATM   11  C   UNK N   1      30.122  17.088   8.538  0.00  0.00     0.010 C 
HETATM   12  C   UNK N   1      29.125  18.242   8.486  0.00  0.00     0.038 C 
HETATM   13  C   UNK N   1      28.538  18.423   7.103  0.00  0.00    -0.034 C 
HETATM   14  C   UNK N   1      27.502  19.279   6.934  0.00  0.00     0.114 C 
HETATM   15  C   UNK N   1      26.822  19.402   5.622  0.00  0.00     0.182 C 
HETATM   16  O   UNK N   1      25.826  20.102   5.520  0.00  0.00    -0.290 OA
HETATM   17  C   UNK N   1      27.290  18.624   4.430  0.00  0.00     0.087 C 
HETATM   18  C   UNK N   1      28.739  18.182   4.594  0.00  0.00     0.022 C 
HETATM   19  C   UNK N   1      29.034  17.545   5.959  0.00  0.00    -0.013 C 
HETATM   20  C   UNK N   1      28.292  16.212   6.075  0.00  0.00     0.020 C 
ENDROOT
BRANCH  10  21
HETATM   21  O   UNK N   1      34.495  14.084   7.844  0.00  0.00    -0.395 OA
HETATM   22  H   UNK N   1      35.124  13.357   7.715  0.00  0.00     0.210 HD
ENDBRANCH  10  21
BRANCH  14  23
HETATM   23  O   UNK N   1      27.045  20.000   7.979  0.00  0.00    -0.357 OA
HETATM   24  H   UNK N   1      27.545  20.718   8.314  0.00  0.00     0.218 HD
ENDBRANCH  14  23
TORSDOF 2
ENDMDL
