MODEL 1
REMARK VINA RESULT:      -6.8      0.000      0.000
REMARK  4 active torsions:
REMARK  status: ('A' for Active; 'I' for Inactive)
REMARK    1  A    between atoms: C_6  and  O_19 
REMARK    2  A    between atoms: N_11  and  C_8 
REMARK    3  A    between atoms: C_10  and  N_18 
REMARK    4  A    between atoms: P_24  and  O_20 
ROOT
HETATM    1  C   UNK N   1      32.439  17.658   8.523  0.00  0.00     0.183 A 
HETATM    2  C   UNK N   1      35.618  14.600   8.127  0.00  0.00     0.188 A 
HETATM    3  C   UNK N   1      34.320  16.098   7.319  0.00  0.00     0.122 A 
HETATM    4  C   UNK N   1      33.597  16.996   6.548  0.00  0.00     0.131 A 
HETATM    5  C   UNK N   1      34.080  16.000   8.641  0.00  0.00     0.142 A 
HETATM    6  N   UNK N   1      32.660  17.771   7.171  0.00  0.00    -0.337 N 
ATOM      7  HN  UNK N   1      32.118  18.441   6.628  1.00  0.00     0.168 HD
HETATM    8  N   UNK N   1      33.151  16.760   9.270  0.00  0.00    -0.336 N 
ATOM      9  HN  UNK N   1      32.986  16.664  10.272  1.00  0.00     0.168 HD
HETATM   10  N   UNK N   1      35.285  15.230   6.964  0.00  0.00    -0.346 N 
ATOM     11  HN  UNK N   1      35.678  15.078   6.035  1.00  0.00     0.167 HD
HETATM   12  N   UNK N   1      34.877  15.059   9.170  0.00  0.00    -0.297 N 
ENDROOT
BRANCH  12  13
HETATM   13  C   UNK N   1      34.917  14.577  10.559  0.00  0.00     0.262 C 
HETATM   14  C   UNK N   1      35.629  15.595  11.476  0.00  0.00     0.199 C 
HETATM   15  C   UNK N   1      36.273  14.675  12.477  0.00  0.00     0.195 C 
HETATM   16  C   UNK N   1      36.720  13.585  11.484  0.00  0.00     0.180 C 
HETATM   17  O   UNK N   1      35.292  14.225  13.393  0.00  0.00    -0.303 OA
HETATM   18  C   UNK N   1      37.254  12.311  12.161  0.00  0.00     0.213 C 
HETATM   19  O   UNK N   1      35.616  13.340  10.648  0.00  0.00    -0.353 OA
HETATM   20  O   UNK N   1      36.316  11.680  12.991  0.00  0.00    -0.311 OA
HETATM   21  P   UNK N   1      35.966  12.848  14.220  0.00  0.00     0.327 P 
HETATM   22  S   UNK N   1      34.729  12.171  15.285  0.00  0.00    -0.007 SA
BRANCH  14  23
HETATM   23  O   UNK N   1      36.641  16.265  10.773  0.00  0.00    -0.388 OA
HETATM   24  H   UNK N   1      37.383  16.222  10.149  0.00  0.00     0.210 HD
ENDBRANCH  14  23
BRANCH  21  25
HETATM   25  O   UNK N   1      37.368  13.258  15.161  0.00  0.00    -0.324 OA
HETATM   26  H   UNK N   1      38.229  12.982  15.512  0.00  0.00     0.220 HD
ENDBRANCH  21  25
ENDBRANCH  12  13
BRANCH   4  27
HETATM   27  N   UNK N   1      33.810  17.107   5.158  0.00  0.00    -0.383 N 
HETATM   28  H   UNK N   1      34.689  16.890   4.774  0.00  0.00     0.157 HD
HETATM   29  H   UNK N   1      33.076  17.403   4.572  0.00  0.00     0.157 HD
ENDBRANCH   4  27
TORSDOF 4
ENDMDL
MODEL 2
REMARK VINA RESULT:      -6.8     14.288     15.973
REMARK  4 active torsions:
REMARK  status: ('A' for Active; 'I' for Inactive)
REMARK    1  A    between atoms: C_6  and  O_19 
REMARK    2  A    between atoms: N_11  and  C_8 
REMARK    3  A    between atoms: C_10  and  N_18 
REMARK    4  A    between atoms: P_24  and  O_20 
ROOT
HETATM    1  C   UNK N   1      21.159  20.135   3.819  0.00  0.00     0.183 A 
HETATM    2  C   UNK N   1      20.281  16.691   1.176  0.00  0.00     0.188 A 
HETATM    3  C   UNK N   1      20.511  18.788   1.542  0.00  0.00     0.122 A 
HETATM    4  C   UNK N   1      20.582  20.172   1.507  0.00  0.00     0.131 A 
HETATM    5  C   UNK N   1      20.751  18.130   2.692  0.00  0.00     0.142 A 
HETATM    6  N   UNK N   1      20.910  20.829   2.659  0.00  0.00    -0.337 N 
ATOM      7  HN  UNK N   1      20.972  21.846   2.659  1.00  0.00     0.168 HD
HETATM    8  N   UNK N   1      21.074  18.770   3.843  0.00  0.00    -0.336 N 
ATOM      9  HN  UNK N   1      21.249  18.249   4.701  1.00  0.00     0.168 HD
HETATM   10  N   UNK N   1      20.214  17.909   0.567  0.00  0.00    -0.346 N 
ATOM     11  HN  UNK N   1      19.988  18.110  -0.408  1.00  0.00     0.167 HD
HETATM   12  N   UNK N   1      20.605  16.811   2.491  0.00  0.00    -0.297 N 
ENDROOT
BRANCH  12  13
HETATM   13  C   UNK N   1      20.712  15.724   3.476  0.00  0.00     0.262 C 
HETATM   14  C   UNK N   1      19.368  15.500   4.201  0.00  0.00     0.199 C 
HETATM   15  C   UNK N   1      19.846  15.069   5.562  0.00  0.00     0.195 C 
HETATM   16  C   UNK N   1      21.014  16.067   5.685  0.00  0.00     0.180 C 
HETATM   17  O   UNK N   1      20.270  13.720   5.498  0.00  0.00    -0.303 OA
HETATM   18  C   UNK N   1      21.930  15.801   6.892  0.00  0.00     0.213 C 
HETATM   19  O   UNK N   1      21.699  16.023   4.457  0.00  0.00    -0.353 OA
HETATM   20  O   UNK N   1      22.537  14.538   6.872  0.00  0.00    -0.311 OA
HETATM   21  P   UNK N   1      21.215  13.419   6.929  0.00  0.00     0.327 P 
HETATM   22  S   UNK N   1      21.876  11.783   6.834  0.00  0.00    -0.007 SA
BRANCH  14  23
HETATM   23  O   UNK N   1      18.678  16.714   4.338  0.00  0.00    -0.388 OA
HETATM   24  H   UNK N   1      18.163  17.315   4.900  0.00  0.00     0.210 HD
ENDBRANCH  14  23
BRANCH  21  25
HETATM   25  O   UNK N   1      20.282  13.574   8.387  0.00  0.00    -0.324 OA
HETATM   26  H   UNK N   1      19.719  13.144   9.050  0.00  0.00     0.220 HD
ENDBRANCH  21  25
ENDBRANCH  12  13
BRANCH   4  27
HETATM   27  N   UNK N   1      20.315  20.891   0.323  0.00  0.00    -0.383 N 
HETATM   28  H   UNK N   1      20.472  21.861   0.288  0.00  0.00     0.157 HD
HETATM   29  H   UNK N   1      19.970  20.420  -0.470  0.00  0.00     0.157 HD
ENDBRANCH   4  27
TORSDOF 4
ENDMDL
MODEL 3
REMARK VINA RESULT:      -6.5      1.832      2.340
REMARK  4 active torsions:
REMARK  status: ('A' for Active; 'I' for Inactive)
REMARK    1  A    between atoms: C_6  and  O_19 
REMARK    2  A    between atoms: N_11  and  C_8 
REMARK    3  A    between atoms: C_10  and  N_18 
REMARK    4  A    between atoms: P_24  and  O_20 
ROOT
HETATM    1  C   UNK N   1      30.236  16.862   7.074  0.00  0.00     0.183 A 
HETATM    2  C   UNK N   1      34.571  16.089   6.599  0.00  0.00     0.188 A 
HETATM    3  C   UNK N   1      32.679  16.780   5.873  0.00  0.00     0.122 A 
HETATM    4  C   UNK N   1      31.597  17.274   5.161  0.00  0.00     0.131 A 
HETATM    5  C   UNK N   1      32.512  16.341   7.135  0.00  0.00     0.142 A 
HETATM    6  N   UNK N   1      30.380  17.308   5.782  0.00  0.00    -0.337 N 
ATOM      7  HN  UNK N   1      29.569  17.669   5.282  1.00  0.00     0.168 HD
HETATM    8  N   UNK N   1      31.310  16.366   7.760  0.00  0.00    -0.336 N 
ATOM      9  HN  UNK N   1      31.209  16.025   8.716  1.00  0.00     0.168 HD
HETATM   10  N   UNK N   1      33.966  16.637   5.506  0.00  0.00    -0.346 N 
ATOM     11  HN  UNK N   1      34.393  16.882   4.612  1.00  0.00     0.167 HD
HETATM   12  N   UNK N   1      33.685  15.893   7.610  0.00  0.00    -0.297 N 
ENDROOT
BRANCH  12  13
HETATM   13  C   UNK N   1      33.959  15.273   8.915  0.00  0.00     0.262 C 
HETATM   14  C   UNK N   1      34.117  16.346  10.014  0.00  0.00     0.199 C 
HETATM   15  C   UNK N   1      35.128  15.686  10.913  0.00  0.00     0.195 C 
HETATM   16  C   UNK N   1      36.026  15.102   9.805  0.00  0.00     0.180 C 
HETATM   17  O   UNK N   1      34.482  14.694  11.688  0.00  0.00    -0.303 OA
HETATM   18  C   UNK N   1      37.101  14.133  10.326  0.00  0.00     0.213 C 
HETATM   19  O   UNK N   1      35.158  14.506   8.872  0.00  0.00    -0.353 OA
HETATM   20  O   UNK N   1      36.578  13.017  10.993  0.00  0.00    -0.311 OA
HETATM   21  P   UNK N   1      35.731  13.678  12.351  0.00  0.00     0.327 P 
HETATM   22  S   UNK N   1      34.967  12.344  13.224  0.00  0.00    -0.007 SA
BRANCH  14  23
HETATM   23  O   UNK N   1      34.690  17.511   9.483  0.00  0.00    -0.388 OA
HETATM   24  H   UNK N   1      34.786  18.119   8.732  0.00  0.00     0.210 HD
ENDBRANCH  14  23
BRANCH  21  25
HETATM   25  O   UNK N   1      36.785  14.538  13.432  0.00  0.00    -0.324 OA
HETATM   26  H   UNK N   1      36.875  15.198  14.138  0.00  0.00     0.220 HD
ENDBRANCH  21  25
ENDBRANCH  12  13
BRANCH   4  27
HETATM   27  N   UNK N   1      31.735  17.722   3.831  0.00  0.00    -0.383 N 
HETATM   28  H   UNK N   1      32.112  17.125   3.146  0.00  0.00     0.157 HD
HETATM   29  H   UNK N   1      31.454  18.633   3.587  0.00  0.00     0.157 HD
ENDBRANCH   4  27
TORSDOF 4
ENDMDL
MODEL 4
REMARK VINA RESULT:      -6.4      3.062      4.483
REMARK  4 active torsions:
REMARK  status: ('A' for Active; 'I' for Inactive)
REMARK    1  A    between atoms: C_6  and  O_19 
REMARK    2  A    between atoms: N_11  and  C_8 
REMARK    3  A    between atoms: C_10  and  N_18 
REMARK    4  A    between atoms: P_24  and  O_20 
ROOT
HETATM    1  C   UNK N   1      32.889  15.619   3.887  0.00  0.00     0.183 A 
HETATM    2  C   UNK N   1      30.410  17.155   7.221  0.00  0.00     0.188 A 
HETATM    3  C   UNK N   1      30.767  16.775   5.145  0.00  0.00     0.122 A 
HETATM    4  C   UNK N   1      30.749  16.661   3.763  0.00  0.00     0.131 A 
HETATM    5  C   UNK N   1      31.827  16.327   5.844  0.00  0.00     0.142 A 
HETATM    6  N   UNK N   1      31.822  16.077   3.152  0.00  0.00    -0.337 N 
ATOM      7  HN  UNK N   1      31.832  15.978   2.138  1.00  0.00     0.168 HD
HETATM    8  N   UNK N   1      32.899  15.749   5.249  0.00  0.00    -0.336 N 
ATOM      9  HN  UNK N   1      33.691  15.421   5.801  1.00  0.00     0.168 HD
HETATM   10  N   UNK N   1      29.856  17.302   5.983  0.00  0.00    -0.346 N 
ATOM     11  HN  UNK N   1      28.954  17.716   5.747  1.00  0.00     0.167 HD
HETATM   12  N   UNK N   1      31.631  16.562   7.151  0.00  0.00    -0.297 N 
ENDROOT
BRANCH  12  13
HETATM   13  C   UNK N   1      32.547  16.294   8.270  0.00  0.00     0.262 C 
HETATM   14  C   UNK N   1      33.488  17.495   8.514  0.00  0.00     0.199 C 
HETATM   15  C   UNK N   1      34.730  16.791   8.990  0.00  0.00     0.195 C 
HETATM   16  C   UNK N   1      34.681  15.611   8.000  0.00  0.00     0.180 C 
HETATM   17  O   UNK N   1      34.551  16.395  10.337  0.00  0.00    -0.303 OA
HETATM   18  C   UNK N   1      35.702  14.503   8.307  0.00  0.00     0.213 C 
HETATM   19  O   UNK N   1      33.352  15.150   8.005  0.00  0.00    -0.353 OA
HETATM   20  O   UNK N   1      35.536  13.919   9.570  0.00  0.00    -0.311 OA
HETATM   21  P   UNK N   1      35.786  15.219  10.687  0.00  0.00     0.327 P 
HETATM   22  S   UNK N   1      35.526  14.598  12.321  0.00  0.00    -0.007 SA
BRANCH  14  23
HETATM   23  O   UNK N   1      33.781  18.141   7.303  0.00  0.00    -0.388 OA
HETATM   24  H   UNK N   1      34.335  18.200   6.510  0.00  0.00     0.210 HD
ENDBRANCH  14  23
BRANCH  21  25
HETATM   25  O   UNK N   1      37.388  15.884  10.577  0.00  0.00    -0.324 OA
HETATM   26  H   UNK N   1      38.236  16.057  11.016  0.00  0.00     0.220 HD
ENDBRANCH  21  25
ENDBRANCH  12  13
BRANCH   4  27
HETATM   27  N   UNK N   1      29.663  17.140   3.001  0.00  0.00    -0.383 N 
HETATM   28  H   UNK N   1      29.313  18.046   3.156  0.00  0.00     0.157 HD
HETATM   29  H   UNK N   1      29.255  16.566   2.313  0.00  0.00     0.157 HD
ENDBRANCH   4  27
TORSDOF 4
ENDMDL
MODEL 5
REMARK VINA RESULT:      -6.4      3.136      4.455
REMARK  4 active torsions:
REMARK  status: ('A' for Active; 'I' for Inactive)
REMARK    1  A    between atoms: C_6  and  O_19 
REMARK    2  A    between atoms: N_11  and  C_8 
REMARK    3  A    between atoms: C_10  and  N_18 
REMARK    4  A    between atoms: P_24  and  O_20 
ROOT
HETATM    1  C   UNK N   1      28.512  18.257   9.144  0.00  0.00     0.183 A 
HETATM    2  C   UNK N   1      31.386  16.137   6.524  0.00  0.00     0.188 A 
HETATM    3  C   UNK N   1      29.521  17.127   6.881  0.00  0.00     0.122 A 
HETATM    4  C   UNK N   1      28.259  17.702   6.840  0.00  0.00     0.131 A 
HETATM    5  C   UNK N   1      30.224  17.125   8.029  0.00  0.00     0.142 A 
HETATM    6  N   UNK N   1      27.773  18.265   7.986  0.00  0.00    -0.337 N 
ATOM      7  HN  UNK N   1      26.849  18.696   7.982  1.00  0.00     0.168 HD
HETATM    8  N   UNK N   1      29.750  17.677   9.173  0.00  0.00    -0.336 N 
ATOM      9  HN  UNK N   1      30.301  17.659  10.030  1.00  0.00     0.168 HD
HETATM   10  N   UNK N   1      30.226  16.514   5.912  0.00  0.00    -0.346 N 
ATOM     11  HN  UNK N   1      29.955  16.365   4.940  1.00  0.00     0.167 HD
HETATM   12  N   UNK N   1      31.396  16.501   7.834  0.00  0.00    -0.297 N 
ENDROOT
BRANCH  12  13
HETATM   13  C   UNK N   1      32.449  16.215   8.820  0.00  0.00     0.262 C 
HETATM   14  C   UNK N   1      33.454  17.384   8.910  0.00  0.00     0.199 C 
HETATM   15  C   UNK N   1      34.726  16.643   9.222  0.00  0.00     0.195 C 
HETATM   16  C   UNK N   1      34.500  15.453   8.268  0.00  0.00     0.180 C 
HETATM   17  O   UNK N   1      34.723  16.270  10.587  0.00  0.00    -0.303 OA
HETATM   18  C   UNK N   1      35.516  14.313   8.450  0.00  0.00     0.213 C 
HETATM   19  O   UNK N   1      33.170  15.039   8.466  0.00  0.00    -0.353 OA
HETATM   20  O   UNK N   1      35.508  13.751   9.735  0.00  0.00    -0.311 OA
HETATM   21  P   UNK N   1      35.955  15.055  10.783  0.00  0.00     0.327 P 
HETATM   22  S   UNK N   1      35.903  14.464  12.448  0.00  0.00    -0.007 SA
BRANCH  14  23
HETATM   23  O   UNK N   1      33.597  18.004   7.660  0.00  0.00    -0.388 OA
HETATM   24  H   UNK N   1      33.916  18.760   7.143  0.00  0.00     0.210 HD
ENDBRANCH  14  23
BRANCH  21  25
HETATM   25  O   UNK N   1      37.547  15.662  10.441  0.00  0.00    -0.324 OA
HETATM   26  H   UNK N   1      38.500  15.486  10.398  0.00  0.00     0.220 HD
ENDBRANCH  21  25
ENDBRANCH  12  13
BRANCH   4  27
HETATM   27  N   UNK N   1      27.490  17.701   5.658  0.00  0.00    -0.383 N 
HETATM   28  H   UNK N   1      26.538  17.945   5.689  0.00  0.00     0.157 HD
HETATM   29  H   UNK N   1      27.908  17.456   4.801  0.00  0.00     0.157 HD
ENDBRANCH   4  27
TORSDOF 4
ENDMDL
MODEL 6
REMARK VINA RESULT:      -6.3      4.470      7.027
REMARK  4 active torsions:
REMARK  status: ('A' for Active; 'I' for Inactive)
REMARK    1  A    between atoms: C_6  and  O_19 
REMARK    2  A    between atoms: N_11  and  C_8 
REMARK    3  A    between atoms: C_10  and  N_18 
REMARK    4  A    between atoms: P_24  and  O_20 
ROOT
HETATM    1  C   UNK N   1      34.853  11.580  12.549  0.00  0.00     0.183 A 
HETATM    2  C   UNK N   1      35.834  15.809  11.669  0.00  0.00     0.188 A 
HETATM    3  C   UNK N   1      36.021  14.024  12.836  0.00  0.00     0.122 A 
HETATM    4  C   UNK N   1      36.312  13.028  13.757  0.00  0.00     0.131 A 
HETATM    5  C   UNK N   1      35.165  13.780  11.826  0.00  0.00     0.142 A 
HETATM    6  N   UNK N   1      35.717  11.809  13.593  0.00  0.00    -0.337 N 
ATOM      7  HN  UNK N   1      35.916  11.059  14.254  1.00  0.00     0.168 HD
HETATM    8  N   UNK N   1      34.566  12.576  11.656  0.00  0.00    -0.336 N 
ATOM      9  HN  UNK N   1      33.920  12.417  10.884  1.00  0.00     0.168 HD
HETATM   10  N   UNK N   1      36.461  15.294  12.765  0.00  0.00    -0.346 N 
ATOM     11  HN  UNK N   1      37.117  15.765  13.390  1.00  0.00     0.167 HD
HETATM   12  N   UNK N   1      35.024  14.888  11.083  0.00  0.00    -0.297 N 
ENDROOT
BRANCH  12  13
HETATM   13  C   UNK N   1      34.149  15.097   9.920  0.00  0.00     0.262 C 
HETATM   14  C   UNK N   1      34.725  14.409   8.663  0.00  0.00     0.199 C 
HETATM   15  C   UNK N   1      34.260  15.349   7.585  0.00  0.00     0.195 C 
HETATM   16  C   UNK N   1      34.524  16.665   8.341  0.00  0.00     0.180 C 
HETATM   17  O   UNK N   1      32.886  15.119   7.331  0.00  0.00    -0.303 OA
HETATM   18  C   UNK N   1      33.959  17.910   7.636  0.00  0.00     0.213 C 
HETATM   19  O   UNK N   1      34.004  16.484   9.636  0.00  0.00    -0.353 OA
HETATM   20  O   UNK N   1      32.570  17.872   7.455  0.00  0.00    -0.311 OA
HETATM   21  P   UNK N   1      32.300  16.495   6.439  0.00  0.00     0.327 P 
HETATM   22  S   UNK N   1      30.557  16.316   6.208  0.00  0.00    -0.007 SA
BRANCH  14  23
HETATM   23  O   UNK N   1      36.128  14.430   8.694  0.00  0.00    -0.388 OA
HETATM   24  H   UNK N   1      36.965  14.524   8.213  0.00  0.00     0.210 HD
ENDBRANCH  14  23
BRANCH  21  25
HETATM   25  O   UNK N   1      33.067  16.659   4.888  0.00  0.00    -0.324 OA
HETATM   26  H   UNK N   1      33.863  16.903   4.388  0.00  0.00     0.220 HD
ENDBRANCH  21  25
ENDBRANCH  12  13
BRANCH   4  27
HETATM   27  N   UNK N   1      37.187  13.260  14.838  0.00  0.00    -0.383 N 
HETATM   28  H   UNK N   1      38.000  13.798  14.708  0.00  0.00     0.157 HD
HETATM   29  H   UNK N   1      36.983  12.883  15.724  0.00  0.00     0.157 HD
ENDBRANCH   4  27
TORSDOF 4
ENDMDL
MODEL 7
REMARK VINA RESULT:      -6.1      1.827      2.816
REMARK  4 active torsions:
REMARK  status: ('A' for Active; 'I' for Inactive)
REMARK    1  A    between atoms: C_6  and  O_19 
REMARK    2  A    between atoms: N_11  and  C_8 
REMARK    3  A    between atoms: C_10  and  N_18 
REMARK    4  A    between atoms: P_24  and  O_20 
ROOT
HETATM    1  C   UNK N   1      32.665  14.118   8.941  0.00  0.00     0.183 A 
HETATM    2  C   UNK N   1      35.530  16.520  11.318  0.00  0.00     0.188 A 
HETATM    3  C   UNK N   1      34.130  16.280   9.715  0.00  0.00     0.122 A 
HETATM    4  C   UNK N   1      33.294  16.394   8.615  0.00  0.00     0.131 A 
HETATM    5  C   UNK N   1      34.217  15.111  10.378  0.00  0.00     0.142 A 
HETATM    6  N   UNK N   1      32.567  15.298   8.244  0.00  0.00    -0.337 N 
ATOM      7  HN  UNK N   1      31.942  15.357   7.441  1.00  0.00     0.168 HD
HETATM    8  N   UNK N   1      33.503  14.017  10.018  0.00  0.00    -0.336 N 
ATOM      9  HN  UNK N   1      33.589  13.142  10.535  1.00  0.00     0.168 HD
HETATM   10  N   UNK N   1      34.944  17.189  10.283  0.00  0.00    -0.346 N 
ATOM     11  HN  UNK N   1      35.090  18.159  10.004  1.00  0.00     0.167 HD
HETATM   12  N   UNK N   1      35.096  15.233  11.384  0.00  0.00    -0.297 N 
ENDROOT
BRANCH  12  13
HETATM   13  C   UNK N   1      35.547  14.198  12.328  0.00  0.00     0.262 C 
HETATM   14  C   UNK N   1      36.774  13.442  11.775  0.00  0.00     0.199 C 
HETATM   15  C   UNK N   1      36.546  12.070  12.350  0.00  0.00     0.195 C 
HETATM   16  C   UNK N   1      35.022  12.013  12.128  0.00  0.00     0.180 C 
HETATM   17  O   UNK N   1      36.909  12.075  13.718  0.00  0.00    -0.303 OA
HETATM   18  C   UNK N   1      34.342  10.809  12.802  0.00  0.00     0.213 C 
HETATM   19  O   UNK N   1      34.515  13.248  12.571  0.00  0.00    -0.353 OA
HETATM   20  O   UNK N   1      34.504  10.778  14.194  0.00  0.00    -0.311 OA
HETATM   21  P   UNK N   1      36.215  10.646  14.431  0.00  0.00     0.327 P 
HETATM   22  S   UNK N   1      36.532  10.672  16.169  0.00  0.00    -0.007 SA
BRANCH  14  23
HETATM   23  O   UNK N   1      36.704  13.353  10.376  0.00  0.00    -0.388 OA
HETATM   24  H   UNK N   1      36.410  12.865   9.592  0.00  0.00     0.210 HD
ENDBRANCH  14  23
BRANCH  21  25
HETATM   25  O   UNK N   1      36.864   9.183  13.754  0.00  0.00    -0.324 OA
HETATM   26  H   UNK N   1      36.699   8.277  13.448  0.00  0.00     0.220 HD
ENDBRANCH  21  25
ENDBRANCH  12  13
BRANCH   4  27
HETATM   27  N   UNK N   1      33.198  17.598   7.887  0.00  0.00    -0.383 N 
HETATM   28  H   UNK N   1      32.323  18.027   7.756  0.00  0.00     0.157 HD
HETATM   29  H   UNK N   1      34.009  18.010   7.510  0.00  0.00     0.157 HD
ENDBRANCH   4  27
TORSDOF 4
ENDMDL
MODEL 8
REMARK VINA RESULT:      -6.0      1.267      1.646
REMARK  4 active torsions:
REMARK  status: ('A' for Active; 'I' for Inactive)
REMARK    1  A    between atoms: C_6  and  O_19 
REMARK    2  A    between atoms: N_11  and  C_8 
REMARK    3  A    between atoms: C_10  and  N_18 
REMARK    4  A    between atoms: P_24  and  O_20 
ROOT
HETATM    1  C   UNK N   1      32.762  14.230   7.056  0.00  0.00     0.183 A 
HETATM    2  C   UNK N   1      34.798  17.259   9.567  0.00  0.00     0.188 A 
HETATM    3  C   UNK N   1      33.928  16.599   7.725  0.00  0.00     0.122 A 
HETATM    4  C   UNK N   1      33.449  16.426   6.435  0.00  0.00     0.131 A 
HETATM    5  C   UNK N   1      33.822  15.601   8.622  0.00  0.00     0.142 A 
HETATM    6  N   UNK N   1      32.866  15.231   6.121  0.00  0.00    -0.337 N 
ATOM      7  HN  UNK N   1      32.503  15.080   5.181  1.00  0.00     0.168 HD
HETATM    8  N   UNK N   1      33.250  14.410   8.322  0.00  0.00    -0.336 N 
ATOM      9  HN  UNK N   1      33.184  13.669   9.019  1.00  0.00     0.168 HD
HETATM   10  N   UNK N   1      34.537  17.659   8.289  0.00  0.00    -0.346 N 
ATOM     11  HN  UNK N   1      34.754  18.558   7.858  1.00  0.00     0.167 HD
HETATM   12  N   UNK N   1      34.369  15.988   9.786  0.00  0.00    -0.297 N 
ENDROOT
BRANCH  12  13
HETATM   13  C   UNK N   1      34.529  15.204  11.020  0.00  0.00     0.262 C 
HETATM   14  C   UNK N   1      35.820  15.604  11.765  0.00  0.00     0.199 C 
HETATM   15  C   UNK N   1      36.209  14.290  12.387  0.00  0.00     0.195 C 
HETATM   16  C   UNK N   1      35.863  13.392  11.183  0.00  0.00     0.180 C 
HETATM   17  O   UNK N   1      35.389  14.049  13.515  0.00  0.00    -0.303 OA
HETATM   18  C   UNK N   1      35.919  11.887  11.497  0.00  0.00     0.213 C 
HETATM   19  O   UNK N   1      34.599  13.812  10.732  0.00  0.00    -0.353 OA
HETATM   20  O   UNK N   1      35.034  11.489  12.508  0.00  0.00    -0.311 OA
HETATM   21  P   UNK N   1      35.555  12.362  13.911  0.00  0.00     0.327 P 
HETATM   22  S   UNK N   1      34.449  11.983  15.236  0.00  0.00    -0.007 SA
BRANCH  14  23
HETATM   23  O   UNK N   1      36.818  15.975  10.851  0.00  0.00    -0.388 OA
HETATM   24  H   UNK N   1      37.073  16.161   9.934  0.00  0.00     0.210 HD
ENDBRANCH  14  23
BRANCH  21  25
HETATM   25  O   UNK N   1      37.175  11.946  14.382  0.00  0.00    -0.324 OA
HETATM   26  H   UNK N   1      37.831  11.248  14.538  0.00  0.00     0.220 HD
ENDBRANCH  21  25
ENDBRANCH  12  13
BRANCH   4  27
HETATM   27  N   UNK N   1      33.564  17.445   5.466  0.00  0.00    -0.383 N 
HETATM   28  H   UNK N   1      33.360  18.377   5.703  0.00  0.00     0.157 HD
HETATM   29  H   UNK N   1      33.851  17.221   4.551  0.00  0.00     0.157 HD
ENDBRANCH   4  27
TORSDOF 4
ENDMDL
MODEL 9
REMARK VINA RESULT:      -6.0      5.108      7.000
REMARK  4 active torsions:
REMARK  status: ('A' for Active; 'I' for Inactive)
REMARK    1  A    between atoms: C_6  and  O_19 
REMARK    2  A    between atoms: N_11  and  C_8 
REMARK    3  A    between atoms: C_10  and  N_18 
REMARK    4  A    between atoms: P_24  and  O_20 
ROOT
HETATM    1  C   UNK N   1      35.274  16.773  10.732  0.00  0.00     0.183 A 
HETATM    2  C   UNK N   1      34.215  13.247   8.268  0.00  0.00     0.188 A 
HETATM    3  C   UNK N   1      35.530  14.321   9.572  0.00  0.00     0.122 A 
HETATM    4  C   UNK N   1      36.554  14.793  10.379  0.00  0.00     0.131 A 
HETATM    5  C   UNK N   1      34.434  15.075   9.364  0.00  0.00     0.142 A 
HETATM    6  N   UNK N   1      36.405  16.024  10.953  0.00  0.00    -0.337 N 
ATOM      7  HN  UNK N   1      37.142  16.393  11.552  1.00  0.00     0.168 HD
HETATM    8  N   UNK N   1      34.276  16.299   9.924  0.00  0.00    -0.336 N 
ATOM      9  HN  UNK N   1      33.438  16.852   9.748  1.00  0.00     0.168 HD
HETATM   10  N   UNK N   1      35.422  13.162   8.897  0.00  0.00    -0.346 N 
ATOM     11  HN  UNK N   1      36.092  12.394   8.862  1.00  0.00     0.167 HD
HETATM   12  N   UNK N   1      33.596  14.427   8.540  0.00  0.00    -0.297 N 
ENDROOT
BRANCH  12  13
HETATM   13  C   UNK N   1      32.312  14.895   7.997  0.00  0.00     0.262 C 
HETATM   14  C   UNK N   1      32.515  15.636   6.659  0.00  0.00     0.199 C 
HETATM   15  C   UNK N   1      31.410  16.655   6.727  0.00  0.00     0.195 C 
HETATM   16  C   UNK N   1      31.560  17.011   8.219  0.00  0.00     0.180 C 
HETATM   17  O   UNK N   1      30.179  16.025   6.425  0.00  0.00    -0.303 OA
HETATM   18  C   UNK N   1      30.428  17.900   8.760  0.00  0.00     0.213 C 
HETATM   19  O   UNK N   1      31.672  15.787   8.903  0.00  0.00    -0.353 OA
HETATM   20  O   UNK N   1      29.156  17.320   8.655  0.00  0.00    -0.311 OA
HETATM   21  P   UNK N   1      28.917  17.102   6.953  0.00  0.00     0.327 P 
HETATM   22  S   UNK N   1      27.358  16.303   6.716  0.00  0.00    -0.007 SA
BRANCH  14  23
HETATM   23  O   UNK N   1      33.743  16.314   6.656  0.00  0.00    -0.388 OA
HETATM   24  H   UNK N   1      34.664  16.358   6.353  0.00  0.00     0.210 HD
ENDBRANCH  14  23
BRANCH  21  25
HETATM   25  O   UNK N   1      28.923  18.609   6.088  0.00  0.00    -0.324 OA
HETATM   26  H   UNK N   1      28.958  19.578   6.128  0.00  0.00     0.220 HD
ENDBRANCH  21  25
ENDBRANCH  12  13
BRANCH   4  27
HETATM   27  N   UNK N   1      37.723  14.037  10.599  0.00  0.00    -0.383 N 
HETATM   28  H   UNK N   1      38.588  14.489  10.724  0.00  0.00     0.157 HD
HETATM   29  H   UNK N   1      37.674  13.054  10.628  0.00  0.00     0.157 HD
ENDBRANCH   4  27
TORSDOF 4
ENDMDL
