REMARK  0 active torsions:
REMARK  status: ('A' for Active; 'I' for Inactive)
ROOT
HETATM    1  C   UNK N   1       5.420  -0.820  -1.760  0.00  0.00     0.024 C 
HETATM    2  C   UNK N   1       5.310  -0.342  -0.312  0.00  0.00     0.021 C 
HETATM    3  C   UNK N   1       4.452  -1.274   0.528  0.00  0.00     0.018 C 
HETATM    4  C   UNK N   1       3.022  -1.357  -0.037  0.00  0.00     0.007 C 
HETATM    5  C   UNK N   1       2.404  -0.016  -0.527  0.00  0.00     0.002 C 
HETATM    6  C   UNK N   1       3.335   1.205  -0.812  0.00  0.00    -0.004 C 
HETATM    7  C   UNK N   1       4.694   1.024  -0.153  0.00  0.00     0.006 C 
HETATM    8  C   UNK N   1       5.791   2.051  -0.376  0.00  0.00     0.013 C 
HETATM    9  C   UNK N   1       7.001   1.394   0.291  0.00  0.00     0.079 C 
HETATM   10  C   UNK N   1       6.672  -0.060   0.207  0.00  0.00     0.135 C 
HETATM   11  O   UNK N   1       7.498  -0.931   0.429  0.00  0.00    -0.297 OA
HETATM   12  C   UNK N   1       2.735   2.508  -0.279  0.00  0.00     0.006 C 
HETATM   13  C   UNK N   1       1.309   2.771  -0.759  0.00  0.00     0.006 C 
HETATM   14  C   UNK N   1       0.435   1.514  -0.835  0.00  0.00     0.005 C 
HETATM   15  C   UNK N   1       0.972   0.293  -0.055  0.00  0.00    -0.018 C 
HETATM   16  C   UNK N   1       0.061  -0.879  -0.343  0.00  0.00    -0.013 C 
HETATM   17  C   UNK N   1      -1.270  -0.724  -0.409  0.00  0.00     0.047 C 
HETATM   18  C   UNK N   1      -1.874   0.626  -0.348  0.00  0.00     0.149 C 
HETATM   19  O   UNK N   1      -3.077   0.744  -0.205  0.00  0.00    -0.293 OA
HETATM   20  C   UNK N   1      -1.012   1.859  -0.457  0.00  0.00     0.088 C 
HETATM   21  C   UNK N   1       0.975   0.560   1.449  0.00  0.00     0.020 C 
ENDROOT
TORSDOF 0
