REMARK  3 active torsions:
REMARK  status: ('A' for Active; 'I' for Inactive)
REMARK    1  A    between atoms: C_2  and  N_1 
REMARK    2  A    between atoms: C_2  and  C_3 
REMARK    3  A    between atoms: C_2  and  C_5 
ROOT
HETATM    1  C   UNK N   1       1.416   0.664   0.000  0.00  0.00     0.305 C 
ENDROOT
BRANCH   1   2
HETATM    2  N   UNK N   1       2.825   0.312  -0.000  0.00  0.00    -0.062 N 
HETATM    3  H   UNK N   1       3.106  -0.668  -0.000  0.00  0.00     0.275 HD
HETATM    4  H   UNK N   1       3.534   1.046  -0.000  0.00  0.00     0.275 HD
HETATM    5  H   UNK N   1       3.815   0.065  -0.000  0.00  0.00     0.275 HD
ENDBRANCH   1   2
BRANCH   1   6
HETATM    6  C   UNK N   1       1.104   2.135  -0.000  0.00  0.00     0.006 C 
HETATM    7  C   UNK N   1      -0.141   2.606  -0.000  0.00  0.00     0.009 C 
ENDBRANCH   1   6
BRANCH   1   8
HETATM    8  C   UNK N   1       0.431  -0.474   0.000  0.00  0.00     0.208 C 
HETATM    9  O   UNK N   1       0.877  -1.745   0.000  0.00  0.00    -0.646 OA
HETATM   10  O   UNK N   1      -0.772  -0.258   0.000  0.00  0.00    -0.646 OA
ENDBRANCH   1   8
TORSDOF 3
