MODEL 1
REMARK VINA RESULT:      -4.6      0.000      0.000
REMARK  6 active torsions:
REMARK  status: ('A' for Active; 'I' for Inactive)
REMARK    1  A    between atoms: O_1  and  C_2 
REMARK    2  A    between atoms: C_2  and  C_4 
REMARK    3  A    between atoms: C_4  and  O_6 
REMARK    4  A    between atoms: O_6  and  P_7 
REMARK    5  A    between atoms: P_7  and  O_8 
REMARK    6  A    between atoms: P_7  and  O_9 
ROOT
HETATM    1  O   UNK N   1      34.370  16.904  10.031  0.00  0.00    -0.248 OA
ENDROOT
BRANCH   1   2
HETATM    2  C   UNK N   1      33.792  17.357   8.881  0.00  0.00     0.144 C 
HETATM    3  C   UNK N   1      32.550  16.997   8.533  0.00  0.00     0.059 C 
BRANCH   2   4
HETATM    4  C   UNK N   1      34.549  18.281   8.012  0.00  0.00     0.200 C 
HETATM    5  O   UNK N   1      34.490  18.161   6.798  0.00  0.00    -0.645 OA
BRANCH   4   6
HETATM    6  O   UNK N   1      35.323  19.245   8.547  0.00  0.00    -0.771 OA
HETATM    7  H   UNK N   1      35.878  19.767   8.001  0.00  0.00     0.167 HD
ENDBRANCH   4   6
ENDBRANCH   2   4
ENDBRANCH   1   2
BRANCH   1   8
HETATM    8  P   UNK N   1      35.394  15.514  10.171  0.00  0.00     0.396 P 
HETATM    9  O   UNK N   1      36.415  16.541  10.731  0.00  0.00    -0.631 OA
BRANCH   8  10
HETATM   10  O   UNK N   1      35.803  14.759  11.678  0.00  0.00    -0.307 OA
HETATM   11  H   UNK N   1      35.737  13.828  11.945  0.00  0.00     0.222 HD
ENDBRANCH   8  10
BRANCH   8  12
HETATM   12  O   UNK N   1      34.085  15.472  11.312  0.00  0.00    -0.307 OA
HETATM   13  H   UNK N   1      33.606  14.712  11.677  0.00  0.00     0.222 HD
ENDBRANCH   8  12
ENDBRANCH   1   8
TORSDOF 6
ENDMDL
MODEL 2
REMARK VINA RESULT:      -4.5     15.787     16.849
REMARK  6 active torsions:
REMARK  status: ('A' for Active; 'I' for Inactive)
REMARK    1  A    between atoms: O_1  and  C_2 
REMARK    2  A    between atoms: C_2  and  C_4 
REMARK    3  A    between atoms: C_4  and  O_6 
REMARK    4  A    between atoms: O_6  and  P_7 
REMARK    5  A    between atoms: P_7  and  O_8 
REMARK    6  A    between atoms: P_7  and  O_9 
ROOT
HETATM    1  O   UNK N   1      21.050  19.173   1.759  0.00  0.00    -0.248 OA
ENDROOT
BRANCH   1   2
HETATM    2  C   UNK N   1      20.464  17.981   2.073  0.00  0.00     0.144 C 
HETATM    3  C   UNK N   1      20.228  17.630   3.344  0.00  0.00     0.059 C 
BRANCH   2   4
HETATM    4  C   UNK N   1      20.063  17.069   0.983  0.00  0.00     0.200 C 
HETATM    5  O   UNK N   1      20.369  17.328  -0.171  0.00  0.00    -0.645 OA
BRANCH   4   6
HETATM    6  O   UNK N   1      19.343  15.961   1.246  0.00  0.00    -0.771 OA
HETATM    7  H   UNK N   1      19.643  15.120   0.961  0.00  0.00     0.167 HD
ENDBRANCH   4   6
ENDBRANCH   2   4
ENDBRANCH   1   2
BRANCH   1   8
HETATM    8  P   UNK N   1      20.308  20.733   1.899  0.00  0.00     0.396 P 
HETATM    9  O   UNK N   1      21.688  21.142   2.482  0.00  0.00    -0.631 OA
BRANCH   8  10
HETATM   10  O   UNK N   1      20.693  22.084   0.880  0.00  0.00    -0.307 OA
HETATM   11  H   UNK N   1      20.122  22.798   0.553  0.00  0.00     0.222 HD
ENDBRANCH   8  10
BRANCH   8  12
HETATM   12  O   UNK N   1      20.600  20.300   0.242  0.00  0.00    -0.307 OA
HETATM   13  H   UNK N   1      21.367  19.864  -0.158  0.00  0.00     0.222 HD
ENDBRANCH   8  12
ENDBRANCH   1   8
TORSDOF 6
ENDMDL
MODEL 3
REMARK VINA RESULT:      -4.3      2.240      4.178
REMARK  6 active torsions:
REMARK  status: ('A' for Active; 'I' for Inactive)
REMARK    1  A    between atoms: O_1  and  C_2 
REMARK    2  A    between atoms: C_2  and  C_4 
REMARK    3  A    between atoms: C_4  and  O_6 
REMARK    4  A    between atoms: O_6  and  P_7 
REMARK    5  A    between atoms: P_7  and  O_8 
REMARK    6  A    between atoms: P_7  and  O_9 
ROOT
HETATM    1  O   UNK N   1      35.182  16.934   8.951  0.00  0.00    -0.248 OA
ENDROOT
BRANCH   1   2
HETATM    2  C   UNK N   1      34.905  16.219  10.080  0.00  0.00     0.144 C 
HETATM    3  C   UNK N   1      35.506  16.490  11.246  0.00  0.00     0.059 C 
BRANCH   2   4
HETATM    4  C   UNK N   1      33.903  15.136  10.016  0.00  0.00     0.200 C 
HETATM    5  O   UNK N   1      33.964  14.302   9.125  0.00  0.00    -0.645 OA
BRANCH   4   6
HETATM    6  O   UNK N   1      32.906  15.070  10.921  0.00  0.00    -0.771 OA
HETATM    7  H   UNK N   1      33.063  14.725  11.778  0.00  0.00     0.167 HD
ENDBRANCH   4   6
ENDBRANCH   2   4
ENDBRANCH   1   2
BRANCH   1   8
HETATM    8  P   UNK N   1      34.016  17.717   7.937  0.00  0.00     0.396 P 
HETATM    9  O   UNK N   1      35.010  18.908   8.012  0.00  0.00    -0.631 OA
BRANCH   8  10
HETATM   10  O   UNK N   1      34.256  18.032   6.248  0.00  0.00    -0.307 OA
HETATM   11  H   UNK N   1      34.624  17.460   5.555  0.00  0.00     0.222 HD
ENDBRANCH   8  10
BRANCH   8  12
HETATM   12  O   UNK N   1      34.854  16.447   7.099  0.00  0.00    -0.307 OA
HETATM   13  H   UNK N   1      35.239  16.440   6.210  0.00  0.00     0.222 HD
ENDBRANCH   8  12
ENDBRANCH   1   8
TORSDOF 6
ENDMDL
MODEL 4
REMARK VINA RESULT:      -4.3      1.842      2.007
REMARK  6 active torsions:
REMARK  status: ('A' for Active; 'I' for Inactive)
REMARK    1  A    between atoms: O_1  and  C_2 
REMARK    2  A    between atoms: C_2  and  C_4 
REMARK    3  A    between atoms: C_4  and  O_6 
REMARK    4  A    between atoms: O_6  and  P_7 
REMARK    5  A    between atoms: P_7  and  O_8 
REMARK    6  A    between atoms: P_7  and  O_9 
ROOT
HETATM    1  O   UNK N   1      33.516  16.359   9.193  0.00  0.00    -0.248 OA
ENDROOT
BRANCH   1   2
HETATM    2  C   UNK N   1      33.227  17.503   8.507  0.00  0.00     0.144 C 
HETATM    3  C   UNK N   1      31.989  18.014   8.488  0.00  0.00     0.059 C 
BRANCH   2   4
HETATM    4  C   UNK N   1      34.310  18.202   7.787  0.00  0.00     0.200 C 
HETATM    5  O   UNK N   1      34.559  17.908   6.627  0.00  0.00    -0.645 OA
BRANCH   4   6
HETATM    6  O   UNK N   1      35.044  19.149   8.403  0.00  0.00    -0.771 OA
HETATM    7  H   UNK N   1      34.710  19.593   9.158  0.00  0.00     0.167 HD
ENDBRANCH   4   6
ENDBRANCH   2   4
ENDBRANCH   1   2
BRANCH   1   8
HETATM    8  P   UNK N   1      32.906  14.779   8.830  0.00  0.00     0.396 P 
HETATM    9  O   UNK N   1      34.368  14.510   8.380  0.00  0.00    -0.631 OA
BRANCH   8  10
HETATM   10  O   UNK N   1      33.267  13.362   9.764  0.00  0.00    -0.307 OA
HETATM   11  H   UNK N   1      32.964  12.447   9.649  0.00  0.00     0.222 HD
ENDBRANCH   8  10
BRANCH   8  12
HETATM   12  O   UNK N   1      32.979  15.068  10.541  0.00  0.00    -0.307 OA
HETATM   13  H   UNK N   1      33.021  14.435  11.275  0.00  0.00     0.222 HD
ENDBRANCH   8  12
ENDBRANCH   1   8
TORSDOF 6
ENDMDL
MODEL 5
REMARK VINA RESULT:      -4.2     13.332     14.639
REMARK  6 active torsions:
REMARK  status: ('A' for Active; 'I' for Inactive)
REMARK    1  A    between atoms: O_1  and  C_2 
REMARK    2  A    between atoms: C_2  and  C_4 
REMARK    3  A    between atoms: C_4  and  O_6 
REMARK    4  A    between atoms: O_6  and  P_7 
REMARK    5  A    between atoms: P_7  and  O_8 
REMARK    6  A    between atoms: P_7  and  O_9 
ROOT
HETATM    1  O   UNK N   1      20.786  13.100   8.976  0.00  0.00    -0.248 OA
ENDROOT
BRANCH   1   2
HETATM    2  C   UNK N   1      21.870  12.445   9.482  0.00  0.00     0.144 C 
HETATM    3  C   UNK N   1      22.808  11.920   8.683  0.00  0.00     0.059 C 
BRANCH   2   4
HETATM    4  C   UNK N   1      22.021  12.331  10.947  0.00  0.00     0.200 C 
HETATM    5  O   UNK N   1      21.047  12.085  11.642  0.00  0.00    -0.645 OA
BRANCH   4   6
HETATM    6  O   UNK N   1      23.222  12.516  11.529  0.00  0.00    -0.771 OA
HETATM    7  H   UNK N   1      23.602  11.846  12.062  0.00  0.00     0.167 HD
ENDBRANCH   4   6
ENDBRANCH   2   4
ENDBRANCH   1   2
BRANCH   1   8
HETATM    8  P   UNK N   1      20.551  14.817   8.972  0.00  0.00     0.396 P 
HETATM    9  O   UNK N   1      20.124  14.579   7.498  0.00  0.00    -0.631 OA
BRANCH   8  10
HETATM   10  O   UNK N   1      18.994  15.582   8.969  0.00  0.00    -0.307 OA
HETATM   11  H   UNK N   1      18.110  15.191   8.889  0.00  0.00     0.222 HD
ENDBRANCH   8  10
BRANCH   8  12
HETATM   12  O   UNK N   1      19.368  14.003   9.949  0.00  0.00    -0.307 OA
HETATM   13  H   UNK N   1      18.785  13.261   9.726  0.00  0.00     0.222 HD
ENDBRANCH   8  12
ENDBRANCH   1   8
TORSDOF 6
ENDMDL
MODEL 6
REMARK VINA RESULT:      -4.2     12.756     14.474
REMARK  6 active torsions:
REMARK  status: ('A' for Active; 'I' for Inactive)
REMARK    1  A    between atoms: O_1  and  C_2 
REMARK    2  A    between atoms: C_2  and  C_4 
REMARK    3  A    between atoms: C_4  and  O_6 
REMARK    4  A    between atoms: O_6  and  P_7 
REMARK    5  A    between atoms: P_7  and  O_8 
REMARK    6  A    between atoms: P_7  and  O_9 
ROOT
HETATM    1  O   UNK N   1      44.614  24.421   2.919  0.00  0.00    -0.248 OA
ENDROOT
BRANCH   1   2
HETATM    2  C   UNK N   1      43.897  23.263   2.995  0.00  0.00     0.144 C 
HETATM    3  C   UNK N   1      42.772  23.088   2.289  0.00  0.00     0.059 C 
BRANCH   2   4
HETATM    4  C   UNK N   1      44.385  22.171   3.861  0.00  0.00     0.200 C 
HETATM    5  O   UNK N   1      43.615  21.299   4.233  0.00  0.00    -0.645 OA
BRANCH   4   6
HETATM    6  O   UNK N   1      45.671  22.137   4.262  0.00  0.00    -0.771 OA
HETATM    7  H   UNK N   1      45.981  21.441   4.807  0.00  0.00     0.167 HD
ENDBRANCH   4   6
ENDBRANCH   2   4
ENDBRANCH   1   2
BRANCH   1   8
HETATM    8  P   UNK N   1      45.580  24.926   1.572  0.00  0.00     0.396 P 
HETATM    9  O   UNK N   1      45.047  26.336   1.943  0.00  0.00    -0.631 OA
BRANCH   8  10
HETATM   10  O   UNK N   1      47.073  25.797   1.723  0.00  0.00    -0.307 OA
HETATM   11  H   UNK N   1      47.567  26.051   2.519  0.00  0.00     0.222 HD
ENDBRANCH   8  10
BRANCH   8  12
HETATM   12  O   UNK N   1      46.557  24.416   2.915  0.00  0.00    -0.307 OA
HETATM   13  H   UNK N   1      46.890  23.534   3.139  0.00  0.00     0.222 HD
ENDBRANCH   8  12
ENDBRANCH   1   8
TORSDOF 6
ENDMDL
MODEL 7
REMARK VINA RESULT:      -4.1      2.418      4.111
REMARK  6 active torsions:
REMARK  status: ('A' for Active; 'I' for Inactive)
REMARK    1  A    between atoms: O_1  and  C_2 
REMARK    2  A    between atoms: C_2  and  C_4 
REMARK    3  A    between atoms: C_4  and  O_6 
REMARK    4  A    between atoms: O_6  and  P_7 
REMARK    5  A    between atoms: P_7  and  O_8 
REMARK    6  A    between atoms: P_7  and  O_9 
ROOT
HETATM    1  O   UNK N   1      33.476  16.549   7.631  0.00  0.00    -0.248 OA
ENDROOT
BRANCH   1   2
HETATM    2  C   UNK N   1      32.391  15.740   7.805  0.00  0.00     0.144 C 
HETATM    3  C   UNK N   1      31.321  15.821   7.003  0.00  0.00     0.059 C 
BRANCH   2   4
HETATM    4  C   UNK N   1      32.408  14.739   8.891  0.00  0.00     0.200 C 
HETATM    5  O   UNK N   1      32.401  13.548   8.620  0.00  0.00    -0.645 OA
BRANCH   4   6
HETATM    6  O   UNK N   1      32.409  15.127  10.181  0.00  0.00    -0.771 OA
HETATM    7  H   UNK N   1      31.815  14.741  10.795  0.00  0.00     0.167 HD
ENDBRANCH   4   6
ENDBRANCH   2   4
ENDBRANCH   1   2
BRANCH   1   8
HETATM    8  P   UNK N   1      33.650  18.157   8.251  0.00  0.00     0.396 P 
HETATM    9  O   UNK N   1      34.349  17.437   9.436  0.00  0.00    -0.631 OA
BRANCH   8  10
HETATM   10  O   UNK N   1      35.154  19.020   8.300  0.00  0.00    -0.307 OA
HETATM   11  H   UNK N   1      35.969  18.821   8.788  0.00  0.00     0.222 HD
ENDBRANCH   8  10
BRANCH   8  12
HETATM   12  O   UNK N   1      34.659  17.885   6.864  0.00  0.00    -0.307 OA
HETATM   13  H   UNK N   1      35.235  17.133   6.655  0.00  0.00     0.222 HD
ENDBRANCH   8  12
ENDBRANCH   1   8
TORSDOF 6
ENDMDL
MODEL 8
REMARK VINA RESULT:      -4.1      2.752      3.850
REMARK  6 active torsions:
REMARK  status: ('A' for Active; 'I' for Inactive)
REMARK    1  A    between atoms: O_1  and  C_2 
REMARK    2  A    between atoms: C_2  and  C_4 
REMARK    3  A    between atoms: C_4  and  O_6 
REMARK    4  A    between atoms: O_6  and  P_7 
REMARK    5  A    between atoms: P_7  and  O_8 
REMARK    6  A    between atoms: P_7  and  O_9 
ROOT
HETATM    1  O   UNK N   1      32.818  16.725   8.858  0.00  0.00    -0.248 OA
ENDROOT
BRANCH   1   2
HETATM    2  C   UNK N   1      34.096  17.187   8.985  0.00  0.00     0.144 C 
HETATM    3  C   UNK N   1      34.911  16.737   9.948  0.00  0.00     0.059 C 
BRANCH   2   4
HETATM    4  C   UNK N   1      34.597  18.189   8.023  0.00  0.00     0.200 C 
HETATM    5  O   UNK N   1      35.090  19.231   8.431  0.00  0.00    -0.645 OA
BRANCH   4   6
HETATM    6  O   UNK N   1      34.496  17.977   6.696  0.00  0.00    -0.771 OA
HETATM    7  H   UNK N   1      35.155  18.298   6.112  0.00  0.00     0.167 HD
ENDBRANCH   4   6
ENDBRANCH   2   4
ENDBRANCH   1   2
BRANCH   1   8
HETATM    8  P   UNK N   1      31.450  17.661   8.354  0.00  0.00     0.396 P 
HETATM    9  O   UNK N   1      31.649  16.904   7.012  0.00  0.00    -0.631 OA
BRANCH   8  10
HETATM   10  O   UNK N   1      29.860  17.006   8.124  0.00  0.00    -0.307 OA
HETATM   11  H   UNK N   1      29.124  16.927   8.752  0.00  0.00     0.222 HD
ENDBRANCH   8  10
BRANCH   8  12
HETATM   12  O   UNK N   1      31.014  16.453   9.523  0.00  0.00    -0.307 OA
HETATM   13  H   UNK N   1      31.476  15.638   9.774  0.00  0.00     0.222 HD
ENDBRANCH   8  12
ENDBRANCH   1   8
TORSDOF 6
ENDMDL
MODEL 9
REMARK VINA RESULT:      -4.1      2.580      3.566
REMARK  6 active torsions:
REMARK  status: ('A' for Active; 'I' for Inactive)
REMARK    1  A    between atoms: O_1  and  C_2 
REMARK    2  A    between atoms: C_2  and  C_4 
REMARK    3  A    between atoms: C_4  and  O_6 
REMARK    4  A    between atoms: O_6  and  P_7 
REMARK    5  A    between atoms: P_7  and  O_8 
REMARK    6  A    between atoms: P_7  and  O_9 
ROOT
HETATM    1  O   UNK N   1      32.961  18.266   8.124  0.00  0.00    -0.248 OA
ENDROOT
BRANCH   1   2
HETATM    2  C   UNK N   1      31.917  17.584   7.572  0.00  0.00     0.144 C 
HETATM    3  C   UNK N   1      32.059  16.881   6.440  0.00  0.00     0.059 C 
BRANCH   2   4
HETATM    4  C   UNK N   1      30.606  17.604   8.252  0.00  0.00     0.200 C 
HETATM    5  O   UNK N   1      29.581  17.708   7.594  0.00  0.00    -0.645 OA
BRANCH   4   6
HETATM    6  O   UNK N   1      30.528  17.531   9.595  0.00  0.00    -0.771 OA
HETATM    7  H   UNK N   1      31.124  16.992  10.077  0.00  0.00     0.167 HD
ENDBRANCH   4   6
ENDBRANCH   2   4
ENDBRANCH   1   2
BRANCH   1   8
HETATM    8  P   UNK N   1      34.578  17.670   8.304  0.00  0.00     0.396 P 
HETATM    9  O   UNK N   1      34.935  19.177   8.412  0.00  0.00    -0.631 OA
BRANCH   8  10
HETATM   10  O   UNK N   1      35.454  17.679   9.801  0.00  0.00    -0.307 OA
HETATM   11  H   UNK N   1      36.148  17.079  10.119  0.00  0.00     0.222 HD
ENDBRANCH   8  10
BRANCH   8  12
HETATM   12  O   UNK N   1      33.597  17.311   9.691  0.00  0.00    -0.307 OA
HETATM   13  H   UNK N   1      33.699  16.615  10.359  0.00  0.00     0.222 HD
ENDBRANCH   8  12
ENDBRANCH   1   8
TORSDOF 6
ENDMDL
