MODEL 1
REMARK VINA RESULT:      -4.3      0.000      0.000
REMARK  2 active torsions:
REMARK  status: ('A' for Active; 'I' for Inactive)
REMARK    1  A    between atoms: N_1  and  C_2 
REMARK    2  A    between atoms: C_7  and  O_8 
ROOT
HETATM    1  C   UNK N   1      22.779  12.072  11.585  0.00  0.00     0.059 A 
HETATM    2  C   UNK N   1      21.564  12.227  10.911  0.00  0.00     0.032 A 
HETATM    3  C   UNK N   1      21.550  12.686   9.589  0.00  0.00     0.002 A 
HETATM    4  C   UNK N   1      22.751  12.991   8.940  0.00  0.00     0.003 A 
HETATM    5  C   UNK N   1      23.966  12.837   9.613  0.00  0.00     0.039 A 
HETATM    6  C   UNK N   1      23.983  12.378  10.934  0.00  0.00     0.091 A 
ENDROOT
BRANCH   1   7
HETATM    7  N   UNK N   1      22.790  11.609  12.918  0.00  0.00    -0.397 N 
HETATM    8  H   UNK N   1      22.801  12.252  13.663  0.00  0.00     0.156 HD
HETATM    9  H   UNK N   1      22.787  10.642  13.104  0.00  0.00     0.156 HD
ENDBRANCH   1   7
BRANCH   6  10
HETATM   10  O   UNK N   1      25.156  12.233  11.572  0.00  0.00    -0.358 OA
HETATM   11  H   UNK N   1      25.415  11.390  11.890  0.00  0.00     0.217 HD
ENDBRANCH   6  10
TORSDOF 2
ENDMDL
MODEL 2
REMARK VINA RESULT:      -4.2      1.712      2.415
REMARK  2 active torsions:
REMARK  status: ('A' for Active; 'I' for Inactive)
REMARK    1  A    between atoms: N_1  and  C_2 
REMARK    2  A    between atoms: C_7  and  O_8 
ROOT
HETATM    1  C   UNK N   1      23.855  12.991   9.872  0.00  0.00     0.059 A 
HETATM    2  C   UNK N   1      22.583  13.333   9.403  0.00  0.00     0.032 A 
HETATM    3  C   UNK N   1      21.445  12.947  10.121  0.00  0.00     0.002 A 
HETATM    4  C   UNK N   1      21.578  12.219  11.307  0.00  0.00     0.003 A 
HETATM    5  C   UNK N   1      22.849  11.876  11.776  0.00  0.00     0.039 A 
HETATM    6  C   UNK N   1      23.987  12.260  11.061  0.00  0.00     0.091 A 
ENDROOT
BRANCH   1   7
HETATM    7  N   UNK N   1      25.001  13.381   9.146  0.00  0.00    -0.397 N 
HETATM    8  H   UNK N   1      25.263  14.329   9.112  0.00  0.00     0.156 HD
HETATM    9  H   UNK N   1      25.539  12.705   8.673  0.00  0.00     0.156 HD
ENDBRANCH   1   7
BRANCH   6  10
HETATM   10  O   UNK N   1      25.204  11.926  11.521  0.00  0.00    -0.358 OA
HETATM   11  H   UNK N   1      25.773  12.587  11.864  0.00  0.00     0.217 HD
ENDBRANCH   6  10
TORSDOF 2
ENDMDL
MODEL 3
REMARK VINA RESULT:      -4.2     11.590     12.344
REMARK  2 active torsions:
REMARK  status: ('A' for Active; 'I' for Inactive)
REMARK    1  A    between atoms: N_1  and  C_2 
REMARK    2  A    between atoms: C_7  and  O_8 
ROOT
HETATM    1  C   UNK N   1      34.382  17.079   9.290  0.00  0.00     0.059 A 
HETATM    2  C   UNK N   1      33.579  15.958   9.060  0.00  0.00     0.032 A 
HETATM    3  C   UNK N   1      32.894  15.823   7.847  0.00  0.00     0.002 A 
HETATM    4  C   UNK N   1      33.012  16.809   6.863  0.00  0.00     0.003 A 
HETATM    5  C   UNK N   1      33.814  17.930   7.091  0.00  0.00     0.039 A 
HETATM    6  C   UNK N   1      34.499  18.067   8.303  0.00  0.00     0.091 A 
ENDROOT
BRANCH   1   7
HETATM    7  N   UNK N   1      35.071  17.212  10.514  0.00  0.00    -0.397 N 
HETATM    8  H   UNK N   1      35.925  17.700  10.548  0.00  0.00     0.156 HD
HETATM    9  H   UNK N   1      34.697  16.817  11.336  0.00  0.00     0.156 HD
ENDBRANCH   1   7
BRANCH   6  10
HETATM   10  O   UNK N   1      35.267  19.149   8.513  0.00  0.00    -0.358 OA
HETATM   11  H   UNK N   1      35.675  19.279   9.346  0.00  0.00     0.217 HD
ENDBRANCH   6  10
TORSDOF 2
ENDMDL
MODEL 4
REMARK VINA RESULT:      -4.2     23.261     24.056
REMARK  2 active torsions:
REMARK  status: ('A' for Active; 'I' for Inactive)
REMARK    1  A    between atoms: N_1  and  C_2 
REMARK    2  A    between atoms: C_7  and  O_8 
ROOT
HETATM    1  C   UNK N   1      43.644  22.326   3.677  0.00  0.00     0.059 A 
HETATM    2  C   UNK N   1      42.560  21.575   3.212  0.00  0.00     0.032 A 
HETATM    3  C   UNK N   1      42.733  20.225   2.885  0.00  0.00     0.002 A 
HETATM    4  C   UNK N   1      43.989  19.627   3.021  0.00  0.00     0.003 A 
HETATM    5  C   UNK N   1      45.073  20.376   3.486  0.00  0.00     0.039 A 
HETATM    6  C   UNK N   1      44.903  21.725   3.814  0.00  0.00     0.091 A 
ENDROOT
BRANCH   1   7
HETATM    7  N   UNK N   1      43.466  23.687   4.007  0.00  0.00    -0.397 N 
HETATM    8  H   UNK N   1      43.377  24.359   3.294  0.00  0.00     0.156 HD
HETATM    9  H   UNK N   1      43.431  23.965   4.951  0.00  0.00     0.156 HD
ENDBRANCH   1   7
BRANCH   6  10
HETATM   10  O   UNK N   1      45.951  22.437   4.259  0.00  0.00    -0.358 OA
HETATM   11  H   UNK N   1      45.840  23.040   4.969  0.00  0.00     0.217 HD
ENDBRANCH   6  10
TORSDOF 2
ENDMDL
MODEL 5
REMARK VINA RESULT:      -4.1     14.078     14.584
REMARK  2 active torsions:
REMARK  status: ('A' for Active; 'I' for Inactive)
REMARK    1  A    between atoms: N_1  and  C_2 
REMARK    2  A    between atoms: C_7  and  O_8 
ROOT
HETATM    1  C   UNK N   1      35.280  13.709  18.254  0.00  0.00     0.059 A 
HETATM    2  C   UNK N   1      35.335  13.351  16.904  0.00  0.00     0.032 A 
HETATM    3  C   UNK N   1      35.375  12.001  16.538  0.00  0.00     0.002 A 
HETATM    4  C   UNK N   1      35.362  11.008  17.523  0.00  0.00     0.003 A 
HETATM    5  C   UNK N   1      35.308  11.364  18.873  0.00  0.00     0.039 A 
HETATM    6  C   UNK N   1      35.267  12.713  19.241  0.00  0.00     0.091 A 
ENDROOT
BRANCH   1   7
HETATM    7  N   UNK N   1      35.240  15.072  18.619  0.00  0.00    -0.397 N 
HETATM    8  H   UNK N   1      35.437  15.767  17.951  0.00  0.00     0.156 HD
HETATM    9  H   UNK N   1      35.014  15.328  19.543  0.00  0.00     0.156 HD
ENDBRANCH   1   7
BRANCH   6  10
HETATM   10  O   UNK N   1      35.215  13.046  20.541  0.00  0.00    -0.358 OA
HETATM   11  H   UNK N   1      34.445  12.860  21.041  0.00  0.00     0.217 HD
ENDBRANCH   6  10
TORSDOF 2
ENDMDL
MODEL 6
REMARK VINA RESULT:      -4.1     10.686     11.595
REMARK  2 active torsions:
REMARK  status: ('A' for Active; 'I' for Inactive)
REMARK    1  A    between atoms: N_1  and  C_2 
REMARK    2  A    between atoms: C_7  and  O_8 
ROOT
HETATM    1  C   UNK N   1      20.774  19.978   1.568  0.00  0.00     0.059 A 
HETATM    2  C   UNK N   1      20.314  18.659   1.494  0.00  0.00     0.032 A 
HETATM    3  C   UNK N   1      20.648  17.743   2.498  0.00  0.00     0.002 A 
HETATM    4  C   UNK N   1      21.441  18.145   3.577  0.00  0.00     0.003 A 
HETATM    5  C   UNK N   1      21.902  19.462   3.653  0.00  0.00     0.039 A 
HETATM    6  C   UNK N   1      21.570  20.379   2.651  0.00  0.00     0.091 A 
ENDROOT
BRANCH   1   7
HETATM    7  N   UNK N   1      20.436  20.899   0.554  0.00  0.00    -0.397 N 
HETATM    8  H   UNK N   1      21.110  21.534   0.221  0.00  0.00     0.156 HD
HETATM    9  H   UNK N   1      19.525  20.907   0.179  0.00  0.00     0.156 HD
ENDBRANCH   1   7
BRANCH   6  10
HETATM   10  O   UNK N   1      22.017  21.643   2.732  0.00  0.00    -0.358 OA
HETATM   11  H   UNK N   1      21.648  22.307   2.184  0.00  0.00     0.217 HD
ENDBRANCH   6  10
TORSDOF 2
ENDMDL
MODEL 7
REMARK VINA RESULT:      -4.0     19.837     20.710
REMARK  2 active torsions:
REMARK  status: ('A' for Active; 'I' for Inactive)
REMARK    1  A    between atoms: N_1  and  C_2 
REMARK    2  A    between atoms: C_7  and  O_8 
ROOT
HETATM    1  C   UNK N   1      25.589  25.264  -5.111  0.00  0.00     0.059 A 
HETATM    2  C   UNK N   1      25.084  26.396  -5.757  0.00  0.00     0.032 A 
HETATM    3  C   UNK N   1      25.203  27.656  -5.160  0.00  0.00     0.002 A 
HETATM    4  C   UNK N   1      25.827  27.785  -3.915  0.00  0.00     0.003 A 
HETATM    5  C   UNK N   1      26.332  26.655  -3.268  0.00  0.00     0.039 A 
HETATM    6  C   UNK N   1      26.214  25.394  -3.863  0.00  0.00     0.091 A 
ENDROOT
BRANCH   1   7
HETATM    7  N   UNK N   1      25.467  23.995  -5.716  0.00  0.00    -0.397 N 
HETATM    8  H   UNK N   1      24.873  23.317  -5.322  0.00  0.00     0.156 HD
HETATM    9  H   UNK N   1      25.976  23.788  -6.533  0.00  0.00     0.156 HD
ENDBRANCH   1   7
BRANCH   6  10
HETATM   10  O   UNK N   1      26.703  24.314  -3.233  0.00  0.00    -0.358 OA
HETATM   11  H   UNK N   1      27.240  23.703  -3.698  0.00  0.00     0.217 HD
ENDBRANCH   6  10
TORSDOF 2
ENDMDL
MODEL 8
REMARK VINA RESULT:      -4.0     10.738     11.651
REMARK  2 active torsions:
REMARK  status: ('A' for Active; 'I' for Inactive)
REMARK    1  A    between atoms: N_1  and  C_2 
REMARK    2  A    between atoms: C_7  and  O_8 
ROOT
HETATM    1  C   UNK N   1      20.349  18.300   1.385  0.00  0.00     0.059 A 
HETATM    2  C   UNK N   1      20.341  17.672   2.634  0.00  0.00     0.032 A 
HETATM    3  C   UNK N   1      20.677  18.396   3.784  0.00  0.00     0.002 A 
HETATM    4  C   UNK N   1      21.020  19.748   3.685  0.00  0.00     0.003 A 
HETATM    5  C   UNK N   1      21.028  20.377   2.438  0.00  0.00     0.039 A 
HETATM    6  C   UNK N   1      20.693  19.656   1.287  0.00  0.00     0.091 A 
ENDROOT
BRANCH   1   7
HETATM    7  N   UNK N   1      20.010  17.568   0.227  0.00  0.00    -0.397 N 
HETATM    8  H   UNK N   1      20.711  17.110  -0.289  0.00  0.00     0.156 HD
HETATM    9  H   UNK N   1      19.071  17.514  -0.065  0.00  0.00     0.156 HD
ENDBRANCH   1   7
BRANCH   6  10
HETATM   10  O   UNK N   1      20.703  20.269   0.092  0.00  0.00    -0.358 OA
HETATM   11  H   UNK N   1      19.956  20.759  -0.189  0.00  0.00     0.217 HD
ENDBRANCH   6  10
TORSDOF 2
ENDMDL
MODEL 9
REMARK VINA RESULT:      -4.0     23.171     23.993
REMARK  2 active torsions:
REMARK  status: ('A' for Active; 'I' for Inactive)
REMARK    1  A    between atoms: N_1  and  C_2 
REMARK    2  A    between atoms: C_7  and  O_8 
ROOT
HETATM    1  C   UNK N   1      44.702  21.727   3.734  0.00  0.00     0.059 A 
HETATM    2  C   UNK N   1      44.765  20.373   3.394  0.00  0.00     0.032 A 
HETATM    3  C   UNK N   1      43.632  19.722   2.892  0.00  0.00     0.002 A 
HETATM    4  C   UNK N   1      42.434  20.426   2.731  0.00  0.00     0.003 A 
HETATM    5  C   UNK N   1      42.369  21.779   3.071  0.00  0.00     0.039 A 
HETATM    6  C   UNK N   1      43.500  22.432   3.572  0.00  0.00     0.091 A 
ENDROOT
BRANCH   1   7
HETATM    7  N   UNK N   1      45.846  22.380   4.240  0.00  0.00    -0.397 N 
HETATM    8  H   UNK N   1      46.221  22.113   5.109  0.00  0.00     0.156 HD
HETATM    9  H   UNK N   1      46.270  23.104   3.723  0.00  0.00     0.156 HD
ENDBRANCH   1   7
BRANCH   6  10
HETATM   10  O   UNK N   1      43.427  23.733   3.896  0.00  0.00    -0.358 OA
HETATM   11  H   UNK N   1      43.909  24.367   3.402  0.00  0.00     0.217 HD
ENDBRANCH   6  10
TORSDOF 2
ENDMDL
