REMARK  17 active torsions:
REMARK  status: ('A' for Active; 'I' for Inactive)
REMARK    1  A    between atoms: C_23  and  C_17 
REMARK    2  A    between atoms: C_29  and  C_17 
REMARK    3  A    between atoms: C_24  and  C_19 
REMARK    4  A    between atoms: C_36  and  C_19 
REMARK    5  A    between atoms: C_30  and  C_20 
REMARK    6  A    between atoms: C_36  and  C_20 
REMARK    7  A    between atoms: C_26  and  O_46 
REMARK    8  A    between atoms: C_28  and  C_32 
REMARK    9  A    between atoms: C_30  and  C_29 
REMARK   10  A    between atoms: C_29  and  N_39 
REMARK   11  A    between atoms: C_30  and  O_41 
REMARK   12  A    between atoms: C_31  and  O_47 
REMARK   13  A    between atoms: C_34  and  N_37 
REMARK   14  A    between atoms: O_43  and  C_34 
REMARK   15  A    between atoms: O_47  and  C_34 
REMARK   16  A    between atoms: C_35  and  O_44 
REMARK   17  A    between atoms: O_46  and  C_35 
ROOT
HETATM    1  C   UNK N   1       1.349   2.707   1.367  0.00  0.00     0.128 C 
HETATM    2  C   UNK N   1       1.359   2.213  -0.077  0.00  0.00     0.086 C 
HETATM    3  C   UNK N   1       2.198   3.269  -0.631  0.00  0.00     0.161 C 
HETATM    4  C   UNK N   1       1.841   4.573  -0.037  0.00  0.00     0.093 C 
HETATM    5  N   UNK N   1       1.398   4.197   1.321  0.00  0.00    -0.405 N 
HETATM    6  O   UNK N   1       3.229   3.062  -1.255  0.00  0.00    -0.295 OA
HETATM    7  H   UNK N   1       1.170   4.835   2.083  0.00  0.00     0.154 HD
ENDROOT
BRANCH   4   8
HETATM    8  C   UNK N   1       3.113   5.452  -0.007  0.00  0.00     0.077 C 
BRANCH   8   9
HETATM    9  C   UNK N   1       3.031   6.951  -0.016  0.00  0.00    -0.055 A 
HETATM   10  C   UNK N   1       2.395   7.621  -1.069  0.00  0.00     0.007 A 
HETATM   11  C   UNK N   1       2.471   9.013  -1.171  0.00  0.00     0.001 A 
HETATM   12  C   UNK N   1       3.213   9.742  -0.238  0.00  0.00     0.000 A 
HETATM   13  C   UNK N   1       3.864   9.080   0.806  0.00  0.00     0.001 A 
HETATM   14  C   UNK N   1       3.779   7.686   0.914  0.00  0.00     0.007 A 
ENDBRANCH   8   9
ENDBRANCH   4   8
BRANCH   4  15
HETATM   15  C   UNK N   1       0.702   5.122  -0.943  0.00  0.00     0.073 C 
BRANCH  15  16
HETATM   16  C   UNK N   1      -0.755   5.169  -0.424  0.00  0.00     0.144 C 
BRANCH  16  17
HETATM   17  C   UNK N   1      -1.030   6.498   0.300  0.00  0.00     0.118 C 
BRANCH  17  18
HETATM   18  C   UNK N   1      -1.108   7.608  -0.762  0.00  0.00     0.066 C 
BRANCH  18  19
HETATM   19  C   UNK N   1      -1.596   8.931  -0.280  0.00  0.00    -0.056 A 
HETATM   20  C   UNK N   1      -2.972   9.184  -0.244  0.00  0.00     0.007 A 
HETATM   21  C   UNK N   1      -3.444  10.444   0.128  0.00  0.00     0.001 A 
HETATM   22  C   UNK N   1      -2.540  11.460   0.452  0.00  0.00     0.000 A 
HETATM   23  C   UNK N   1      -1.164  11.213   0.404  0.00  0.00     0.001 A 
HETATM   24  C   UNK N   1      -0.691   9.951   0.030  0.00  0.00     0.007 A 
ENDBRANCH  18  19
ENDBRANCH  17  18
BRANCH  17  25
HETATM   25  N   UNK N   1      -2.212   6.449   1.158  0.00  0.00    -0.343 N 
HETATM   26  C   UNK N   1      -3.400   6.067   0.842  0.00  0.00     0.258 C 
ATOM     27  HN  UNK N   1      -2.080   6.754   2.122  1.00  0.00     0.164 HD
BRANCH  26  28
HETATM   28  O   UNK N   1      -4.359   6.118   1.791  0.00  0.00    -0.327 OA
HETATM   29  H   UNK N   1      -4.660   6.712   2.450  0.00  0.00     0.221 HD
ENDBRANCH  26  28
BRANCH  26  30
HETATM   30  O   UNK N   1      -3.682   5.600  -0.409  0.00  0.00    -0.309 OA
BRANCH  30  31
HETATM   31  C   UNK N   1      -4.883   5.103  -0.914  0.00  0.00     0.158 C 
HETATM   32  C   UNK N   1      -6.007   4.938   0.077  0.00  0.00     0.061 C 
HETATM   33  C   UNK N   1      -5.908   3.480   0.493  0.00  0.00     0.170 C 
HETATM   34  O   UNK N   1      -4.853   2.879  -0.215  0.00  0.00    -0.389 OA
HETATM   35  C   UNK N   1      -4.689   3.678  -1.355  0.00  0.00     0.200 C 
ENDBRANCH  30  31
ENDBRANCH  26  30
ENDBRANCH  17  25
ENDBRANCH  16  17
BRANCH  16  36
HETATM   36  O   UNK N   1      -1.066   4.081   0.392  0.00  0.00    -0.393 OA
HETATM   37  H   UNK N   1      -1.830   3.891   0.959  0.00  0.00     0.210 HD
ENDBRANCH  16  36
ENDBRANCH  15  16
ENDBRANCH   4  15
BRANCH   2  38
HETATM   38  C   UNK N   1       1.721   0.752  -0.425  0.00  0.00     0.061 C 
HETATM   39  C   UNK N   1       3.019   0.134  -0.048  0.00  0.00    -0.044 A 
HETATM   40  C   UNK N   1       4.300   0.680  -0.176  0.00  0.00     0.008 A 
HETATM   41  C   UNK N   1       2.855  -1.203   0.226  0.00  0.00    -0.049 A 
HETATM   42  C   UNK N   1       5.415  -0.141   0.046  0.00  0.00     0.001 A 
HETATM   43  C   UNK N   1       5.239  -1.504   0.343  0.00  0.00     0.001 A 
HETATM   44  C   UNK N   1       3.948  -2.046   0.420  0.00  0.00     0.007 A 
HETATM   45  C   UNK N   1       1.433  -1.624   0.170  0.00  0.00     0.071 C 
HETATM   46  C   UNK N   1       0.718  -0.263   0.174  0.00  0.00     0.140 C 
BRANCH  46  47
HETATM   47  O   UNK N   1      -0.471  -0.293  -0.597  0.00  0.00    -0.338 OA
BRANCH  47  48
HETATM   48  C   UNK N   1      -1.652  -0.234   0.180  0.00  0.00     0.361 C 
BRANCH  48  49
HETATM   49  N   UNK N   1      -2.431  -1.433  -0.066  0.00  0.00    -0.385 N 
HETATM   50  H   UNK N   1      -3.435  -1.380  -0.239  0.00  0.00     0.154 HD
HETATM   51  H   UNK N   1      -1.969  -2.342  -0.066  0.00  0.00     0.154 HD
ENDBRANCH  48  49
BRANCH  48  52
HETATM   52  O   UNK N   1      -2.393   0.878  -0.218  0.00  0.00    -0.355 OA
HETATM   53  H   UNK N   1      -1.981   1.711  -0.495  0.00  0.00     0.214 HD
ENDBRANCH  48  52
ENDBRANCH  47  48
ENDBRANCH  46  47
ENDBRANCH   2  38
TORSDOF 17
