MODEL 1
REMARK VINA RESULT:      -4.9      0.000      0.000
REMARK  5 active torsions:
REMARK  status: ('A' for Active; 'I' for Inactive)
REMARK    1  A    between atoms: O_1  and  N_2 
REMARK       I    between atoms: N_2  and  C_3 
REMARK    2  A    between atoms: C_3  and  C_5 
REMARK    3  A    between atoms: C_5  and  C_6 
REMARK    4  A    between atoms: C_6  and  C_7 
REMARK    5  A    between atoms: C_7  and  P_8 
ROOT
HETATM    1  C   UNK N   1      21.125  18.988   3.106  0.00  0.00     0.105 C 
ENDROOT
BRANCH   1   2
HETATM    2  C   UNK N   1      21.170  20.128   2.137  0.00  0.00     0.240 C 
HETATM    3  N   UNK N   1      20.687  19.973   0.887  0.00  0.00    -0.237 N 
HETATM    4  H   UNK N   1      20.320  19.101   0.614  0.00  0.00     0.197 HD
HETATM    5  O   UNK N   1      21.636  21.219   2.475  0.00  0.00    -0.271 OA
BRANCH   3   6
HETATM    6  O   UNK N   1      20.698  20.982   0.010  0.00  0.00    -0.287 OA
HETATM    7  H   UNK N   1      19.906  21.177  -0.516  0.00  0.00     0.244 HD
ENDBRANCH   3   6
ENDBRANCH   1   2
BRANCH   1   8
HETATM    8  C   UNK N   1      19.852  18.171   2.949  0.00  0.00     0.023 C 
BRANCH   8   9
HETATM    9  C   UNK N   1      20.166  16.706   2.763  0.00  0.00     0.146 C 
BRANCH   9  10
HETATM   10  P   UNK N   1      20.041  16.264   0.959  0.00  0.00     0.259 P 
HETATM   11  O   UNK N   1      20.374  17.273  -0.416  0.00  0.00    -0.640 OA
HETATM   12  O   UNK N   1      21.524  15.397   0.914  0.00  0.00    -0.640 OA
HETATM   13  O   UNK N   1      19.130  15.076   0.541  0.00  0.00    -0.640 OA
ENDBRANCH   9  10
ENDBRANCH   8   9
ENDBRANCH   1   8
TORSDOF 5
ENDMDL
MODEL 2
REMARK VINA RESULT:      -4.8     10.804     11.845
REMARK  5 active torsions:
REMARK  status: ('A' for Active; 'I' for Inactive)
REMARK    1  A    between atoms: O_1  and  N_2 
REMARK       I    between atoms: N_2  and  C_3 
REMARK    2  A    between atoms: C_3  and  C_5 
REMARK    3  A    between atoms: C_5  and  C_6 
REMARK    4  A    between atoms: C_6  and  C_7 
REMARK    5  A    between atoms: C_7  and  P_8 
ROOT
HETATM    1  C   UNK N   1      29.946  22.548  -3.832  0.00  0.00     0.105 C 
ENDROOT
BRANCH   1   2
HETATM    2  C   UNK N   1      30.914  22.278  -2.723  0.00  0.00     0.240 C 
HETATM    3  N   UNK N   1      31.900  21.373  -2.890  0.00  0.00    -0.237 N 
HETATM    4  H   UNK N   1      31.966  20.881  -3.741  0.00  0.00     0.197 HD
HETATM    5  O   UNK N   1      30.827  22.888  -1.654  0.00  0.00    -0.271 OA
BRANCH   3   6
HETATM    6  O   UNK N   1      32.788  21.130  -1.921  0.00  0.00    -0.287 OA
HETATM    7  H   UNK N   1      32.854  21.729  -1.160  0.00  0.00     0.244 HD
ENDBRANCH   3   6
ENDBRANCH   1   2
BRANCH   1   8
HETATM    8  C   UNK N   1      28.930  23.610  -3.441  0.00  0.00     0.023 C 
BRANCH   8   9
HETATM    9  C   UNK N   1      28.409  24.337  -4.656  0.00  0.00     0.146 C 
BRANCH   9  10
HETATM   10  P   UNK N   1      26.666  24.912  -4.342  0.00  0.00     0.259 P 
HETATM   11  O   UNK N   1      25.220  24.459  -5.192  0.00  0.00    -0.640 OA
HETATM   12  O   UNK N   1      26.412  23.885  -2.988  0.00  0.00    -0.640 OA
HETATM   13  O   UNK N   1      26.444  26.253  -3.589  0.00  0.00    -0.640 OA
ENDBRANCH   9  10
ENDBRANCH   8   9
ENDBRANCH   1   8
TORSDOF 5
ENDMDL
MODEL 3
REMARK VINA RESULT:      -4.8     12.889     13.884
REMARK  5 active torsions:
REMARK  status: ('A' for Active; 'I' for Inactive)
REMARK    1  A    between atoms: O_1  and  N_2 
REMARK       I    between atoms: N_2  and  C_3 
REMARK    2  A    between atoms: C_3  and  C_5 
REMARK    3  A    between atoms: C_5  and  C_6 
REMARK    4  A    between atoms: C_6  and  C_7 
REMARK    5  A    between atoms: C_7  and  P_8 
ROOT
HETATM    1  C   UNK N   1      32.936  17.929   7.738  0.00  0.00     0.105 C 
ENDROOT
BRANCH   1   2
HETATM    2  C   UNK N   1      34.182  18.126   8.544  0.00  0.00     0.240 C 
HETATM    3  N   UNK N   1      34.448  17.314   9.587  0.00  0.00    -0.237 N 
HETATM    4  H   UNK N   1      33.810  16.602   9.822  0.00  0.00     0.197 HD
HETATM    5  O   UNK N   1      34.979  19.022   8.255  0.00  0.00    -0.271 OA
BRANCH   3   6
HETATM    6  O   UNK N   1      35.563  17.459  10.310  0.00  0.00    -0.287 OA
HETATM    7  H   UNK N   1      35.522  17.861  11.192  0.00  0.00     0.244 HD
ENDBRANCH   3   6
ENDBRANCH   1   2
BRANCH   1   8
HETATM    8  C   UNK N   1      31.718  17.743   8.629  0.00  0.00     0.023 C 
BRANCH   8   9
HETATM    9  C   UNK N   1      30.529  17.264   7.831  0.00  0.00     0.146 C 
BRANCH   9  10
HETATM   10  P   UNK N   1      28.965  17.963   8.559  0.00  0.00     0.259 P 
HETATM   11  O   UNK N   1      27.814  17.167   9.588  0.00  0.00    -0.640 OA
HETATM   12  O   UNK N   1      29.758  18.835   9.809  0.00  0.00    -0.640 OA
HETATM   13  O   UNK N   1      28.307  19.195   7.876  0.00  0.00    -0.640 OA
ENDBRANCH   9  10
ENDBRANCH   8   9
ENDBRANCH   1   8
TORSDOF 5
ENDMDL
MODEL 4
REMARK VINA RESULT:      -4.7      9.443     10.639
REMARK  5 active torsions:
REMARK  status: ('A' for Active; 'I' for Inactive)
REMARK    1  A    between atoms: O_1  and  N_2 
REMARK       I    between atoms: N_2  and  C_3 
REMARK    2  A    between atoms: C_3  and  C_5 
REMARK    3  A    between atoms: C_5  and  C_6 
REMARK    4  A    between atoms: C_6  and  C_7 
REMARK    5  A    between atoms: C_7  and  P_8 
ROOT
HETATM    1  C   UNK N   1      21.345  12.269  11.218  0.00  0.00     0.105 C 
ENDROOT
BRANCH   1   2
HETATM    2  C   UNK N   1      22.790  11.948  10.999  0.00  0.00     0.240 C 
HETATM    3  N   UNK N   1      23.727  12.433  11.840  0.00  0.00    -0.237 N 
HETATM    4  H   UNK N   1      23.453  13.011  12.588  0.00  0.00     0.197 HD
HETATM    5  O   UNK N   1      23.136  11.231  10.057  0.00  0.00    -0.271 OA
BRANCH   3   6
HETATM    6  O   UNK N   1      25.021  12.144  11.675  0.00  0.00    -0.287 OA
HETATM    7  H   UNK N   1      25.513  11.695  12.382  0.00  0.00     0.244 HD
ENDBRANCH   3   6
ENDBRANCH   1   2
BRANCH   1   8
HETATM    8  C   UNK N   1      20.741  12.975  10.014  0.00  0.00     0.023 C 
BRANCH   8   9
HETATM    9  C   UNK N   1      21.509  14.230   9.677  0.00  0.00     0.146 C 
BRANCH   9  10
HETATM   10  P   UNK N   1      20.468  15.327   8.592  0.00  0.00     0.259 P 
HETATM   11  O   UNK N   1      19.760  14.948   7.051  0.00  0.00    -0.640 OA
HETATM   12  O   UNK N   1      19.029  15.125   9.510  0.00  0.00    -0.640 OA
HETATM   13  O   UNK N   1      20.571  16.869   8.767  0.00  0.00    -0.640 OA
ENDBRANCH   9  10
ENDBRANCH   8   9
ENDBRANCH   1   8
TORSDOF 5
ENDMDL
MODEL 5
REMARK VINA RESULT:      -4.6      2.310      4.626
REMARK  5 active torsions:
REMARK  status: ('A' for Active; 'I' for Inactive)
REMARK    1  A    between atoms: O_1  and  N_2 
REMARK       I    between atoms: N_2  and  C_3 
REMARK    2  A    between atoms: C_3  and  C_5 
REMARK    3  A    between atoms: C_5  and  C_6 
REMARK    4  A    between atoms: C_6  and  C_7 
REMARK    5  A    between atoms: C_7  and  P_8 
ROOT
HETATM    1  C   UNK N   1      20.757  16.676   2.105  0.00  0.00     0.105 C 
ENDROOT
BRANCH   1   2
HETATM    2  C   UNK N   1      19.998  16.695   0.816  0.00  0.00     0.240 C 
HETATM    3  N   UNK N   1      18.897  15.931   0.667  0.00  0.00    -0.237 N 
HETATM    4  H   UNK N   1      18.606  15.351   1.408  0.00  0.00     0.197 HD
HETATM    5  O   UNK N   1      20.365  17.415  -0.116  0.00  0.00    -0.271 OA
BRANCH   3   6
HETATM    6  O   UNK N   1      18.191  15.946  -0.468  0.00  0.00    -0.287 OA
HETATM    7  H   UNK N   1      17.773  16.769  -0.770  0.00  0.00     0.244 HD
ENDBRANCH   3   6
ENDBRANCH   1   2
BRANCH   1   8
HETATM    8  C   UNK N   1      20.446  17.898   2.955  0.00  0.00     0.023 C 
BRANCH   8   9
HETATM    9  C   UNK N   1      21.708  18.638   3.326  0.00  0.00     0.146 C 
BRANCH   9  10
HETATM   10  P   UNK N   1      21.719  20.307   2.502  0.00  0.00     0.259 P 
HETATM   11  O   UNK N   1      21.034  20.748   0.967  0.00  0.00    -0.640 OA
HETATM   12  O   UNK N   1      20.452  20.957   3.463  0.00  0.00    -0.640 OA
HETATM   13  O   UNK N   1      22.803  21.341   2.919  0.00  0.00    -0.640 OA
ENDBRANCH   9  10
ENDBRANCH   8   9
ENDBRANCH   1   8
TORSDOF 5
ENDMDL
MODEL 6
REMARK VINA RESULT:      -4.5      9.450     10.530
REMARK  5 active torsions:
REMARK  status: ('A' for Active; 'I' for Inactive)
REMARK    1  A    between atoms: O_1  and  N_2 
REMARK       I    between atoms: N_2  and  C_3 
REMARK    2  A    between atoms: C_3  and  C_5 
REMARK    3  A    between atoms: C_5  and  C_6 
REMARK    4  A    between atoms: C_6  and  C_7 
REMARK    5  A    between atoms: C_7  and  P_8 
ROOT
HETATM    1  C   UNK N   1      21.638  12.142  10.916  0.00  0.00     0.105 C 
ENDROOT
BRANCH   1   2
HETATM    2  C   UNK N   1      22.910  12.088  11.702  0.00  0.00     0.240 C 
HETATM    3  N   UNK N   1      24.082  12.405  11.115  0.00  0.00    -0.237 N 
HETATM    4  H   UNK N   1      24.094  12.657  10.163  0.00  0.00     0.197 HD
HETATM    5  O   UNK N   1      22.897  11.765  12.892  0.00  0.00    -0.271 OA
BRANCH   3   6
HETATM    6  O   UNK N   1      25.229  12.382  11.801  0.00  0.00    -0.287 OA
HETATM    7  H   UNK N   1      25.286  11.890  12.636  0.00  0.00     0.244 HD
ENDBRANCH   3   6
ENDBRANCH   1   2
BRANCH   1   8
HETATM    8  C   UNK N   1      21.734  13.130   9.763  0.00  0.00     0.023 C 
BRANCH   8   9
HETATM    9  C   UNK N   1      20.553  14.069   9.752  0.00  0.00     0.146 C 
BRANCH   9  10
HETATM   10  P   UNK N   1      20.552  15.054   8.172  0.00  0.00     0.259 P 
HETATM   11  O   UNK N   1      21.920  15.654   7.284  0.00  0.00    -0.640 OA
HETATM   12  O   UNK N   1      20.250  13.703   7.154  0.00  0.00    -0.640 OA
HETATM   13  O   UNK N   1      19.275  15.852   7.788  0.00  0.00    -0.640 OA
ENDBRANCH   9  10
ENDBRANCH   8   9
ENDBRANCH   1   8
TORSDOF 5
ENDMDL
MODEL 7
REMARK VINA RESULT:      -4.5     16.211     17.013
REMARK  5 active torsions:
REMARK  status: ('A' for Active; 'I' for Inactive)
REMARK    1  A    between atoms: O_1  and  N_2 
REMARK       I    between atoms: N_2  and  C_3 
REMARK    2  A    between atoms: C_3  and  C_5 
REMARK    3  A    between atoms: C_5  and  C_6 
REMARK    4  A    between atoms: C_6  and  C_7 
REMARK    5  A    between atoms: C_7  and  P_8 
ROOT
HETATM    1  C   UNK N   1      33.605  16.219   8.041  0.00  0.00     0.105 C 
ENDROOT
BRANCH   1   2
HETATM    2  C   UNK N   1      34.305  17.515   7.778  0.00  0.00     0.240 C 
HETATM    3  N   UNK N   1      34.785  18.247   8.804  0.00  0.00    -0.237 N 
HETATM    4  H   UNK N   1      34.656  17.928   9.727  0.00  0.00     0.197 HD
HETATM    5  O   UNK N   1      34.460  17.919   6.623  0.00  0.00    -0.271 OA
BRANCH   3   6
HETATM    6  O   UNK N   1      35.430  19.397   8.593  0.00  0.00    -0.287 OA
HETATM    7  H   UNK N   1      35.379  19.831   7.726  0.00  0.00     0.244 HD
ENDBRANCH   3   6
ENDBRANCH   1   2
BRANCH   1   8
HETATM    8  C   UNK N   1      34.560  15.169   8.587  0.00  0.00     0.023 C 
BRANCH   8   9
HETATM    9  C   UNK N   1      34.359  14.969  10.070  0.00  0.00     0.146 C 
BRANCH   9  10
HETATM   10  P   UNK N   1      36.012  14.906  10.922  0.00  0.00     0.259 P 
HETATM   11  O   UNK N   1      37.512  14.283  10.305  0.00  0.00    -0.640 OA
HETATM   12  O   UNK N   1      36.380  16.564  10.659  0.00  0.00    -0.640 OA
HETATM   13  O   UNK N   1      36.057  14.961  12.475  0.00  0.00    -0.640 OA
ENDBRANCH   9  10
ENDBRANCH   8   9
ENDBRANCH   1   8
TORSDOF 5
ENDMDL
MODEL 8
REMARK VINA RESULT:      -4.5     16.568     17.600
REMARK  5 active torsions:
REMARK  status: ('A' for Active; 'I' for Inactive)
REMARK    1  A    between atoms: O_1  and  N_2 
REMARK       I    between atoms: N_2  and  C_3 
REMARK    2  A    between atoms: C_3  and  C_5 
REMARK    3  A    between atoms: C_5  and  C_6 
REMARK    4  A    between atoms: C_6  and  C_7 
REMARK    5  A    between atoms: C_7  and  P_8 
ROOT
HETATM    1  C   UNK N   1      35.734  14.989  10.319  0.00  0.00     0.105 C 
ENDROOT
BRANCH   1   2
HETATM    2  C   UNK N   1      35.729  14.528  11.743  0.00  0.00     0.240 C 
HETATM    3  N   UNK N   1      36.881  14.477  12.442  0.00  0.00    -0.237 N 
HETATM    4  H   UNK N   1      37.725  14.731  12.002  0.00  0.00     0.197 HD
HETATM    5  O   UNK N   1      34.674  14.202  12.292  0.00  0.00    -0.271 OA
BRANCH   3   6
HETATM    6  O   UNK N   1      36.899  14.086  13.720  0.00  0.00    -0.287 OA
HETATM    7  H   UNK N   1      37.270  13.221  13.959  0.00  0.00     0.244 HD
ENDBRANCH   3   6
ENDBRANCH   1   2
BRANCH   1   8
HETATM    8  C   UNK N   1      35.227  16.418  10.193  0.00  0.00     0.023 C 
BRANCH   8   9
HETATM    9  C   UNK N   1      34.065  16.500   9.233  0.00  0.00     0.146 C 
BRANCH   9  10
HETATM   10  P   UNK N   1      34.347  17.888   8.027  0.00  0.00     0.259 P 
HETATM   11  O   UNK N   1      34.283  17.829   6.291  0.00  0.00    -0.640 OA
HETATM   12  O   UNK N   1      32.795  18.593   8.244  0.00  0.00    -0.640 OA
HETATM   13  O   UNK N   1      35.167  19.126   8.488  0.00  0.00    -0.640 OA
ENDBRANCH   9  10
ENDBRANCH   8   9
ENDBRANCH   1   8
TORSDOF 5
ENDMDL
MODEL 9
REMARK VINA RESULT:      -4.5      3.438      4.059
REMARK  5 active torsions:
REMARK  status: ('A' for Active; 'I' for Inactive)
REMARK    1  A    between atoms: O_1  and  N_2 
REMARK       I    between atoms: N_2  and  C_3 
REMARK    2  A    between atoms: C_3  and  C_5 
REMARK    3  A    between atoms: C_5  and  C_6 
REMARK    4  A    between atoms: C_6  and  C_7 
REMARK    5  A    between atoms: C_7  and  P_8 
ROOT
HETATM    1  C   UNK N   1      21.004  19.487   3.489  0.00  0.00     0.105 C 
ENDROOT
BRANCH   1   2
HETATM    2  C   UNK N   1      21.129  20.350   2.273  0.00  0.00     0.240 C 
HETATM    3  N   UNK N   1      20.592  19.951   1.102  0.00  0.00    -0.237 N 
HETATM    4  H   UNK N   1      20.132  19.082   1.051  0.00  0.00     0.197 HD
HETATM    5  O   UNK N   1      21.713  21.434   2.333  0.00  0.00    -0.271 OA
BRANCH   3   6
HETATM    6  O   UNK N   1      20.675  20.714   0.007  0.00  0.00    -0.287 OA
HETATM    7  H   UNK N   1      21.483  21.221  -0.172  0.00  0.00     0.244 HD
ENDBRANCH   3   6
ENDBRANCH   1   2
BRANCH   1   8
HETATM    8  C   UNK N   1      22.334  18.848   3.860  0.00  0.00     0.023 C 
BRANCH   8   9
HETATM    9  C   UNK N   1      22.143  17.419   4.310  0.00  0.00     0.146 C 
BRANCH   9  10
HETATM   10  P   UNK N   1      21.559  17.393   6.077  0.00  0.00     0.259 P 
HETATM   11  O   UNK N   1      20.984  18.724   7.034  0.00  0.00    -0.640 OA
HETATM   12  O   UNK N   1      20.009  16.747   5.712  0.00  0.00    -0.640 OA
HETATM   13  O   UNK N   1      22.020  16.231   7.001  0.00  0.00    -0.640 OA
ENDBRANCH   9  10
ENDBRANCH   8   9
ENDBRANCH   1   8
TORSDOF 5
ENDMDL
