REMARK  28 active torsions:
REMARK  status: ('A' for Active; 'I' for Inactive)
REMARK    1  A    between atoms: C_1  and  C_2 
REMARK    2  A    between atoms: C_2  and  S_3 
REMARK    3  A    between atoms: S_3  and  C_4 
REMARK    4  A    between atoms: C_4  and  C_5 
REMARK    5  A    between atoms: C_5  and  N_6 
REMARK       I    between atoms: N_6  and  C_7 
REMARK    6  A    between atoms: C_7  and  C_8 
REMARK    7  A    between atoms: C_8  and  C_9 
REMARK    8  A    between atoms: C_9  and  N_10 
REMARK       I    between atoms: N_10  and  C_11 
REMARK    9  A    between atoms: C_11  and  C_12 
REMARK   10  A    between atoms: C_12  and  C_13 
REMARK   11  A    between atoms: C_12  and  O_19 
REMARK   12  A    between atoms: C_13  and  C_14 
REMARK   13  A    between atoms: C_14  and  O_15 
REMARK   14  A    between atoms: O_15  and  P_22 
REMARK   15  A    between atoms: P_22  and  O_24 
REMARK   16  A    between atoms: P_22  and  O_54 
REMARK   17  A    between atoms: C_25  and  O_31 
REMARK   18  A    between atoms: C_26  and  O_32 
REMARK   19  A    between atoms: C_27  and  C_30 
REMARK   20  A    between atoms: C_29  and  N_39 
REMARK   21  A    between atoms: C_30  and  O_50 
REMARK   22  A    between atoms: O_32  and  P_33 
REMARK   23  A    between atoms: P_33  and  O_34 
REMARK   24  A    between atoms: P_33  and  O_35 
REMARK   25  A    between atoms: C_43  and  N_49 
REMARK   26  A    between atoms: O_50  and  P_51 
REMARK   27  A    between atoms: P_51  and  O_52 
REMARK   28  A    between atoms: P_51  and  O_54 
ROOT
HETATM    1  P   UNK N   1      20.248  -9.654   0.643  0.00  0.00     0.401 P 
HETATM    2  O   UNK N   1      21.239  -9.229   1.761  0.00  0.00    -0.631 OA
ENDROOT
BRANCH   1   3
HETATM    3  O   UNK N   1      19.085  -8.430   0.185  0.00  0.00    -0.294 OA
BRANCH   3   4
HETATM    4  C   UNK N   1      17.942  -8.608   0.972  0.00  0.00     0.215 C 
BRANCH   4   5
HETATM    5  C   UNK N   1      16.689  -8.353   0.127  0.00  0.00     0.180 C 
HETATM    6  C   UNK N   1      16.076  -9.671  -0.308  0.00  0.00     0.197 C 
HETATM    7  C   UNK N   1      14.642  -9.308  -0.369  0.00  0.00     0.199 C 
HETATM    8  C   UNK N   1      14.504  -8.322   0.758  0.00  0.00     0.262 C 
HETATM    9  O   UNK N   1      15.723  -7.611   0.850  0.00  0.00    -0.353 OA
BRANCH   6  10
HETATM   10  O   UNK N   1      16.496 -10.023  -1.599  0.00  0.00    -0.286 OA
BRANCH  10  11
HETATM   11  P   UNK N   1      17.807 -11.140  -1.402  0.00  0.00     0.391 P 
HETATM   12  O   UNK N   1      16.927 -11.974  -2.367  0.00  0.00    -0.632 OA
BRANCH  11  13
HETATM   13  O   UNK N   1      18.286  -9.724  -2.286  0.00  0.00    -0.307 OA
HETATM   14  H   UNK N   1      19.105  -9.561  -2.780  0.00  0.00     0.222 HD
ENDBRANCH  11  13
BRANCH  11  15
HETATM   15  O   UNK N   1      18.973 -11.474  -2.642  0.00  0.00    -0.307 OA
HETATM   16  H   UNK N   1      19.137 -12.132  -3.335  0.00  0.00     0.222 HD
ENDBRANCH  11  15
ENDBRANCH  10  11
ENDBRANCH   6  10
BRANCH   7  17
HETATM   17  O   UNK N   1      13.830 -10.420  -0.164  0.00  0.00    -0.388 OA
HETATM   18  H   UNK N   1      12.876 -10.318  -0.021  0.00  0.00     0.210 HD
ENDBRANCH   7  17
BRANCH   8  19
HETATM   19  N   UNK N   1      13.372  -7.433   0.463  0.00  0.00    -0.297 N 
HETATM   20  C   UNK N   1      12.079  -7.777   0.365  0.00  0.00     0.142 A 
HETATM   21  C   UNK N   1      11.350  -6.693   0.038  0.00  0.00     0.122 A 
HETATM   22  N   UNK N   1      11.526  -9.000   0.544  0.00  0.00    -0.336 N 
HETATM   23  N   UNK N   1      12.154  -5.619  -0.075  0.00  0.00    -0.346 N 
HETATM   24  C   UNK N   1       9.978  -6.807  -0.137  0.00  0.00     0.131 A 
HETATM   25  C   UNK N   1      13.403  -6.101   0.195  0.00  0.00     0.188 A 
ATOM     26  HN  UNK N   1      11.890  -4.662  -0.309  1.00  0.00     0.167 HD
HETATM   27  N   UNK N   1       9.409  -8.036   0.040  0.00  0.00    -0.337 N 
HETATM   28  C   UNK N   1      10.173  -9.126   0.380  0.00  0.00     0.183 A 
ATOM     29  HN  UNK N   1       8.402  -8.147  -0.083  1.00  0.00     0.168 HD
ATOM     30  HN  UNK N   1      12.102  -9.804   0.794  1.00  0.00     0.168 HD
BRANCH  24  31
HETATM   31  N   UNK N   1       9.187  -5.695  -0.492  0.00  0.00    -0.383 N 
HETATM   32  H   UNK N   1       9.584  -4.829  -0.740  0.00  0.00     0.157 HD
HETATM   33  H   UNK N   1       8.207  -5.788  -0.492  0.00  0.00     0.157 HD
ENDBRANCH  24  31
ENDBRANCH   8  19
ENDBRANCH   4   5
ENDBRANCH   3   4
ENDBRANCH   1   3
BRANCH   1  34
HETATM   34  O   UNK N   1      21.236  -8.596  -0.315  0.00  0.00    -0.307 OA
HETATM   35  H   UNK N   1      22.024  -8.779  -0.850  0.00  0.00     0.222 HD
ENDBRANCH   1  34
BRANCH   1  36
HETATM   36  O   UNK N   1      20.890 -10.771  -0.537  0.00  0.00    -0.195 OA
BRANCH  36  37
HETATM   37  P   UNK N   1      20.952 -12.376   0.161  0.00  0.00     0.401 P 
HETATM   38  O   UNK N   1      22.080 -12.397   1.226  0.00  0.00    -0.631 OA
BRANCH  37  39
HETATM   39  O   UNK N   1      19.466 -12.882   0.918  0.00  0.00    -0.296 OA
BRANCH  39  40
HETATM   40  C   UNK N   1      19.486 -14.290   0.970  0.00  0.00     0.192 C 
BRANCH  40  41
HETATM   41  C   UNK N   1      18.188 -14.886   0.393  0.00  0.00     0.009 C 
HETATM   42  C   UNK N   1      18.097 -14.482  -1.070  0.00  0.00     0.020 C 
HETATM   43  C   UNK N   1      18.305 -16.398   0.425  0.00  0.00     0.020 C 
BRANCH  41  44
HETATM   44  C   UNK N   1      16.940 -14.488   1.244  0.00  0.00     0.219 C 
BRANCH  44  45
HETATM   45  C   UNK N   1      15.621 -14.445   0.519  0.00  0.00     0.247 C 
HETATM   46  N   UNK N   1      15.439 -13.501  -0.442  0.00  0.00    -0.358 N 
HETATM   47  H   UNK N   1      16.248 -13.034  -0.753  0.00  0.00     0.162 HD
HETATM   48  O   UNK N   1      14.707 -15.172   0.874  0.00  0.00    -0.271 OA
BRANCH  46  49
HETATM   49  C   UNK N   1      14.190 -13.105  -1.061  0.00  0.00     0.132 C 
BRANCH  49  50
HETATM   50  C   UNK N   1      13.228 -14.227  -1.406  0.00  0.00     0.122 C 
BRANCH  50  51
HETATM   51  C   UNK N   1      12.081 -14.188  -0.444  0.00  0.00     0.219 C 
HETATM   52  N   UNK N   1      11.411 -13.027  -0.230  0.00  0.00    -0.360 N 
HETATM   53  H   UNK N   1      11.660 -12.227  -0.748  0.00  0.00     0.162 HD
HETATM   54  O   UNK N   1      11.776 -15.201   0.165  0.00  0.00    -0.274 OA
BRANCH  52  55
HETATM   55  C   UNK N   1      10.344 -12.931   0.736  0.00  0.00     0.133 C 
BRANCH  55  56
HETATM   56  C   UNK N   1       9.115 -12.322   0.097  0.00  0.00     0.102 C 
BRANCH  56  57
HETATM   57  S   UNK N   1       7.867 -12.036   1.384  0.00  0.00    -0.086 SA
BRANCH  57  58
HETATM   58  C   UNK N   1       6.500 -12.164   0.224  0.00  0.00     0.214 C 
HETATM   59  O   UNK N   1       6.099 -11.152  -0.329  0.00  0.00    -0.280 OA
BRANCH  58  60
HETATM   60  C   UNK N   1       5.848 -13.464  -0.057  0.00  0.00    -0.014 C 
HETATM   61  C   UNK N   1       4.705 -13.539  -1.015  0.00  0.00     0.052 C 
HETATM   62  C   UNK N   1       6.264 -14.582   0.536  0.00  0.00     0.023 C 
ENDBRANCH  58  60
ENDBRANCH  57  58
ENDBRANCH  56  57
ENDBRANCH  55  56
ENDBRANCH  52  55
ENDBRANCH  50  51
ENDBRANCH  49  50
ENDBRANCH  46  49
ENDBRANCH  44  45
BRANCH  44  63
HETATM   63  O   UNK N   1      17.101 -13.255   1.882  0.00  0.00    -0.385 OA
HETATM   64  H   UNK N   1      17.898 -12.924   2.325  0.00  0.00     0.210 HD
ENDBRANCH  44  63
ENDBRANCH  41  44
ENDBRANCH  40  41
ENDBRANCH  39  40
ENDBRANCH  37  39
BRANCH  37  65
HETATM   65  O   UNK N   1      21.423 -13.497  -1.081  0.00  0.00    -0.307 OA
HETATM   66  H   UNK N   1      21.012 -14.037  -1.774  0.00  0.00     0.222 HD
ENDBRANCH  37  65
ENDBRANCH  36  37
ENDBRANCH   1  36
TORSDOF 28
