REMARK  21 active torsions:
REMARK  status: ('A' for Active; 'I' for Inactive)
REMARK    1  A    between atoms: C_10  and  C_5 
REMARK    2  A    between atoms: O_43  and  C_5 
REMARK    3  A    between atoms: C_11  and  C_6 
REMARK    4  A    between atoms: O_44  and  C_6 
REMARK    5  A    between atoms: C_18  and  C_9 
REMARK    6  A    between atoms: C_13  and  O_33 
REMARK    7  A    between atoms: C_15  and  O_35 
REMARK    8  A    between atoms: C_16  and  O_47 
REMARK    9  A    between atoms: N_22  and  C_17 
REMARK   10  A    between atoms: N_23  and  C_18 
REMARK   11  A    between atoms: C_20  and  N_31 
REMARK   12  A    between atoms: C_21  and  N_32 
REMARK   13  A    between atoms: P_49  and  O_37 
REMARK   14  A    between atoms: P_49  and  O_38 
REMARK   15  A    between atoms: P_50  and  O_40 
REMARK   16  A    between atoms: P_51  and  O_42 
REMARK   17  A    between atoms: P_50  and  O_43 
REMARK   18  A    between atoms: P_51  and  O_44 
REMARK   19  A    between atoms: P_49  and  O_47 
REMARK   20  A    between atoms: P_50  and  O_48 
REMARK   21  A    between atoms: P_51  and  O_48 
ROOT
HETATM    1  C   UNK N   1      -0.140  -1.308   0.419  0.00  0.00     0.180 C 
HETATM    2  C   UNK N   1       1.198  -1.894   0.846  0.00  0.00     0.183 C 
HETATM    3  C   UNK N   1       2.124  -0.809   0.334  0.00  0.00     0.214 C 
HETATM    4  C   UNK N   1       1.312   0.392   0.847  0.00  0.00     0.263 C 
HETATM    5  O   UNK N   1       1.246  -1.953   2.248  0.00  0.00    -0.390 OA
HETATM    6  O   UNK N   1      -0.065   0.087   0.659  0.00  0.00    -0.353 OA
HETATM    7  H   UNK N   1       1.227  -2.001   3.217  0.00  0.00     0.210 HD
ENDROOT
BRANCH   1   8
HETATM    8  C   UNK N   1      -0.446  -1.531  -1.082  0.00  0.00     0.215 C 
BRANCH   8   9
HETATM    9  O   UNK N   1      -0.157  -2.843  -1.491  0.00  0.00    -0.294 OA
BRANCH   9  10
HETATM   10  P   UNK N   1      -1.616  -3.588  -2.109  0.00  0.00     0.401 P 
HETATM   11  O   UNK N   1      -2.506  -2.511  -2.795  0.00  0.00    -0.631 OA
BRANCH  10  12
HETATM   12  O   UNK N   1      -1.196  -4.734  -3.342  0.00  0.00    -0.307 OA
HETATM   13  H   UNK N   1      -1.634  -5.258  -4.031  0.00  0.00     0.222 HD
ENDBRANCH  10  12
BRANCH  10  14
HETATM   14  O   UNK N   1      -2.486  -4.388  -0.801  0.00  0.00    -0.195 OA
BRANCH  14  15
HETATM   15  P   UNK N   1      -3.967  -3.537  -0.370  0.00  0.00     0.401 P 
HETATM   16  O   UNK N   1      -2.941  -2.438  -0.012  0.00  0.00    -0.631 OA
BRANCH  15  17
HETATM   17  O   UNK N   1      -3.876  -4.940   0.650  0.00  0.00    -0.307 OA
HETATM   18  H   UNK N   1      -4.528  -5.376   1.220  0.00  0.00     0.222 HD
ENDBRANCH  15  17
BRANCH  15  19
HETATM   19  O   UNK N   1      -4.057  -3.056   1.307  0.00  0.00    -0.294 OA
BRANCH  19  20
HETATM   20  C   UNK N   1      -5.355  -2.684   1.695  0.00  0.00     0.215 C 
BRANCH  20  21
HETATM   21  C   UNK N   1      -6.152  -1.746   0.784  0.00  0.00     0.180 C 
HETATM   22  C   UNK N   1      -5.523  -0.479   0.234  0.00  0.00     0.182 C 
HETATM   23  C   UNK N   1      -6.788   0.193  -0.295  0.00  0.00     0.198 C 
HETATM   24  C   UNK N   1      -7.857  -0.298   0.723  0.00  0.00     0.259 C 
HETATM   25  O   UNK N   1      -7.231  -1.271   1.535  0.00  0.00    -0.353 OA
BRANCH  22  26
HETATM   26  O   UNK N   1      -4.985   0.269   1.285  0.00  0.00    -0.390 OA
HETATM   27  H   UNK N   1      -4.349   0.205   2.015  0.00  0.00     0.210 HD
ENDBRANCH  22  26
BRANCH  23  28
HETATM   28  O   UNK N   1      -7.066  -0.309  -1.572  0.00  0.00    -0.388 OA
HETATM   29  H   UNK N   1      -7.463  -0.316  -2.457  0.00  0.00     0.210 HD
ENDBRANCH  23  28
BRANCH  24  30
HETATM   30  N   UNK N   1      -9.036  -0.924   0.093  0.00  0.00    -0.336 N 
HETATM   31  C   UNK N   1     -10.008  -0.186  -0.514  0.00  0.00     0.093 A 
HETATM   32  C   UNK N   1     -11.132  -0.823  -1.061  0.00  0.00     0.018 A 
HETATM   33  C   UNK N   1     -11.236  -2.220  -1.004  0.00  0.00     0.017 A 
HETATM   34  C   UNK N   1     -10.218  -2.964  -0.400  0.00  0.00     0.013 A 
HETATM   35  C   UNK N   1      -9.146  -2.284   0.149  0.00  0.00     0.107 A 
BRANCH  34  36
HETATM   36  C   UNK N   1     -10.231  -4.445  -0.349  0.00  0.00     0.086 C 
HETATM   37  S   UNK N   1      -8.802  -5.348   0.278  0.00  0.00    -0.033 SA
BRANCH  36  38
HETATM   38  N   UNK N   1     -11.229  -5.103  -0.809  0.00  0.00    -0.392 N 
HETATM   39  H   UNK N   1     -12.050  -4.692  -1.163  0.00  0.00     0.156 HD
ATOM     40  HN  UNK N   1     -11.167  -6.122  -0.809  1.00  0.00     0.156 HD
ENDBRANCH  36  38
ENDBRANCH  34  36
ENDBRANCH  24  30
ENDBRANCH  20  21
ENDBRANCH  19  20
ENDBRANCH  15  19
ENDBRANCH  14  15
ENDBRANCH  10  14
ENDBRANCH   9  10
ENDBRANCH   8   9
ENDBRANCH   1   8
BRANCH   3  41
HETATM   41  O   UNK N   1       3.424  -0.800   0.894  0.00  0.00    -0.284 OA
BRANCH  41  42
HETATM   42  P   UNK N   1       4.229  -2.352   0.744  0.00  0.00     0.391 P 
HETATM   43  O   UNK N   1       3.646  -3.305   1.822  0.00  0.00    -0.632 OA
BRANCH  42  44
HETATM   44  O   UNK N   1       5.912  -2.188   1.129  0.00  0.00    -0.307 OA
HETATM   45  H   UNK N   1       6.463  -2.957   1.345  0.00  0.00     0.222 HD
ENDBRANCH  42  44
BRANCH  42  46
HETATM   46  O   UNK N   1       4.024  -3.110  -0.805  0.00  0.00    -0.307 OA
HETATM   47  H   UNK N   1       3.600  -3.222  -1.670  0.00  0.00     0.222 HD
ENDBRANCH  42  46
ENDBRANCH  41  42
ENDBRANCH   3  41
BRANCH   4  48
HETATM   48  N   UNK N   1       1.658   1.688   0.247  0.00  0.00    -0.297 N 
HETATM   49  C   UNK N   1       0.784   2.578  -0.294  0.00  0.00     0.188 A 
HETATM   50  N   UNK N   1       1.409   3.735  -0.657  0.00  0.00    -0.346 N 
HETATM   51  C   UNK N   1       2.697   3.534  -0.329  0.00  0.00     0.122 A 
ATOM     52  HN  UNK N   1       0.993   4.564  -1.081  1.00  0.00     0.167 HD
HETATM   53  C   UNK N   1       3.787   4.383  -0.446  0.00  0.00     0.131 A 
HETATM   54  C   UNK N   1       2.850   2.306   0.205  0.00  0.00     0.142 A 
HETATM   55  N   UNK N   1       5.004   3.923  -0.029  0.00  0.00    -0.337 N 
HETATM   56  C   UNK N   1       5.139   2.662   0.498  0.00  0.00     0.183 A 
ATOM     57  HN  UNK N   1       5.823   4.525  -0.111  1.00  0.00     0.168 HD
HETATM   58  N   UNK N   1       4.048   1.845   0.632  0.00  0.00    -0.336 N 
ATOM     59  HN  UNK N   1       4.137   0.915   1.041  1.00  0.00     0.168 HD
BRANCH  53  60
HETATM   60  N   UNK N   1       3.649   5.689  -0.959  0.00  0.00    -0.383 N 
HETATM   61  H   UNK N   1       4.390   6.228  -1.318  0.00  0.00     0.157 HD
HETATM   62  H   UNK N   1       2.749   6.088  -0.959  0.00  0.00     0.157 HD
ENDBRANCH  53  60
ENDBRANCH   4  48
TORSDOF 21
