REMARK  10 active torsions:
REMARK  status: ('A' for Active; 'I' for Inactive)
REMARK    1  A    between atoms: C_20  and  C_6 
REMARK    2  A    between atoms: C_9  and  C_7 
REMARK    3  A    between atoms: C_21  and  C_7 
REMARK    4  A    between atoms: C_10  and  C_8 
REMARK    5  A    between atoms: C_22  and  C_8 
REMARK    6  A    between atoms: C_32  and  C_9 
REMARK    7  A    between atoms: C_33  and  C_10 
REMARK    8  A    between atoms: C_23  and  C_15 
REMARK    9  A    between atoms: O_40  and  C_32 
REMARK   10  A    between atoms: O_42  and  C_33 
ROOT
HETATM    1  C   UNK N   1       5.431   1.439  -0.360  0.00  0.00     0.052 C 
HETATM    2  C   UNK N   1      -5.118   1.272  -1.140  0.00  0.00     0.051 C 
HETATM    3  C   UNK N   1       1.248  -4.764   1.006  0.00  0.00     0.051 C 
HETATM    4  C   UNK N   1      -1.817   1.938   1.922  0.00  0.00     0.051 C 
HETATM    5  C   UNK N   1      -2.325   2.460  -0.978  0.00  0.00     0.058 C 
HETATM    6  C   UNK N   1       2.452  -2.308  -0.433  0.00  0.00     0.064 C 
HETATM    7  C   UNK N   1       2.546   2.269  -0.555  0.00  0.00     0.058 C 
HETATM    8  C   UNK N   1      -1.823  -1.664   0.299  0.00  0.00     0.064 C 
HETATM    9  C   UNK N   1       4.231   0.609  -0.556  0.00  0.00    -0.021 C 
HETATM   10  C   UNK N   1      -3.864   0.599  -0.809  0.00  0.00    -0.025 C 
HETATM   11  C   UNK N   1       0.597  -3.723   0.161  0.00  0.00    -0.025 C 
HETATM   12  C   UNK N   1      -0.768   2.405   0.936  0.00  0.00    -0.024 C 
HETATM   13  C   UNK N   1       4.102  -0.741  -0.309  0.00  0.00     0.000 C 
HETATM   14  C   UNK N   1      -3.595  -0.602  -0.143  0.00  0.00    -0.021 C 
HETATM   15  C   UNK N   1      -0.701  -3.482   0.153  0.00  0.00    -0.021 C 
HETATM   16  C   UNK N   1       0.537   1.995   1.016  0.00  0.00     0.032 C 
HETATM   17  C   UNK N   1      -2.632   1.178  -0.950  0.00  0.00     0.066 C 
HETATM   18  C   UNK N   1      -0.972   2.725  -0.420  0.00  0.00     0.041 C 
HETATM   19  C   UNK N   1       2.958   1.057  -0.757  0.00  0.00     0.066 C 
HETATM   20  C   UNK N   1       1.133  -2.624  -0.451  0.00  0.00     0.066 C 
HETATM   21  C   UNK N   1       2.853  -1.065  -0.591  0.00  0.00     0.070 C 
HETATM   22  C   UNK N   1      -2.324  -0.712  -0.216  0.00  0.00     0.066 C 
HETATM   23  C   UNK N   1      -0.840  -2.271  -0.215  0.00  0.00     0.066 C 
HETATM   24  C   UNK N   1       1.149   2.485  -0.171  0.00  0.00     0.048 C 
HETATM   25 Fe   UNK N   1       0.213   0.259  -0.817  0.00  0.00     0.000 Fe
HETATM   26  N   UNK N   1       2.131   0.055  -0.822  0.00  0.00    -0.248 N 
HETATM   27  N   UNK N   1      -1.708   0.272  -0.760  0.00  0.00    -0.248 N 
HETATM   28  N   UNK N   1       0.199  -1.704  -0.612  0.00  0.00    -0.248 N 
HETATM   29  N   UNK N   1       0.175   2.338  -1.027  0.00  0.00    -0.170 NA
ENDROOT
BRANCH  14  30
HETATM   30  C   UNK N   1      -4.276  -1.749   0.600  0.00  0.00     0.052 C 
BRANCH  30  31
HETATM   31  C   UNK N   1      -5.417  -1.252   1.284  0.00  0.00     0.115 C 
BRANCH  31  32
HETATM   32  C   UNK N   1      -6.335  -1.156   0.140  0.00  0.00     0.139 C 
HETATM   33  O   UNK N   1      -6.314  -1.989  -0.767  0.00  0.00    -0.650 OA
BRANCH  32  34
HETATM   34  O   UNK N   1      -7.077  -0.059   0.017  0.00  0.00    -0.776 OA
HETATM   35  H   UNK N   1      -6.669   0.780  -0.069  0.00  0.00     0.167 HD
ENDBRANCH  32  34
ENDBRANCH  31  32
ENDBRANCH  30  31
ENDBRANCH  14  30
BRANCH  15  36
HETATM   36  C   UNK N   1      -1.843  -4.238   0.510  0.00  0.00     0.052 C 
BRANCH  36  37
HETATM   37  C   UNK N   1      -1.810  -5.147  -0.655  0.00  0.00     0.115 C 
BRANCH  37  38
HETATM   38  C   UNK N   1      -2.000  -6.315   0.120  0.00  0.00     0.139 C 
HETATM   39  O   UNK N   1      -1.030  -6.932   0.526  0.00  0.00    -0.650 OA
BRANCH  38  40
HETATM   40  O   UNK N   1      -3.205  -6.465   0.692  0.00  0.00    -0.776 OA
HETATM   41  H   UNK N   1      -3.717  -5.788   1.091  0.00  0.00     0.167 HD
ENDBRANCH  38  40
ENDBRANCH  37  38
ENDBRANCH  36  37
ENDBRANCH  15  36
BRANCH  16  42
HETATM   42  C   UNK N   1       0.577   0.614   1.679  0.00  0.00     0.272 C 
HETATM   43  O   UNK N   1       1.126  -0.424   1.351  0.00  0.00    -0.301 OA
ENDBRANCH  16  42
BRANCH  13  44
HETATM   44  C   UNK N   1       4.986  -1.700   0.342  0.00  0.00     0.004 C 
HETATM   45  C   UNK N   1       6.268  -1.689   0.127  0.00  0.00     0.012 C 
ENDBRANCH  13  44
TORSDOF 10
