REMARK  8 active torsions:
REMARK  status: ('A' for Active; 'I' for Inactive)
REMARK    1  A    between atoms: O_1  and  C_2 
REMARK    2  A    between atoms: C_2  and  C_4 
REMARK    3  A    between atoms: C_4  and  C_5 
REMARK    4  A    between atoms: C_5  and  C_6 
REMARK    5  A    between atoms: C_6  and  C_7 
REMARK    6  A    between atoms: C_7  and  C_8 
REMARK    7  A    between atoms: C_8  and  C_9 
REMARK    8  A    between atoms: C_9  and  O_10 
ROOT
HETATM    1  C   UNK N   1       5.825   3.183  -0.000  0.00  0.00     0.001 C 
ENDROOT
BRANCH   1   2
HETATM    2  C   UNK N   1       4.627   2.262  -0.000  0.00  0.00     0.010 C 
BRANCH   2   3
HETATM    3  C   UNK N   1       3.309   3.012  -0.000  0.00  0.00     0.110 C 
BRANCH   3   4
HETATM    4  C   UNK N   1       2.147   2.058  -0.000  0.00  0.00     0.139 C 
HETATM    5  O   UNK N   1       2.327   0.847  -0.000  0.00  0.00    -0.650 OA
BRANCH   4   6
HETATM    6  O   UNK N   1       0.892   2.539   0.000  0.00  0.00    -0.776 OA
HETATM    7  H   UNK N   1       0.745   3.464   0.000  0.00  0.00     0.167 HD
ENDBRANCH   4   6
ENDBRANCH   3   4
ENDBRANCH   2   3
ENDBRANCH   1   2
BRANCH   1   8
HETATM    8  C   UNK N   1       7.031   2.272   0.000  0.00  0.00     0.010 C 
BRANCH   8   9
HETATM    9  C   UNK N   1       8.343   3.034   0.000  0.00  0.00     0.110 C 
BRANCH   9  10
HETATM   10  C   UNK N   1       9.513   2.089   0.000  0.00  0.00     0.139 C 
HETATM   11  O   UNK N   1       9.343   0.877   0.000  0.00  0.00    -0.650 OA
BRANCH  10  12
HETATM   12  O   UNK N   1      10.764   2.581  -0.000  0.00  0.00    -0.776 OA
HETATM   13  H   UNK N   1      11.497   1.998  -0.000  0.00  0.00     0.167 HD
ENDBRANCH  10  12
ENDBRANCH   9  10
ENDBRANCH   8   9
ENDBRANCH   1   8
TORSDOF 8
