MODEL 1
REMARK VINA RESULT:      -4.3      0.000      0.000
REMARK  1 active torsions:
REMARK  status: ('A' for Active; 'I' for Inactive)
REMARK    1  A    between atoms: C_5  and  O_6 
ROOT
HETATM    1  C   UNK N   1      25.956  23.812  -5.902  0.00  0.00     0.048 C 
HETATM    2  C   UNK N   1      25.853  25.123  -5.214  0.00  0.00    -0.062 A 
HETATM    3  C   UNK N   1      25.164  26.173  -5.826  0.00  0.00     0.009 A 
HETATM    4  C   UNK N   1      25.063  27.410  -5.183  0.00  0.00     0.037 A 
HETATM    5  C   UNK N   1      25.650  27.596  -3.930  0.00  0.00     0.065 A 
HETATM    6  C   UNK N   1      26.341  26.544  -3.316  0.00  0.00     0.037 A 
HETATM    7  C   UNK N   1      26.442  25.307  -3.959  0.00  0.00     0.009 A 
ENDROOT
BRANCH   5   8
HETATM    8  O   UNK N   1      25.551  28.785  -3.315  0.00  0.00    -0.361 OA
HETATM    9  H   UNK N   1      24.892  28.922  -2.664  0.00  0.00     0.217 HD
ENDBRANCH   5   8
TORSDOF 1
ENDMDL
MODEL 2
REMARK VINA RESULT:      -4.3     19.677     20.526
REMARK  1 active torsions:
REMARK  status: ('A' for Active; 'I' for Inactive)
REMARK    1  A    between atoms: C_5  and  O_6 
ROOT
HETATM    1  C   UNK N   1      24.659  12.057  10.799  0.00  0.00     0.048 C 
HETATM    2  C   UNK N   1      23.277  12.538  10.553  0.00  0.00    -0.062 A 
HETATM    3  C   UNK N   1      22.224  12.046  11.329  0.00  0.00     0.009 A 
HETATM    4  C   UNK N   1      20.920  12.495  11.102  0.00  0.00     0.037 A 
HETATM    5  C   UNK N   1      20.670  13.437  10.100  0.00  0.00     0.065 A 
HETATM    6  C   UNK N   1      21.724  13.931   9.323  0.00  0.00     0.037 A 
HETATM    7  C   UNK N   1      23.028  13.481   9.550  0.00  0.00     0.009 A 
ENDROOT
BRANCH   5   8
HETATM    8  O   UNK N   1      19.417  13.866   9.885  0.00  0.00    -0.361 OA
HETATM    9  H   UNK N   1      19.265  14.611   9.338  0.00  0.00     0.217 HD
ENDBRANCH   5   8
TORSDOF 1
ENDMDL
MODEL 3
REMARK VINA RESULT:      -4.3     20.119     21.003
REMARK  1 active torsions:
REMARK  status: ('A' for Active; 'I' for Inactive)
REMARK    1  A    between atoms: C_5  and  O_6 
ROOT
HETATM    1  C   UNK N   1      20.091  13.431  10.145  0.00  0.00     0.048 C 
HETATM    2  C   UNK N   1      21.481  13.012  10.453  0.00  0.00    -0.062 A 
HETATM    3  C   UNK N   1      21.731  12.210  11.569  0.00  0.00     0.009 A 
HETATM    4  C   UNK N   1      23.038  11.812  11.864  0.00  0.00     0.037 A 
HETATM    5  C   UNK N   1      24.094  12.217  11.044  0.00  0.00     0.065 A 
HETATM    6  C   UNK N   1      23.844  13.021   9.925  0.00  0.00     0.037 A 
HETATM    7  C   UNK N   1      22.537  13.419   9.630  0.00  0.00     0.009 A 
ENDROOT
BRANCH   5   8
HETATM    8  O   UNK N   1      25.347  11.834  11.331  0.00  0.00    -0.361 OA
HETATM    9  H   UNK N   1      25.640  10.976  11.094  0.00  0.00     0.217 HD
ENDBRANCH   5   8
TORSDOF 1
ENDMDL
MODEL 4
REMARK VINA RESULT:      -4.1     27.281     28.297
REMARK  1 active torsions:
REMARK  status: ('A' for Active; 'I' for Inactive)
REMARK    1  A    between atoms: C_5  and  O_6 
ROOT
HETATM    1  C   UNK N   1      35.289   9.531  17.481  0.00  0.00     0.048 C 
HETATM    2  C   UNK N   1      35.266  10.981  17.799  0.00  0.00    -0.062 A 
HETATM    3  C   UNK N   1      35.203  11.916  16.763  0.00  0.00     0.009 A 
HETATM    4  C   UNK N   1      35.180  13.282  17.056  0.00  0.00     0.037 A 
HETATM    5  C   UNK N   1      35.221  13.713  18.384  0.00  0.00     0.065 A 
HETATM    6  C   UNK N   1      35.284  12.777  19.423  0.00  0.00     0.037 A 
HETATM    7  C   UNK N   1      35.306  11.410  19.130  0.00  0.00     0.009 A 
ENDROOT
BRANCH   5   8
HETATM    8  O   UNK N   1      35.199  15.026  18.662  0.00  0.00    -0.361 OA
HETATM    9  H   UNK N   1      35.433  15.648  18.002  0.00  0.00     0.217 HD
ENDBRANCH   5   8
TORSDOF 1
ENDMDL
MODEL 5
REMARK VINA RESULT:      -4.1     19.700     20.591
REMARK  1 active torsions:
REMARK  status: ('A' for Active; 'I' for Inactive)
REMARK    1  A    between atoms: C_5  and  O_6 
ROOT
HETATM    1  C   UNK N   1      25.018  13.483   8.503  0.00  0.00     0.048 C 
HETATM    2  C   UNK N   1      23.925  13.040   9.404  0.00  0.00    -0.062 A 
HETATM    3  C   UNK N   1      24.219  12.223  10.498  0.00  0.00     0.009 A 
HETATM    4  C   UNK N   1      23.194  11.802  11.350  0.00  0.00     0.037 A 
HETATM    5  C   UNK N   1      21.876  12.198  11.107  0.00  0.00     0.065 A 
HETATM    6  C   UNK N   1      21.581  13.017  10.011  0.00  0.00     0.037 A 
HETATM    7  C   UNK N   1      22.606  13.438   9.159  0.00  0.00     0.009 A 
ENDROOT
BRANCH   5   8
HETATM    8  O   UNK N   1      20.894  11.792  11.927  0.00  0.00    -0.361 OA
HETATM    9  H   UNK N   1      21.095  11.253  12.666  0.00  0.00     0.217 HD
ENDBRANCH   5   8
TORSDOF 1
ENDMDL
MODEL 6
REMARK VINA RESULT:      -4.1     27.022     28.051
REMARK  1 active torsions:
REMARK  status: ('A' for Active; 'I' for Inactive)
REMARK    1  A    between atoms: C_5  and  O_6 
ROOT
HETATM    1  C   UNK N   1      34.733  11.639  14.945  0.00  0.00     0.048 C 
HETATM    2  C   UNK N   1      34.951  11.949  16.380  0.00  0.00    -0.062 A 
HETATM    3  C   UNK N   1      34.937  13.278  16.812  0.00  0.00     0.009 A 
HETATM    4  C   UNK N   1      35.141  13.576  18.161  0.00  0.00     0.037 A 
HETATM    5  C   UNK N   1      35.360  12.546  19.079  0.00  0.00     0.065 A 
HETATM    6  C   UNK N   1      35.374  11.214  18.648  0.00  0.00     0.037 A 
HETATM    7  C   UNK N   1      35.170  10.916  17.298  0.00  0.00     0.009 A 
ENDROOT
BRANCH   5   8
HETATM    8  O   UNK N   1      35.556  12.835  20.375  0.00  0.00    -0.361 OA
HETATM    9  H   UNK N   1      34.881  12.661  21.001  0.00  0.00     0.217 HD
ENDBRANCH   5   8
TORSDOF 1
ENDMDL
MODEL 7
REMARK VINA RESULT:      -4.0      1.863      2.427
REMARK  1 active torsions:
REMARK  status: ('A' for Active; 'I' for Inactive)
REMARK    1  A    between atoms: C_5  and  O_6 
ROOT
HETATM    1  C   UNK N   1      27.076  26.596  -8.376  0.00  0.00     0.048 C 
HETATM    2  C   UNK N   1      26.628  27.105  -7.056  0.00  0.00    -0.062 A 
HETATM    3  C   UNK N   1      25.474  26.582  -6.468  0.00  0.00     0.009 A 
HETATM    4  C   UNK N   1      25.047  27.056  -5.225  0.00  0.00     0.037 A 
HETATM    5  C   UNK N   1      25.774  28.054  -4.571  0.00  0.00     0.065 A 
HETATM    6  C   UNK N   1      26.931  28.579  -5.159  0.00  0.00     0.037 A 
HETATM    7  C   UNK N   1      27.358  28.104  -6.403  0.00  0.00     0.009 A 
ENDROOT
BRANCH   5   8
HETATM    8  O   UNK N   1      25.361  28.508  -3.377  0.00  0.00    -0.361 OA
HETATM    9  H   UNK N   1      25.635  28.076  -2.592  0.00  0.00     0.217 HD
ENDBRANCH   5   8
TORSDOF 1
ENDMDL
MODEL 8
REMARK VINA RESULT:      -4.0     27.017     28.076
REMARK  1 active torsions:
REMARK  status: ('A' for Active; 'I' for Inactive)
REMARK    1  A    between atoms: C_5  and  O_6 
ROOT
HETATM    1  C   UNK N   1      35.195   9.651  16.699  0.00  0.00     0.048 C 
HETATM    2  C   UNK N   1      35.200  11.030  17.246  0.00  0.00    -0.062 A 
HETATM    3  C   UNK N   1      35.333  11.229  18.623  0.00  0.00     0.009 A 
HETATM    4  C   UNK N   1      35.339  12.526  19.143  0.00  0.00     0.037 A 
HETATM    5  C   UNK N   1      35.212  13.623  18.287  0.00  0.00     0.065 A 
HETATM    6  C   UNK N   1      35.080  13.425  16.908  0.00  0.00     0.037 A 
HETATM    7  C   UNK N   1      35.074  12.128  16.387  0.00  0.00     0.009 A 
ENDROOT
BRANCH   5   8
HETATM    8  O   UNK N   1      35.218  14.867  18.791  0.00  0.00    -0.361 OA
HETATM    9  H   UNK N   1      34.572  15.121  19.419  0.00  0.00     0.217 HD
ENDBRANCH   5   8
TORSDOF 1
ENDMDL
MODEL 9
REMARK VINA RESULT:      -3.8     14.630     15.717
REMARK  1 active torsions:
REMARK  status: ('A' for Active; 'I' for Inactive)
REMARK    1  A    between atoms: C_5  and  O_6 
ROOT
HETATM    1  C   UNK N   1      32.288  17.218   3.386  0.00  0.00     0.048 C 
HETATM    2  C   UNK N   1      32.321  17.273   4.868  0.00  0.00    -0.062 A 
HETATM    3  C   UNK N   1      33.532  17.502   5.526  0.00  0.00     0.009 A 
HETATM    4  C   UNK N   1      33.569  17.555   6.922  0.00  0.00     0.037 A 
HETATM    5  C   UNK N   1      32.396  17.380   7.660  0.00  0.00     0.065 A 
HETATM    6  C   UNK N   1      31.181  17.151   7.002  0.00  0.00     0.037 A 
HETATM    7  C   UNK N   1      31.144  17.098   5.605  0.00  0.00     0.009 A 
ENDROOT
BRANCH   5   8
HETATM    8  O   UNK N   1      32.435  17.431   9.000  0.00  0.00    -0.361 OA
HETATM    9  H   UNK N   1      32.113  16.711   9.506  0.00  0.00     0.217 HD
ENDBRANCH   5   8
TORSDOF 1
ENDMDL
