MODEL 1
REMARK VINA RESULT:      -7.4      0.000      0.000
REMARK  13 active torsions:
REMARK  status: ('A' for Active; 'I' for Inactive)
REMARK    1  A    between atoms: C_7  and  C_3 
REMARK    2  A    between atoms: C_8  and  C_4 
REMARK    3  A    between atoms: N_25  and  C_4 
REMARK    4  A    between atoms: C_9  and  C_7 
REMARK    5  A    between atoms: C_15  and  C_9 
REMARK    6  A    between atoms: C_9  and  N_17 
REMARK    7  A    between atoms: C_11  and  O_29 
REMARK    8  A    between atoms: C_12  and  O_30 
REMARK    9  A    between atoms: N_18  and  C_13 
REMARK   10  A    between atoms: O_31  and  C_15 
REMARK   11  A    between atoms: C_16  and  N_28 
REMARK   12  A    between atoms: S_35  and  N_25 
REMARK   13  A    between atoms: N_26  and  S_35 
ROOT
HETATM    1  C   UNK N   1      35.185  15.155  11.690  0.00  0.00     0.174 C 
HETATM    2  C   UNK N   1      34.923  13.925  10.852  0.00  0.00     0.181 C 
HETATM    3  C   UNK N   1      35.122  12.856  11.874  0.00  0.00     0.198 C 
HETATM    4  C   UNK N   1      36.181  13.477  12.809  0.00  0.00     0.262 C 
HETATM    5  O   UNK N   1      36.328  14.847  12.452  0.00  0.00    -0.354 OA
ENDROOT
BRANCH   1   6
HETATM    6  C   UNK N   1      35.394  16.409  10.839  0.00  0.00     0.168 C 
BRANCH   6   7
HETATM    7  N   UNK N   1      34.163  16.828  10.165  0.00  0.00    -0.300 N 
HETATM    8  H   UNK N   1      33.235  16.868  10.586  0.00  0.00     0.173 HD
BRANCH   7   9
HETATM    9  S   UNK N   1      34.566  17.252   8.487  0.00  0.00     0.320 S 
HETATM   10  O   UNK N   1      34.469  18.715   8.024  0.00  0.00    -0.182 OA
HETATM   11  O   UNK N   1      35.423  18.073   9.462  0.00  0.00    -0.182 OA
BRANCH   9  12
HETATM   12  N   UNK N   1      32.827  17.631   8.688  0.00  0.00    -0.249 N 
HETATM   13  C   UNK N   1      31.786  16.843   8.723  0.00  0.00     0.149 C 
ATOM     14  HN  UNK N   1      32.615  18.623   8.792  1.00  0.00     0.182 HD
BRANCH  13  15
HETATM   15  C   UNK N   1      30.426  17.472   8.896  0.00  0.00     0.154 C 
BRANCH  15  16
HETATM   16  C   UNK N   1      29.452  17.264   7.704  0.00  0.00     0.011 C 
HETATM   17  C   UNK N   1      28.346  18.311   7.701  0.00  0.00     0.012 C 
BRANCH  16  18
HETATM   18  C   UNK N   1      30.125  17.256   6.330  0.00  0.00     0.002 C 
HETATM   19  C   UNK N   1      29.895  15.927   5.615  0.00  0.00     0.005 C 
ENDBRANCH  16  18
ENDBRANCH  15  16
BRANCH  15  20
HETATM   20  N   UNK N   1      29.837  17.023  10.148  0.00  0.00    -0.419 N 
HETATM   21  H   UNK N   1      30.055  17.443  11.051  0.00  0.00     0.150 HD
HETATM   22  H   UNK N   1      29.170  16.250  10.121  0.00  0.00     0.150 HD
ENDBRANCH  15  20
ENDBRANCH  13  15
BRANCH  13  23
HETATM   23  O   UNK N   1      31.915  15.504   8.601  0.00  0.00    -0.347 OA
HETATM   24  H   UNK N   1      32.056  14.616   8.338  0.00  0.00     0.219 HD
ENDBRANCH  13  23
ENDBRANCH   9  12
ENDBRANCH   7   9
ENDBRANCH   6   7
ENDBRANCH   1   6
BRANCH   2  25
HETATM   25  O   UNK N   1      33.639  13.905  10.299  0.00  0.00    -0.390 OA
HETATM   26  H   UNK N   1      33.099  14.395   9.659  0.00  0.00     0.210 HD
ENDBRANCH   2  25
BRANCH   3  27
HETATM   27  O   UNK N   1      35.568  11.668  11.283  0.00  0.00    -0.388 OA
HETATM   28  H   UNK N   1      35.932  10.801  11.523  0.00  0.00     0.210 HD
ENDBRANCH   3  27
BRANCH   4  29
HETATM   29  N   UNK N   1      35.763  13.382  14.218  0.00  0.00    -0.297 N 
HETATM   30  C   UNK N   1      34.895  12.471  14.738  0.00  0.00     0.188 A 
HETATM   31  N   UNK N   1      34.751  12.631  16.084  0.00  0.00    -0.346 N 
HETATM   32  C   UNK N   1      35.569  13.656  16.387  0.00  0.00     0.122 A 
ATOM     33  HN  UNK N   1      34.157  12.095  16.718  1.00  0.00     0.167 HD
HETATM   34  C   UNK N   1      35.856  14.229  17.613  0.00  0.00     0.131 A 
HETATM   35  C   UNK N   1      36.167  14.108  15.268  0.00  0.00     0.142 A 
HETATM   36  N   UNK N   1      36.770  15.244  17.646  0.00  0.00    -0.337 N 
HETATM   37  C   UNK N   1      37.378  15.686  16.495  0.00  0.00     0.183 A 
ATOM     38  HN  UNK N   1      37.005  15.682  18.537  1.00  0.00     0.168 HD
HETATM   39  N   UNK N   1      37.074  15.117  15.287  0.00  0.00    -0.336 N 
ATOM     40  HN  UNK N   1      37.516  15.443  14.428  1.00  0.00     0.168 HD
BRANCH  34  41
HETATM   41  N   UNK N   1      35.242  13.776  18.797  0.00  0.00    -0.383 N 
HETATM   42  H   UNK N   1      35.644  13.729  19.696  0.00  0.00     0.157 HD
HETATM   43  H   UNK N   1      34.307  13.474  18.719  0.00  0.00     0.157 HD
ENDBRANCH  34  41
ENDBRANCH   4  29
TORSDOF 13
ENDMDL
MODEL 2
REMARK VINA RESULT:      -7.3      2.178      9.289
REMARK  13 active torsions:
REMARK  status: ('A' for Active; 'I' for Inactive)
REMARK    1  A    between atoms: C_7  and  C_3 
REMARK    2  A    between atoms: C_8  and  C_4 
REMARK    3  A    between atoms: N_25  and  C_4 
REMARK    4  A    between atoms: C_9  and  C_7 
REMARK    5  A    between atoms: C_15  and  C_9 
REMARK    6  A    between atoms: C_9  and  N_17 
REMARK    7  A    between atoms: C_11  and  O_29 
REMARK    8  A    between atoms: C_12  and  O_30 
REMARK    9  A    between atoms: N_18  and  C_13 
REMARK   10  A    between atoms: O_31  and  C_15 
REMARK   11  A    between atoms: C_16  and  N_28 
REMARK   12  A    between atoms: S_35  and  N_25 
REMARK   13  A    between atoms: N_26  and  S_35 
ROOT
HETATM    1  C   UNK N   1      34.067  15.587   9.449  0.00  0.00     0.174 C 
HETATM    2  C   UNK N   1      34.911  16.837   9.539  0.00  0.00     0.181 C 
HETATM    3  C   UNK N   1      34.037  17.805   8.815  0.00  0.00     0.198 C 
HETATM    4  C   UNK N   1      33.316  16.905   7.789  0.00  0.00     0.262 C 
HETATM    5  O   UNK N   1      33.600  15.551   8.121  0.00  0.00    -0.354 OA
ENDROOT
BRANCH   1   6
HETATM    6  C   UNK N   1      34.853  14.323   9.805  0.00  0.00     0.168 C 
BRANCH   6   7
HETATM    7  N   UNK N   1      35.714  14.523  10.973  0.00  0.00    -0.300 N 
HETATM    8  H   UNK N   1      35.589  15.235  11.692  0.00  0.00     0.173 HD
BRANCH   7   9
HETATM    9  S   UNK N   1      37.012  13.309  10.920  0.00  0.00     0.320 S 
HETATM   10  O   UNK N   1      36.789  11.924  11.548  0.00  0.00    -0.182 OA
HETATM   11  O   UNK N   1      35.732  12.746  10.285  0.00  0.00    -0.182 OA
BRANCH   9  12
HETATM   12  N   UNK N   1      36.755  13.683  12.653  0.00  0.00    -0.249 N 
HETATM   13  C   UNK N   1      35.722  13.472  13.422  0.00  0.00     0.149 C 
ATOM     14  HN  UNK N   1      37.545  14.135  13.114  1.00  0.00     0.182 HD
BRANCH  13  15
HETATM   15  C   UNK N   1      35.805  13.918  14.861  0.00  0.00     0.154 C 
BRANCH  15  16
HETATM   16  C   UNK N   1      35.361  12.855  15.903  0.00  0.00     0.011 C 
HETATM   17  C   UNK N   1      36.301  11.657  15.910  0.00  0.00     0.012 C 
BRANCH  16  18
HETATM   18  C   UNK N   1      35.230  13.386  17.332  0.00  0.00     0.002 C 
HETATM   19  C   UNK N   1      35.252  12.243  18.345  0.00  0.00     0.005 C 
ENDBRANCH  16  18
ENDBRANCH  15  16
BRANCH  15  20
HETATM   20  N   UNK N   1      37.144  14.410  15.142  0.00  0.00    -0.419 N 
HETATM   21  H   UNK N   1      37.412  14.826  16.034  0.00  0.00     0.150 HD
HETATM   22  H   UNK N   1      37.853  14.334  14.411  0.00  0.00     0.150 HD
ENDBRANCH  15  20
ENDBRANCH  13  15
BRANCH  13  23
HETATM   23  O   UNK N   1      34.604  12.879  12.948  0.00  0.00    -0.347 OA
HETATM   24  H   UNK N   1      33.794  12.433  12.803  0.00  0.00     0.219 HD
ENDBRANCH  13  23
ENDBRANCH   9  12
ENDBRANCH   7   9
ENDBRANCH   6   7
ENDBRANCH   1   6
BRANCH   2  25
HETATM   25  O   UNK N   1      35.168  17.229  10.857  0.00  0.00    -0.390 OA
HETATM   26  H   UNK N   1      34.825  17.837  11.530  0.00  0.00     0.210 HD
ENDBRANCH   2  25
BRANCH   3  27
HETATM   27  O   UNK N   1      34.793  18.810   8.201  0.00  0.00    -0.388 OA
HETATM   28  H   UNK N   1      35.627  18.933   7.721  0.00  0.00     0.210 HD
ENDBRANCH   3  27
BRANCH   4  29
HETATM   29  N   UNK N   1      31.860  17.123   7.825  0.00  0.00    -0.297 N 
HETATM   30  C   UNK N   1      31.200  18.012   8.617  0.00  0.00     0.188 A 
HETATM   31  N   UNK N   1      29.859  17.992   8.380  0.00  0.00    -0.346 N 
HETATM   32  C   UNK N   1      29.707  17.078   7.404  0.00  0.00     0.122 A 
ATOM     33  HN  UNK N   1      29.134  18.545   8.839  1.00  0.00     0.167 HD
HETATM   34  C   UNK N   1      28.563  16.671   6.741  0.00  0.00     0.131 A 
HETATM   35  C   UNK N   1      30.904  16.554   7.079  0.00  0.00     0.142 A 
HETATM   36  N   UNK N   1      28.697  15.744   5.745  0.00  0.00    -0.337 N 
HETATM   37  C   UNK N   1      29.929  15.228   5.421  0.00  0.00     0.183 A 
ATOM     38  HN  UNK N   1      27.870  15.429   5.236  1.00  0.00     0.168 HD
HETATM   39  N   UNK N   1      31.050  15.631   6.095  0.00  0.00    -0.336 N 
ATOM     40  HN  UNK N   1      31.967  15.249   5.865  1.00  0.00     0.168 HD
BRANCH  34  41
HETATM   41  N   UNK N   1      27.298  17.201   7.064  0.00  0.00    -0.383 N 
HETATM   42  H   UNK N   1      26.535  17.334   6.454  0.00  0.00     0.157 HD
HETATM   43  H   UNK N   1      27.161  17.469   8.002  0.00  0.00     0.157 HD
ENDBRANCH  34  41
ENDBRANCH   4  29
TORSDOF 13
ENDMDL
MODEL 3
REMARK VINA RESULT:      -7.2     11.771     14.395
REMARK  13 active torsions:
REMARK  status: ('A' for Active; 'I' for Inactive)
REMARK    1  A    between atoms: C_7  and  C_3 
REMARK    2  A    between atoms: C_8  and  C_4 
REMARK    3  A    between atoms: N_25  and  C_4 
REMARK    4  A    between atoms: C_9  and  C_7 
REMARK    5  A    between atoms: C_15  and  C_9 
REMARK    6  A    between atoms: C_9  and  N_17 
REMARK    7  A    between atoms: C_11  and  O_29 
REMARK    8  A    between atoms: C_12  and  O_30 
REMARK    9  A    between atoms: N_18  and  C_13 
REMARK   10  A    between atoms: O_31  and  C_15 
REMARK   11  A    between atoms: C_16  and  N_28 
REMARK   12  A    between atoms: S_35  and  N_25 
REMARK   13  A    between atoms: N_26  and  S_35 
ROOT
HETATM    1  C   UNK N   1      21.703  16.751   6.635  0.00  0.00     0.174 C 
HETATM    2  C   UNK N   1      20.409  17.407   7.059  0.00  0.00     0.181 C 
HETATM    3  C   UNK N   1      19.942  16.439   8.093  0.00  0.00     0.198 C 
HETATM    4  C   UNK N   1      20.503  15.097   7.576  0.00  0.00     0.262 C 
HETATM    5  O   UNK N   1      21.399  15.382   6.507  0.00  0.00    -0.354 OA
ENDROOT
BRANCH   1   6
HETATM    6  C   UNK N   1      22.254  17.331   5.331  0.00  0.00     0.168 C 
BRANCH   6   7
HETATM    7  N   UNK N   1      21.198  17.909   4.497  0.00  0.00    -0.300 N 
HETATM    8  H   UNK N   1      20.237  17.573   4.434  0.00  0.00     0.173 HD
BRANCH   7   9
HETATM    9  S   UNK N   1      21.881  19.293   3.615  0.00  0.00     0.320 S 
HETATM   10  O   UNK N   1      20.970  20.162   2.734  0.00  0.00    -0.182 OA
HETATM   11  O   UNK N   1      20.723  19.754   4.512  0.00  0.00    -0.182 OA
BRANCH   9  12
HETATM   12  N   UNK N   1      21.305  18.146   2.365  0.00  0.00    -0.249 N 
HETATM   13  C   UNK N   1      20.095  17.759   2.062  0.00  0.00     0.149 C 
ATOM     14  HN  UNK N   1      22.042  17.725   1.799  1.00  0.00     0.182 HD
BRANCH  13  15
HETATM   15  C   UNK N   1      19.929  16.755   0.949  0.00  0.00     0.154 C 
BRANCH  15  16
HETATM   16  C   UNK N   1      20.152  15.275   1.363  0.00  0.00     0.011 C 
HETATM   17  C   UNK N   1      19.149  14.351   0.685  0.00  0.00     0.012 C 
BRANCH  16  18
HETATM   18  C   UNK N   1      21.563  14.748   1.096  0.00  0.00     0.002 C 
HETATM   19  C   UNK N   1      22.374  14.675   2.387  0.00  0.00     0.005 C 
ENDBRANCH  16  18
ENDBRANCH  15  16
BRANCH  15  20
HETATM   20  N   UNK N   1      18.633  16.940   0.315  0.00  0.00    -0.419 N 
HETATM   21  H   UNK N   1      17.912  17.559   0.685  0.00  0.00     0.150 HD
HETATM   22  H   UNK N   1      18.436  16.426  -0.545  0.00  0.00     0.150 HD
ENDBRANCH  15  20
ENDBRANCH  13  15
BRANCH  13  23
HETATM   23  O   UNK N   1      19.019  18.234   2.727  0.00  0.00    -0.347 OA
HETATM   24  H   UNK N   1      18.179  18.512   3.032  0.00  0.00     0.219 HD
ENDBRANCH  13  23
ENDBRANCH   9  12
ENDBRANCH   7   9
ENDBRANCH   6   7
ENDBRANCH   1   6
BRANCH   2  25
HETATM   25  O   UNK N   1      20.593  18.694   7.574  0.00  0.00    -0.390 OA
HETATM   26  H   UNK N   1      20.084  19.500   7.756  0.00  0.00     0.210 HD
ENDBRANCH   2  25
BRANCH   3  27
HETATM   27  O   UNK N   1      18.546  16.430   8.185  0.00  0.00    -0.388 OA
HETATM   28  H   UNK N   1      17.783  15.870   7.968  0.00  0.00     0.210 HD
ENDBRANCH   3  27
BRANCH   4  29
HETATM   29  N   UNK N   1      21.226  14.381   8.641  0.00  0.00    -0.297 N 
HETATM   30  C   UNK N   1      20.699  13.951   9.821  0.00  0.00     0.188 A 
HETATM   31  N   UNK N   1      21.625  13.289  10.569  0.00  0.00    -0.346 N 
HETATM   32  C   UNK N   1      22.738  13.304   9.812  0.00  0.00     0.122 A 
ATOM     33  HN  UNK N   1      21.503  12.876  11.494  1.00  0.00     0.167 HD
HETATM   34  C   UNK N   1      23.981  12.746  10.051  0.00  0.00     0.131 A 
HETATM   35  C   UNK N   1      22.499  13.964   8.663  0.00  0.00     0.142 A 
HETATM   36  N   UNK N   1      24.937  12.874   9.082  0.00  0.00    -0.337 N 
HETATM   37  C   UNK N   1      24.671  13.543   7.912  0.00  0.00     0.183 A 
ATOM     38  HN  UNK N   1      25.861  12.468   9.231  1.00  0.00     0.168 HD
HETATM   39  N   UNK N   1      23.440  14.101   7.695  0.00  0.00    -0.336 N 
ATOM     40  HN  UNK N   1      23.236  14.604   6.831  1.00  0.00     0.168 HD
BRANCH  34  41
HETATM   41  N   UNK N   1      24.258  12.053  11.247  0.00  0.00    -0.383 N 
HETATM   42  H   UNK N   1      25.102  12.057  11.755  0.00  0.00     0.157 HD
HETATM   43  H   UNK N   1      23.527  11.504  11.614  0.00  0.00     0.157 HD
ENDBRANCH  34  41
ENDBRANCH   4  29
TORSDOF 13
ENDMDL
MODEL 4
REMARK VINA RESULT:      -7.2      2.741      9.383
REMARK  13 active torsions:
REMARK  status: ('A' for Active; 'I' for Inactive)
REMARK    1  A    between atoms: C_7  and  C_3 
REMARK    2  A    between atoms: C_8  and  C_4 
REMARK    3  A    between atoms: N_25  and  C_4 
REMARK    4  A    between atoms: C_9  and  C_7 
REMARK    5  A    between atoms: C_15  and  C_9 
REMARK    6  A    between atoms: C_9  and  N_17 
REMARK    7  A    between atoms: C_11  and  O_29 
REMARK    8  A    between atoms: C_12  and  O_30 
REMARK    9  A    between atoms: N_18  and  C_13 
REMARK   10  A    between atoms: O_31  and  C_15 
REMARK   11  A    between atoms: C_16  and  N_28 
REMARK   12  A    between atoms: S_35  and  N_25 
REMARK   13  A    between atoms: N_26  and  S_35 
ROOT
HETATM    1  C   UNK N   1      33.793  14.136   9.037  0.00  0.00     0.174 C 
HETATM    2  C   UNK N   1      34.266  15.084  10.115  0.00  0.00     0.181 C 
HETATM    3  C   UNK N   1      33.813  16.387   9.546  0.00  0.00     0.198 C 
HETATM    4  C   UNK N   1      33.910  16.141   8.025  0.00  0.00     0.262 C 
HETATM    5  O   UNK N   1      34.146  14.753   7.822  0.00  0.00    -0.354 OA
ENDROOT
BRANCH   1   6
HETATM    6  C   UNK N   1      34.416  12.745   9.167  0.00  0.00     0.168 C 
BRANCH   6   7
HETATM    7  N   UNK N   1      34.098  12.117  10.452  0.00  0.00    -0.300 N 
HETATM    8  H   UNK N   1      33.256  12.281  11.004  0.00  0.00     0.173 HD
BRANCH   7   9
HETATM    9  S   UNK N   1      35.432  11.024  10.881  0.00  0.00     0.320 S 
HETATM   10  O   UNK N   1      35.389  10.251  12.209  0.00  0.00    -0.182 OA
HETATM   11  O   UNK N   1      34.097  10.265  10.897  0.00  0.00    -0.182 OA
BRANCH   9  12
HETATM   12  N   UNK N   1      35.443  12.325  12.113  0.00  0.00    -0.249 N 
HETATM   13  C   UNK N   1      36.418  12.792  12.845  0.00  0.00     0.149 C 
ATOM     14  HN  UNK N   1      34.540  12.774  12.268  1.00  0.00     0.182 HD
BRANCH  13  15
HETATM   15  C   UNK N   1      36.107  13.902  13.818  0.00  0.00     0.154 C 
BRANCH  15  16
HETATM   16  C   UNK N   1      36.813  13.783  15.195  0.00  0.00     0.011 C 
HETATM   17  C   UNK N   1      37.256  15.145  15.713  0.00  0.00     0.012 C 
BRANCH  16  18
HETATM   18  C   UNK N   1      35.980  13.093  16.278  0.00  0.00     0.002 C 
HETATM   19  C   UNK N   1      34.522  12.958  15.844  0.00  0.00     0.005 C 
ENDBRANCH  16  18
ENDBRANCH  15  16
BRANCH  15  20
HETATM   20  N   UNK N   1      36.374  15.188  13.193  0.00  0.00    -0.419 N 
HETATM   21  H   UNK N   1      35.716  15.966  13.211  0.00  0.00     0.150 HD
HETATM   22  H   UNK N   1      37.266  15.318  12.714  0.00  0.00     0.150 HD
ENDBRANCH  15  20
ENDBRANCH  13  15
BRANCH  13  23
HETATM   23  O   UNK N   1      37.671  12.295  12.744  0.00  0.00    -0.347 OA
HETATM   24  H   UNK N   1      38.515  11.980  12.489  0.00  0.00     0.219 HD
ENDBRANCH  13  23
ENDBRANCH   9  12
ENDBRANCH   7   9
ENDBRANCH   6   7
ENDBRANCH   1   6
BRANCH   2  25
HETATM   25  O   UNK N   1      33.696  14.818  11.364  0.00  0.00    -0.390 OA
HETATM   26  H   UNK N   1      33.531  14.071  11.960  0.00  0.00     0.210 HD
ENDBRANCH   2  25
BRANCH   3  27
HETATM   27  O   UNK N   1      34.636  17.437   9.967  0.00  0.00    -0.388 OA
HETATM   28  H   UNK N   1      34.631  18.403  10.060  0.00  0.00     0.210 HD
ENDBRANCH   3  27
BRANCH   4  29
HETATM   29  N   UNK N   1      32.662  16.529   7.346  0.00  0.00    -0.297 N 
HETATM   30  C   UNK N   1      31.454  16.730   7.940  0.00  0.00     0.188 A 
HETATM   31  N   UNK N   1      30.512  17.118   7.035  0.00  0.00    -0.346 N 
HETATM   32  C   UNK N   1      31.175  17.171   5.866  0.00  0.00     0.122 A 
ATOM     33  HN  UNK N   1      29.527  17.322   7.206  1.00  0.00     0.167 HD
HETATM   34  C   UNK N   1      30.730  17.545   4.610  0.00  0.00     0.131 A 
HETATM   35  C   UNK N   1      32.459  16.812   6.052  0.00  0.00     0.142 A 
HETATM   36  N   UNK N   1      31.636  17.551   3.586  0.00  0.00    -0.337 N 
HETATM   37  C   UNK N   1      32.945  17.190   3.799  0.00  0.00     0.183 A 
ATOM     38  HN  UNK N   1      31.336  17.826   2.650  1.00  0.00     0.168 HD
HETATM   39  N   UNK N   1      33.367  16.811   5.044  0.00  0.00    -0.336 N 
ATOM     40  HN  UNK N   1      34.335  16.536   5.209  1.00  0.00     0.168 HD
BRANCH  34  41
HETATM   41  N   UNK N   1      29.391  17.922   4.387  0.00  0.00    -0.383 N 
HETATM   42  H   UNK N   1      28.582  17.417   4.633  0.00  0.00     0.157 HD
HETATM   43  H   UNK N   1      29.248  18.785   3.934  0.00  0.00     0.157 HD
ENDBRANCH  34  41
ENDBRANCH   4  29
TORSDOF 13
ENDMDL
MODEL 5
REMARK VINA RESULT:      -7.1      2.621      4.127
REMARK  13 active torsions:
REMARK  status: ('A' for Active; 'I' for Inactive)
REMARK    1  A    between atoms: C_7  and  C_3 
REMARK    2  A    between atoms: C_8  and  C_4 
REMARK    3  A    between atoms: N_25  and  C_4 
REMARK    4  A    between atoms: C_9  and  C_7 
REMARK    5  A    between atoms: C_15  and  C_9 
REMARK    6  A    between atoms: C_9  and  N_17 
REMARK    7  A    between atoms: C_11  and  O_29 
REMARK    8  A    between atoms: C_12  and  O_30 
REMARK    9  A    between atoms: N_18  and  C_13 
REMARK   10  A    between atoms: O_31  and  C_15 
REMARK   11  A    between atoms: C_16  and  N_28 
REMARK   12  A    between atoms: S_35  and  N_25 
REMARK   13  A    between atoms: N_26  and  S_35 
ROOT
HETATM    1  C   UNK N   1      34.950  14.592  10.972  0.00  0.00     0.174 C 
HETATM    2  C   UNK N   1      35.857  15.512  11.756  0.00  0.00     0.181 C 
HETATM    3  C   UNK N   1      36.458  14.543  12.718  0.00  0.00     0.198 C 
HETATM    4  C   UNK N   1      35.325  13.513  12.909  0.00  0.00     0.262 C 
HETATM    5  O   UNK N   1      34.321  13.782  11.937  0.00  0.00    -0.354 OA
ENDROOT
BRANCH   1   6
HETATM    6  C   UNK N   1      33.931  15.356  10.125  0.00  0.00     0.168 C 
BRANCH   6   7
HETATM    7  N   UNK N   1      34.217  16.792  10.083  0.00  0.00    -0.300 N 
HETATM    8  H   UNK N   1      34.357  17.396  10.892  0.00  0.00     0.173 HD
BRANCH   7   9
HETATM    9  S   UNK N   1      34.277  17.297   8.380  0.00  0.00     0.320 S 
HETATM   10  O   UNK N   1      34.003  18.763   8.008  0.00  0.00    -0.182 OA
HETATM   11  O   UNK N   1      35.244  18.145   9.219  0.00  0.00    -0.182 OA
BRANCH   9  12
HETATM   12  N   UNK N   1      32.583  17.544   8.910  0.00  0.00    -0.249 N 
HETATM   13  C   UNK N   1      31.474  17.571   8.222  0.00  0.00     0.149 C 
ATOM     14  HN  UNK N   1      32.467  17.688   9.913  1.00  0.00     0.182 HD
BRANCH  13  15
HETATM   15  C   UNK N   1      30.185  17.817   8.964  0.00  0.00     0.154 C 
BRANCH  15  16
HETATM   16  C   UNK N   1      28.903  17.753   8.089  0.00  0.00     0.011 C 
HETATM   17  C   UNK N   1      27.756  17.082   8.832  0.00  0.00     0.012 C 
BRANCH  16  18
HETATM   18  C   UNK N   1      28.423  19.110   7.568  0.00  0.00     0.002 C 
HETATM   19  C   UNK N   1      27.998  19.015   6.105  0.00  0.00     0.005 C 
ENDBRANCH  16  18
ENDBRANCH  15  16
BRANCH  15  20
HETATM   20  N   UNK N   1      30.096  16.914  10.101  0.00  0.00    -0.419 N 
HETATM   21  H   UNK N   1      30.909  16.606  10.635  0.00  0.00     0.150 HD
HETATM   22  H   UNK N   1      29.176  16.573  10.379  0.00  0.00     0.150 HD
ENDBRANCH  15  20
ENDBRANCH  13  15
BRANCH  13  23
HETATM   23  O   UNK N   1      31.476  17.394   6.882  0.00  0.00    -0.347 OA
HETATM   24  H   UNK N   1      31.334  17.150   5.989  0.00  0.00     0.219 HD
ENDBRANCH  13  23
ENDBRANCH   9  12
ENDBRANCH   7   9
ENDBRANCH   6   7
ENDBRANCH   1   6
BRANCH   2  25
HETATM   25  O   UNK N   1      36.818  16.142  10.959  0.00  0.00    -0.390 OA
HETATM   26  H   UNK N   1      37.565  16.755  11.042  0.00  0.00     0.210 HD
ENDBRANCH   2  25
BRANCH   3  27
HETATM   27  O   UNK N   1      36.810  15.173  13.917  0.00  0.00    -0.388 OA
HETATM   28  H   UNK N   1      36.466  15.817  14.556  0.00  0.00     0.210 HD
ENDBRANCH   3  27
BRANCH   4  29
HETATM   29  N   UNK N   1      35.824  12.139  12.729  0.00  0.00    -0.297 N 
HETATM   30  C   UNK N   1      37.048  11.673  13.102  0.00  0.00     0.188 A 
HETATM   31  N   UNK N   1      37.182  10.346  12.827  0.00  0.00    -0.346 N 
HETATM   32  C   UNK N   1      35.999   9.996  12.290  0.00  0.00     0.122 A 
ATOM     33  HN  UNK N   1      37.995   9.752  12.992  1.00  0.00     0.167 HD
HETATM   34  C   UNK N   1      35.552   8.760  11.858  0.00  0.00     0.131 A 
HETATM   35  C   UNK N   1      35.191  11.071  12.225  0.00  0.00     0.142 A 
HETATM   36  N   UNK N   1      34.272   8.671  11.387  0.00  0.00    -0.337 N 
HETATM   37  C   UNK N   1      33.459   9.779  11.338  0.00  0.00     0.183 A 
ATOM     38  HN  UNK N   1      33.915   7.771  11.066  1.00  0.00     0.168 HD
HETATM   39  N   UNK N   1      33.920  10.998  11.757  0.00  0.00    -0.336 N 
ATOM     40  HN  UNK N   1      33.325  11.825  11.718  1.00  0.00     0.168 HD
BRANCH  34  41
HETATM   41  N   UNK N   1      36.378   7.620  11.912  0.00  0.00    -0.383 N 
HETATM   42  H   UNK N   1      36.110   6.701  12.149  0.00  0.00     0.157 HD
HETATM   43  H   UNK N   1      37.328   7.755  11.689  0.00  0.00     0.157 HD
ENDBRANCH  34  41
ENDBRANCH   4  29
TORSDOF 13
ENDMDL
MODEL 6
REMARK VINA RESULT:      -7.1      3.203     10.008
REMARK  13 active torsions:
REMARK  status: ('A' for Active; 'I' for Inactive)
REMARK    1  A    between atoms: C_7  and  C_3 
REMARK    2  A    between atoms: C_8  and  C_4 
REMARK    3  A    between atoms: N_25  and  C_4 
REMARK    4  A    between atoms: C_9  and  C_7 
REMARK    5  A    between atoms: C_15  and  C_9 
REMARK    6  A    between atoms: C_9  and  N_17 
REMARK    7  A    between atoms: C_11  and  O_29 
REMARK    8  A    between atoms: C_12  and  O_30 
REMARK    9  A    between atoms: N_18  and  C_13 
REMARK   10  A    between atoms: O_31  and  C_15 
REMARK   11  A    between atoms: C_16  and  N_28 
REMARK   12  A    between atoms: S_35  and  N_25 
REMARK   13  A    between atoms: N_26  and  S_35 
ROOT
HETATM    1  C   UNK N   1      31.984  16.499   6.538  0.00  0.00     0.174 C 
HETATM    2  C   UNK N   1      32.411  16.936   5.156  0.00  0.00     0.181 C 
HETATM    3  C   UNK N   1      31.158  17.597   4.684  0.00  0.00     0.198 C 
HETATM    4  C   UNK N   1      30.060  16.794   5.412  0.00  0.00     0.262 C 
HETATM    5  O   UNK N   1      30.694  15.958   6.373  0.00  0.00    -0.354 OA
ENDROOT
BRANCH   1   6
HETATM    6  C   UNK N   1      32.949  15.483   7.153  0.00  0.00     0.168 C 
BRANCH   6   7
HETATM    7  N   UNK N   1      34.238  16.086   7.495  0.00  0.00    -0.300 N 
HETATM    8  H   UNK N   1      35.122  15.920   7.013  0.00  0.00     0.173 HD
BRANCH   7   9
HETATM    9  S   UNK N   1      33.998  17.155   8.895  0.00  0.00     0.320 S 
HETATM   10  O   UNK N   1      35.214  17.676   9.676  0.00  0.00    -0.182 OA
HETATM   11  O   UNK N   1      34.918  17.827   7.866  0.00  0.00    -0.182 OA
BRANCH   9  12
HETATM   12  N   UNK N   1      34.743  15.658   9.538  0.00  0.00    -0.249 N 
HETATM   13  C   UNK N   1      34.329  14.834  10.463  0.00  0.00     0.149 C 
ATOM     14  HN  UNK N   1      35.636  15.409   9.113  1.00  0.00     0.182 HD
BRANCH  13  15
HETATM   15  C   UNK N   1      35.199  13.648  10.797  0.00  0.00     0.154 C 
BRANCH  15  16
HETATM   16  C   UNK N   1      36.296  13.920  11.861  0.00  0.00     0.011 C 
HETATM   17  C   UNK N   1      35.717  13.922  13.270  0.00  0.00     0.012 C 
BRANCH  16  18
HETATM   18  C   UNK N   1      37.477  12.947  11.818  0.00  0.00     0.002 C 
HETATM   19  C   UNK N   1      38.147  12.961  10.446  0.00  0.00     0.005 C 
ENDBRANCH  16  18
ENDBRANCH  15  16
BRANCH  15  20
HETATM   20  N   UNK N   1      34.362  12.520  11.174  0.00  0.00    -0.419 N 
HETATM   21  H   UNK N   1      33.363  12.602  11.363  0.00  0.00     0.150 HD
HETATM   22  H   UNK N   1      34.795  11.599  11.252  0.00  0.00     0.150 HD
ENDBRANCH  15  20
ENDBRANCH  13  15
BRANCH  13  23
HETATM   23  O   UNK N   1      33.161  15.036  11.111  0.00  0.00    -0.347 OA
HETATM   24  H   UNK N   1      32.451  15.130  11.714  0.00  0.00     0.219 HD
ENDBRANCH  13  23
ENDBRANCH   9  12
ENDBRANCH   7   9
ENDBRANCH   6   7
ENDBRANCH   1   6
BRANCH   2  25
HETATM   25  O   UNK N   1      33.503  17.809   5.172  0.00  0.00    -0.390 OA
HETATM   26  H   UNK N   1      34.205  18.130   4.584  0.00  0.00     0.210 HD
ENDBRANCH   2  25
BRANCH   3  27
HETATM   27  O   UNK N   1      31.038  17.520   3.292  0.00  0.00    -0.388 OA
HETATM   28  H   UNK N   1      30.833  16.881   2.591  0.00  0.00     0.210 HD
ENDBRANCH   3  27
BRANCH   4  29
HETATM   29  N   UNK N   1      29.112  17.691   6.094  0.00  0.00    -0.297 N 
HETATM   30  C   UNK N   1      28.886  17.751   7.435  0.00  0.00     0.188 A 
HETATM   31  N   UNK N   1      27.975  18.716   7.745  0.00  0.00    -0.346 N 
HETATM   32  C   UNK N   1      27.657  19.267   6.559  0.00  0.00     0.122 A 
ATOM     33  HN  UNK N   1      27.616  18.964   8.667  1.00  0.00     0.167 HD
HETATM   34  C   UNK N   1      26.808  20.320   6.270  0.00  0.00     0.131 A 
HETATM   35  C   UNK N   1      28.333  18.648   5.572  0.00  0.00     0.142 A 
HETATM   36  N   UNK N   1      26.697  20.713   4.965  0.00  0.00    -0.337 N 
HETATM   37  C   UNK N   1      27.403  20.075   3.973  0.00  0.00     0.183 A 
ATOM     38  HN  UNK N   1      26.082  21.490   4.724  1.00  0.00     0.168 HD
HETATM   39  N   UNK N   1      28.230  19.026   4.273  0.00  0.00    -0.336 N 
ATOM     40  HN  UNK N   1      28.752  18.544   3.542  1.00  0.00     0.168 HD
BRANCH  34  41
HETATM   41  N   UNK N   1      26.087  20.982   7.283  0.00  0.00    -0.383 N 
HETATM   42  H   UNK N   1      26.402  21.725   7.849  0.00  0.00     0.157 HD
HETATM   43  H   UNK N   1      25.167  20.668   7.444  0.00  0.00     0.157 HD
ENDBRANCH  34  41
ENDBRANCH   4  29
TORSDOF 13
ENDMDL
MODEL 7
REMARK VINA RESULT:      -7.0      3.324      5.796
REMARK  13 active torsions:
REMARK  status: ('A' for Active; 'I' for Inactive)
REMARK    1  A    between atoms: C_7  and  C_3 
REMARK    2  A    between atoms: C_8  and  C_4 
REMARK    3  A    between atoms: N_25  and  C_4 
REMARK    4  A    between atoms: C_9  and  C_7 
REMARK    5  A    between atoms: C_15  and  C_9 
REMARK    6  A    between atoms: C_9  and  N_17 
REMARK    7  A    between atoms: C_11  and  O_29 
REMARK    8  A    between atoms: C_12  and  O_30 
REMARK    9  A    between atoms: N_18  and  C_13 
REMARK   10  A    between atoms: O_31  and  C_15 
REMARK   11  A    between atoms: C_16  and  N_28 
REMARK   12  A    between atoms: S_35  and  N_25 
REMARK   13  A    between atoms: N_26  and  S_35 
ROOT
HETATM    1  C   UNK N   1      32.733  16.552   7.753  0.00  0.00     0.174 C 
HETATM    2  C   UNK N   1      33.389  17.864   7.391  0.00  0.00     0.181 C 
HETATM    3  C   UNK N   1      34.692  17.719   8.104  0.00  0.00     0.198 C 
HETATM    4  C   UNK N   1      34.313  16.854   9.325  0.00  0.00     0.262 C 
HETATM    5  O   UNK N   1      32.987  16.378   9.127  0.00  0.00    -0.354 OA
ENDROOT
BRANCH   1   6
HETATM    6  C   UNK N   1      31.233  16.545   7.450  0.00  0.00     0.168 C 
BRANCH   6   7
HETATM    7  N   UNK N   1      30.955  16.839   6.043  0.00  0.00    -0.300 N 
HETATM    8  H   UNK N   1      31.242  17.679   5.540  0.00  0.00     0.173 HD
BRANCH   7   9
HETATM    9  S   UNK N   1      30.032  15.481   5.363  0.00  0.00     0.320 S 
HETATM   10  O   UNK N   1      29.285  15.655   4.031  0.00  0.00    -0.182 OA
HETATM   11  O   UNK N   1      31.069  15.979   4.346  0.00  0.00    -0.182 OA
BRANCH   9  12
HETATM   12  N   UNK N   1      28.832  16.759   5.732  0.00  0.00    -0.249 N 
HETATM   13  C   UNK N   1      28.670  17.946   5.211  0.00  0.00     0.149 C 
ATOM     14  HN  UNK N   1      28.167  16.522   6.468  1.00  0.00     0.182 HD
BRANCH  13  15
HETATM   15  C   UNK N   1      27.559  18.811   5.751  0.00  0.00     0.154 C 
BRANCH  15  16
HETATM   16  C   UNK N   1      27.461  20.224   5.114  0.00  0.00     0.011 C 
HETATM   17  C   UNK N   1      26.185  20.379   4.297  0.00  0.00     0.012 C 
BRANCH  16  18
HETATM   18  C   UNK N   1      27.546  21.378   6.116  0.00  0.00     0.002 C 
HETATM   19  C   UNK N   1      26.371  21.346   7.089  0.00  0.00     0.005 C 
ENDBRANCH  16  18
ENDBRANCH  15  16
BRANCH  15  20
HETATM   20  N   UNK N   1      26.295  18.097   5.656  0.00  0.00    -0.419 N 
HETATM   21  H   UNK N   1      25.461  18.492   5.222  0.00  0.00     0.150 HD
HETATM   22  H   UNK N   1      26.241  17.154   6.042  0.00  0.00     0.150 HD
ENDBRANCH  15  20
ENDBRANCH  13  15
BRANCH  13  23
HETATM   23  O   UNK N   1      29.476  18.395   4.225  0.00  0.00    -0.347 OA
HETATM   24  H   UNK N   1      29.890  18.659   3.427  0.00  0.00     0.219 HD
ENDBRANCH  13  23
ENDBRANCH   9  12
ENDBRANCH   7   9
ENDBRANCH   6   7
ENDBRANCH   1   6
BRANCH   2  25
HETATM   25  O   UNK N   1      33.549  18.032   6.012  0.00  0.00    -0.390 OA
HETATM   26  H   UNK N   1      33.489  18.727   5.338  0.00  0.00     0.210 HD
ENDBRANCH   2  25
BRANCH   3  27
HETATM   27  O   UNK N   1      35.207  18.966   8.476  0.00  0.00    -0.388 OA
HETATM   28  H   UNK N   1      35.705  19.713   8.107  0.00  0.00     0.210 HD
ENDBRANCH   3  27
BRANCH   4  29
HETATM   29  N   UNK N   1      35.227  15.709   9.466  0.00  0.00    -0.297 N 
HETATM   30  C   UNK N   1      35.812  15.018   8.449  0.00  0.00     0.188 A 
HETATM   31  N   UNK N   1      36.634  14.038   8.918  0.00  0.00    -0.346 N 
HETATM   32  C   UNK N   1      36.557  14.152  10.257  0.00  0.00     0.122 A 
ATOM     33  HN  UNK N   1      37.182  13.368   8.378  1.00  0.00     0.167 HD
HETATM   34  C   UNK N   1      37.212  13.442  11.247  0.00  0.00     0.131 A 
HETATM   35  C   UNK N   1      35.710  15.147  10.582  0.00  0.00     0.142 A 
HETATM   36  N   UNK N   1      36.982  13.795  12.547  0.00  0.00    -0.337 N 
HETATM   37  C   UNK N   1      36.121  14.820  12.859  0.00  0.00     0.183 A 
ATOM     38  HN  UNK N   1      37.455  13.291  13.297  1.00  0.00     0.168 HD
HETATM   39  N   UNK N   1      35.471  15.507  11.869  0.00  0.00    -0.336 N 
ATOM     40  HN  UNK N   1      34.826  16.264  12.092  1.00  0.00     0.168 HD
BRANCH  34  41
HETATM   41  N   UNK N   1      38.100  12.394  10.934  0.00  0.00    -0.383 N 
HETATM   42  H   UNK N   1      38.102  11.483  11.309  0.00  0.00     0.157 HD
HETATM   43  H   UNK N   1      38.797  12.594  10.267  0.00  0.00     0.157 HD
ENDBRANCH  34  41
ENDBRANCH   4  29
TORSDOF 13
ENDMDL
MODEL 8
REMARK VINA RESULT:      -7.0      3.482      9.507
REMARK  13 active torsions:
REMARK  status: ('A' for Active; 'I' for Inactive)
REMARK    1  A    between atoms: C_7  and  C_3 
REMARK    2  A    between atoms: C_8  and  C_4 
REMARK    3  A    between atoms: N_25  and  C_4 
REMARK    4  A    between atoms: C_9  and  C_7 
REMARK    5  A    between atoms: C_15  and  C_9 
REMARK    6  A    between atoms: C_9  and  N_17 
REMARK    7  A    between atoms: C_11  and  O_29 
REMARK    8  A    between atoms: C_12  and  O_30 
REMARK    9  A    between atoms: N_18  and  C_13 
REMARK   10  A    between atoms: O_31  and  C_15 
REMARK   11  A    between atoms: C_16  and  N_28 
REMARK   12  A    between atoms: S_35  and  N_25 
REMARK   13  A    between atoms: N_26  and  S_35 
ROOT
HETATM    1  C   UNK N   1      32.040  16.735   6.221  0.00  0.00     0.174 C 
HETATM    2  C   UNK N   1      32.559  16.919   4.813  0.00  0.00     0.181 C 
HETATM    3  C   UNK N   1      31.364  17.533   4.163  0.00  0.00     0.198 C 
HETATM    4  C   UNK N   1      30.193  16.901   4.947  0.00  0.00     0.262 C 
HETATM    5  O   UNK N   1      30.738  16.219   6.070  0.00  0.00    -0.354 OA
ENDROOT
BRANCH   1   6
HETATM    6  C   UNK N   1      32.924  15.805   7.054  0.00  0.00     0.168 C 
BRANCH   6   7
HETATM    7  N   UNK N   1      34.241  16.388   7.316  0.00  0.00    -0.300 N 
HETATM    8  H   UNK N   1      35.118  16.101   6.882  0.00  0.00     0.173 HD
BRANCH   7   9
HETATM    9  S   UNK N   1      34.046  17.679   8.522  0.00  0.00     0.320 S 
HETATM   10  O   UNK N   1      35.285  18.400   9.077  0.00  0.00    -0.182 OA
HETATM   11  O   UNK N   1      34.824  18.202   7.306  0.00  0.00    -0.182 OA
BRANCH   9  12
HETATM   12  N   UNK N   1      34.949  16.367   9.344  0.00  0.00    -0.249 N 
HETATM   13  C   UNK N   1      35.329  16.249  10.587  0.00  0.00     0.149 C 
ATOM     14  HN  UNK N   1      35.209  15.586   8.742  1.00  0.00     0.182 HD
BRANCH  13  15
HETATM   15  C   UNK N   1      36.098  15.013  10.979  0.00  0.00     0.154 C 
BRANCH  15  16
HETATM   16  C   UNK N   1      35.284  13.691  10.928  0.00  0.00     0.011 C 
HETATM   17  C   UNK N   1      35.771  12.782   9.808  0.00  0.00     0.012 C 
BRANCH  16  18
HETATM   18  C   UNK N   1      35.279  12.898  12.237  0.00  0.00     0.002 C 
HETATM   19  C   UNK N   1      35.631  13.794  13.422  0.00  0.00     0.005 C 
ENDBRANCH  16  18
ENDBRANCH  15  16
BRANCH  15  20
HETATM   20  N   UNK N   1      37.312  14.920  10.184  0.00  0.00    -0.419 N 
HETATM   21  H   UNK N   1      38.176  14.502  10.527  0.00  0.00     0.150 HD
HETATM   22  H   UNK N   1      37.298  15.291   9.233  0.00  0.00     0.150 HD
ENDBRANCH  15  20
ENDBRANCH  13  15
BRANCH  13  23
HETATM   23  O   UNK N   1      35.052  17.207  11.499  0.00  0.00    -0.347 OA
HETATM   24  H   UNK N   1      34.708  17.764  12.169  0.00  0.00     0.219 HD
ENDBRANCH  13  23
ENDBRANCH   9  12
ENDBRANCH   7   9
ENDBRANCH   6   7
ENDBRANCH   1   6
BRANCH   2  25
HETATM   25  O   UNK N   1      33.686  17.744   4.751  0.00  0.00    -0.390 OA
HETATM   26  H   UNK N   1      34.654  17.678   4.744  0.00  0.00     0.210 HD
ENDBRANCH   2  25
BRANCH   3  27
HETATM   27  O   UNK N   1      31.316  17.226   2.799  0.00  0.00    -0.388 OA
HETATM   28  H   UNK N   1      30.679  16.999   2.103  0.00  0.00     0.210 HD
ENDBRANCH   3  27
BRANCH   4  29
HETATM   29  N   UNK N   1      29.251  17.933   5.411  0.00  0.00    -0.297 N 
HETATM   30  C   UNK N   1      28.617  18.852   4.632  0.00  0.00     0.188 A 
HETATM   31  N   UNK N   1      27.782  19.639   5.366  0.00  0.00    -0.346 N 
HETATM   32  C   UNK N   1      27.901  19.169   6.622  0.00  0.00     0.122 A 
ATOM     33  HN  UNK N   1      27.199  20.410   5.039  1.00  0.00     0.167 HD
HETATM   34  C   UNK N   1      27.255  19.562   7.781  0.00  0.00     0.131 A 
HETATM   35  C   UNK N   1      28.785  18.154   6.648  0.00  0.00     0.142 A 
HETATM   36  N   UNK N   1      27.533  18.879   8.932  0.00  0.00    -0.337 N 
HETATM   37  C   UNK N   1      28.432  17.839   8.936  0.00  0.00     0.183 A 
ATOM     38  HN  UNK N   1      27.067  19.145   9.800  1.00  0.00     0.168 HD
HETATM   39  N   UNK N   1      29.072  17.469   7.784  0.00  0.00    -0.336 N 
ATOM     40  HN  UNK N   1      29.744  16.703   7.780  1.00  0.00     0.168 HD
BRANCH  34  41
HETATM   41  N   UNK N   1      26.328  20.624   7.782  0.00  0.00    -0.383 N 
HETATM   42  H   UNK N   1      25.937  21.073   6.997  0.00  0.00     0.157 HD
HETATM   43  H   UNK N   1      26.039  20.953   8.664  0.00  0.00     0.157 HD
ENDBRANCH  34  41
ENDBRANCH   4  29
TORSDOF 13
ENDMDL
MODEL 9
REMARK VINA RESULT:      -6.9      2.601      8.954
REMARK  13 active torsions:
REMARK  status: ('A' for Active; 'I' for Inactive)
REMARK    1  A    between atoms: C_7  and  C_3 
REMARK    2  A    between atoms: C_8  and  C_4 
REMARK    3  A    between atoms: N_25  and  C_4 
REMARK    4  A    between atoms: C_9  and  C_7 
REMARK    5  A    between atoms: C_15  and  C_9 
REMARK    6  A    between atoms: C_9  and  N_17 
REMARK    7  A    between atoms: C_11  and  O_29 
REMARK    8  A    between atoms: C_12  and  O_30 
REMARK    9  A    between atoms: N_18  and  C_13 
REMARK   10  A    between atoms: O_31  and  C_15 
REMARK   11  A    between atoms: C_16  and  N_28 
REMARK   12  A    between atoms: S_35  and  N_25 
REMARK   13  A    between atoms: N_26  and  S_35 
ROOT
HETATM    1  C   UNK N   1      33.237  14.058   9.035  0.00  0.00     0.174 C 
HETATM    2  C   UNK N   1      33.889  15.097   9.918  0.00  0.00     0.181 C 
HETATM    3  C   UNK N   1      33.281  16.342   9.363  0.00  0.00     0.198 C 
HETATM    4  C   UNK N   1      33.069  15.980   7.878  0.00  0.00     0.262 C 
HETATM    5  O   UNK N   1      33.308  14.585   7.730  0.00  0.00    -0.354 OA
ENDROOT
BRANCH   1   6
HETATM    6  C   UNK N   1      33.924  12.695   9.131  0.00  0.00     0.168 C 
BRANCH   6   7
HETATM    7  N   UNK N   1      34.061  12.245  10.518  0.00  0.00    -0.300 N 
HETATM    8  H   UNK N   1      33.480  12.542  11.302  0.00  0.00     0.173 HD
BRANCH   7   9
HETATM    9  S   UNK N   1      35.415  11.096  10.598  0.00  0.00     0.320 S 
HETATM   10  O   UNK N   1      35.654  10.285  11.881  0.00  0.00    -0.182 OA
HETATM   11  O   UNK N   1      34.093  10.381  10.911  0.00  0.00    -0.182 OA
BRANCH   9  12
HETATM   12  N   UNK N   1      35.765  12.358  11.821  0.00  0.00    -0.249 N 
HETATM   13  C   UNK N   1      35.160  12.644  12.942  0.00  0.00     0.149 C 
ATOM     14  HN  UNK N   1      36.567  12.950  11.606  1.00  0.00     0.182 HD
BRANCH  13  15
HETATM   15  C   UNK N   1      35.692  13.791  13.763  0.00  0.00     0.154 C 
BRANCH  15  16
HETATM   16  C   UNK N   1      36.560  13.377  14.982  0.00  0.00     0.011 C 
HETATM   17  C   UNK N   1      35.735  13.321  16.260  0.00  0.00     0.012 C 
BRANCH  16  18
HETATM   18  C   UNK N   1      37.295  12.045  14.813  0.00  0.00     0.002 C 
HETATM   19  C   UNK N   1      36.733  10.987  15.759  0.00  0.00     0.005 C 
ENDBRANCH  16  18
ENDBRANCH  15  16
BRANCH  15  20
HETATM   20  N   UNK N   1      36.399  14.723  12.899  0.00  0.00    -0.419 N 
HETATM   21  H   UNK N   1      35.927  15.358  12.255  0.00  0.00     0.150 HD
HETATM   22  H   UNK N   1      37.419  14.743  12.938  0.00  0.00     0.150 HD
ENDBRANCH  15  20
ENDBRANCH  13  15
BRANCH  13  23
HETATM   23  O   UNK N   1      34.082  11.941  13.356  0.00  0.00    -0.347 OA
HETATM   24  H   UNK N   1      33.303  11.606  13.752  0.00  0.00     0.219 HD
ENDBRANCH  13  23
ENDBRANCH   9  12
ENDBRANCH   7   9
ENDBRANCH   6   7
ENDBRANCH   1   6
BRANCH   2  25
HETATM   25  O   UNK N   1      33.601  14.919  11.274  0.00  0.00    -0.390 OA
HETATM   26  H   UNK N   1      32.869  14.642  11.847  0.00  0.00     0.210 HD
ENDBRANCH   2  25
BRANCH   3  27
HETATM   27  O   UNK N   1      34.134  17.439   9.526  0.00  0.00    -0.388 OA
HETATM   28  H   UNK N   1      34.272  18.339   9.189  0.00  0.00     0.210 HD
ENDBRANCH   3  27
BRANCH   4  29
HETATM   29  N   UNK N   1      31.694  16.288   7.449  0.00  0.00    -0.297 N 
HETATM   30  C   UNK N   1      31.021  15.699   6.423  0.00  0.00     0.188 A 
HETATM   31  N   UNK N   1      29.754  16.185   6.312  0.00  0.00    -0.346 N 
HETATM   32  C   UNK N   1      29.652  17.080   7.312  0.00  0.00     0.122 A 
ATOM     33  HN  UNK N   1      29.042  15.929   5.627  1.00  0.00     0.167 HD
HETATM   34  C   UNK N   1      28.574  17.854   7.704  0.00  0.00     0.131 A 
HETATM   35  C   UNK N   1      30.816  17.146   7.986  0.00  0.00     0.142 A 
HETATM   36  N   UNK N   1      28.729  18.661   8.796  0.00  0.00    -0.337 N 
HETATM   37  C   UNK N   1      29.922  18.707   9.477  0.00  0.00     0.183 A 
ATOM     38  HN  UNK N   1      27.949  19.238   9.110  1.00  0.00     0.168 HD
HETATM   39  N   UNK N   1      30.984  17.945   9.069  0.00  0.00    -0.336 N 
ATOM     40  HN  UNK N   1      31.874  17.978   9.565  1.00  0.00     0.168 HD
BRANCH  34  41
HETATM   41  N   UNK N   1      27.346  17.806   7.014  0.00  0.00    -0.383 N 
HETATM   42  H   UNK N   1      26.466  18.099   7.346  0.00  0.00     0.157 HD
HETATM   43  H   UNK N   1      27.370  17.440   6.100  0.00  0.00     0.157 HD
ENDBRANCH  34  41
ENDBRANCH   4  29
TORSDOF 13
ENDMDL
