MODEL 1
REMARK VINA RESULT:      -7.6      0.000      0.000
REMARK  10 active torsions:
REMARK  status: ('A' for Active; 'I' for Inactive)
REMARK    1  A    between atoms: C_20  and  C_6 
REMARK    2  A    between atoms: C_9  and  C_7 
REMARK    3  A    between atoms: C_21  and  C_7 
REMARK    4  A    between atoms: C_10  and  C_8 
REMARK    5  A    between atoms: C_22  and  C_8 
REMARK    6  A    between atoms: C_32  and  C_9 
REMARK    7  A    between atoms: C_33  and  C_10 
REMARK    8  A    between atoms: C_23  and  C_15 
REMARK    9  A    between atoms: O_40  and  C_32 
REMARK   10  A    between atoms: O_42  and  C_33 
ROOT
HETATM    1  C   UNK N   1      25.674  12.777   1.600  0.00  0.00     0.052 C 
HETATM    2  C   UNK N   1      29.753  18.510   9.500  0.00  0.00     0.051 C 
HETATM    3  C   UNK N   1      33.141  13.304   2.943  0.00  0.00     0.051 C 
HETATM    4  C   UNK N   1      28.681  18.841   5.089  0.00  0.00     0.051 C 
HETATM    5  C   UNK N   1      27.654  17.492   7.552  0.00  0.00     0.058 C 
HETATM    6  C   UNK N   1      30.124  12.780   3.364  0.00  0.00     0.064 C 
HETATM    7  C   UNK N   1      26.023  14.762   3.833  0.00  0.00     0.058 C 
HETATM    8  C   UNK N   1      31.428  16.117   5.892  0.00  0.00     0.064 C 
HETATM    9  C   UNK N   1      26.824  12.984   2.495  0.00  0.00    -0.021 C 
HETATM   10  C   UNK N   1      29.942  17.663   8.324  0.00  0.00    -0.025 C 
HETATM   11  C   UNK N   1      32.256  13.624   4.099  0.00  0.00    -0.025 C 
HETATM   12  C   UNK N   1      27.597  17.785   5.102  0.00  0.00    -0.024 C 
HETATM   13  C   UNK N   1      28.129  12.597   2.278  0.00  0.00     0.000 C 
HETATM   14  C   UNK N   1      31.070  17.381   7.546  0.00  0.00    -0.021 C 
HETATM   15  C   UNK N   1      32.550  14.508   5.034  0.00  0.00    -0.021 C 
HETATM   16  C   UNK N   1      27.468  16.865   4.094  0.00  0.00     0.032 C 
HETATM   17  C   UNK N   1      28.911  17.101   7.621  0.00  0.00     0.066 C 
HETATM   18  C   UNK N   1      27.037  17.169   6.238  0.00  0.00     0.041 C 
HETATM   19  C   UNK N   1      26.875  13.822   3.570  0.00  0.00     0.066 C 
HETATM   20  C   UNK N   1      30.915  13.412   4.267  0.00  0.00     0.066 C 
HETATM   21  C   UNK N   1      28.830  13.011   3.318  0.00  0.00     0.070 C 
HETATM   22  C   UNK N   1      30.649  16.521   6.700  0.00  0.00     0.066 C 
HETATM   23  C   UNK N   1      31.441  14.911   5.511  0.00  0.00     0.066 C 
HETATM   24  C   UNK N   1      26.482  15.950   4.557  0.00  0.00     0.048 C 
HETATM   25 Fe   UNK N   1      28.640  15.058   5.451  0.00  0.00     0.000 Fe
HETATM   26  N   UNK N   1      28.065  13.811   4.096  0.00  0.00    -0.248 N 
HETATM   27  N   UNK N   1      29.397  16.252   6.752  0.00  0.00    -0.248 N 
HETATM   28  N   UNK N   1      30.429  14.292   5.123  0.00  0.00    -0.248 N 
HETATM   29  N   UNK N   1      26.767  15.906   5.830  0.00  0.00    -0.170 NA
ENDROOT
BRANCH  14  30
HETATM   30  C   UNK N   1      32.544  17.744   7.382  0.00  0.00     0.052 C 
BRANCH  30  31
HETATM   31  C   UNK N   1      33.186  17.680   8.647  0.00  0.00     0.115 C 
BRANCH  31  32
HETATM   32  C   UNK N   1      34.520  18.144   8.241  0.00  0.00     0.139 C 
HETATM   33  O   UNK N   1      35.281  18.682   9.046  0.00  0.00    -0.650 OA
BRANCH  32  34
HETATM   34  O   UNK N   1      34.829  18.124   6.948  0.00  0.00    -0.776 OA
HETATM   35  H   UNK N   1      35.417  18.760   6.592  0.00  0.00     0.167 HD
ENDBRANCH  32  34
ENDBRANCH  31  32
ENDBRANCH  30  31
ENDBRANCH  14  30
BRANCH  15  36
HETATM   36  C   UNK N   1      33.759  15.075   5.504  0.00  0.00     0.052 C 
BRANCH  36  37
HETATM   37  C   UNK N   1      34.059  14.025   6.499  0.00  0.00     0.115 C 
BRANCH  37  38
HETATM   38  C   UNK N   1      35.245  14.648   6.953  0.00  0.00     0.139 C 
HETATM   39  O   UNK N   1      35.847  15.407   6.213  0.00  0.00    -0.650 OA
BRANCH  38  40
HETATM   40  O   UNK N   1      35.433  14.682   8.282  0.00  0.00    -0.776 OA
HETATM   41  H   UNK N   1      35.080  15.318   8.875  0.00  0.00     0.167 HD
ENDBRANCH  38  40
ENDBRANCH  37  38
ENDBRANCH  36  37
ENDBRANCH  15  36
BRANCH  16  42
HETATM   42  C   UNK N   1      28.844  16.635   3.461  0.00  0.00     0.272 C 
HETATM   43  O   UNK N   1      29.169  16.309   2.332  0.00  0.00    -0.301 OA
ENDBRANCH  16  42
BRANCH  13  44
HETATM   44  C   UNK N   1      28.799  12.049   1.105  0.00  0.00     0.004 C 
HETATM   45  C   UNK N   1      28.553  10.842   0.691  0.00  0.00     0.012 C 
ENDBRANCH  13  44
TORSDOF 10
ENDMDL
MODEL 2
REMARK VINA RESULT:      -7.3     12.049     14.310
REMARK  10 active torsions:
REMARK  status: ('A' for Active; 'I' for Inactive)
REMARK    1  A    between atoms: C_20  and  C_6 
REMARK    2  A    between atoms: C_9  and  C_7 
REMARK    3  A    between atoms: C_21  and  C_7 
REMARK    4  A    between atoms: C_10  and  C_8 
REMARK    5  A    between atoms: C_22  and  C_8 
REMARK    6  A    between atoms: C_32  and  C_9 
REMARK    7  A    between atoms: C_33  and  C_10 
REMARK    8  A    between atoms: C_23  and  C_15 
REMARK    9  A    between atoms: O_40  and  C_32 
REMARK   10  A    between atoms: O_42  and  C_33 
ROOT
HETATM    1  C   UNK N   1      25.037  26.566  -5.970  0.00  0.00     0.052 C 
HETATM    2  C   UNK N   1      33.215  20.773  -2.583  0.00  0.00     0.051 C 
HETATM    3  C   UNK N   1      28.292  21.108 -10.148  0.00  0.00     0.051 C 
HETATM    4  C   UNK N   1      32.310  24.559  -4.942  0.00  0.00     0.051 C 
HETATM    5  C   UNK N   1      31.196  23.044  -2.617  0.00  0.00     0.058 C 
HETATM    6  C   UNK N   1      26.875  22.546  -7.807  0.00  0.00     0.064 C 
HETATM    7  C   UNK N   1      27.414  25.576  -4.416  0.00  0.00     0.058 C 
HETATM    8  C   UNK N   1      30.877  21.254  -6.565  0.00  0.00     0.064 C 
HETATM    9  C   UNK N   1      25.786  25.307  -6.111  0.00  0.00    -0.021 C 
HETATM   10  C   UNK N   1      32.271  21.132  -3.640  0.00  0.00    -0.025 C 
HETATM   11  C   UNK N   1      28.512  21.009  -8.677  0.00  0.00    -0.025 C 
HETATM   12  C   UNK N   1      30.974  24.845  -4.290  0.00  0.00    -0.024 C 
HETATM   13  C   UNK N   1      25.827  24.480  -7.213  0.00  0.00     0.000 C 
HETATM   14  C   UNK N   1      32.241  20.835  -5.007  0.00  0.00    -0.021 C 
HETATM   15  C   UNK N   1      29.606  20.520  -8.124  0.00  0.00    -0.021 C 
HETATM   16  C   UNK N   1      29.889  25.265  -5.014  0.00  0.00     0.032 C 
HETATM   17  C   UNK N   1      31.271  22.053  -3.483  0.00  0.00     0.066 C 
HETATM   18  C   UNK N   1      30.437  24.204  -3.157  0.00  0.00     0.041 C 
HETATM   19  C   UNK N   1      26.784  24.861  -5.294  0.00  0.00     0.066 C 
HETATM   20  C   UNK N   1      27.898  21.669  -7.648  0.00  0.00     0.066 C 
HETATM   21  C   UNK N   1      26.645  23.486  -6.916  0.00  0.00     0.070 C 
HETATM   22  C   UNK N   1      31.144  21.353  -5.406  0.00  0.00     0.066 C 
HETATM   23  C   UNK N   1      29.697  21.053  -6.971  0.00  0.00     0.066 C 
HETATM   24  C   UNK N   1      28.803  25.238  -4.095  0.00  0.00     0.048 C 
HETATM   25 Fe   UNK N   1      28.879  22.929  -5.052  0.00  0.00     0.000 Fe
HETATM   26  N   UNK N   1      27.275  23.745  -5.748  0.00  0.00    -0.248 N 
HETATM   27  N   UNK N   1      30.485  22.014  -4.527  0.00  0.00    -0.248 N 
HETATM   28  N   UNK N   1      28.711  21.728  -6.609  0.00  0.00    -0.248 N 
HETATM   29  N   UNK N   1      29.104  24.180  -3.393  0.00  0.00    -0.170 NA
ENDROOT
BRANCH  14  30
HETATM   30  C   UNK N   1      33.040  20.144  -6.110  0.00  0.00     0.052 C 
BRANCH  30  31
HETATM   31  C   UNK N   1      34.421  20.420  -5.932  0.00  0.00     0.115 C 
BRANCH  31  32
HETATM   32  C   UNK N   1      34.862  19.080  -5.519  0.00  0.00     0.139 C 
HETATM   33  O   UNK N   1      35.491  18.909  -4.474  0.00  0.00    -0.650 OA
BRANCH  32  34
HETATM   34  O   UNK N   1      34.716  18.076  -6.379  0.00  0.00    -0.776 OA
HETATM   35  H   UNK N   1      33.917  17.976  -6.857  0.00  0.00     0.167 HD
ENDBRANCH  32  34
ENDBRANCH  31  32
ENDBRANCH  30  31
ENDBRANCH  14  30
BRANCH  15  36
HETATM   36  C   UNK N   1      30.626  19.646  -8.570  0.00  0.00     0.052 C 
BRANCH  36  37
HETATM   37  C   UNK N   1      29.870  18.392  -8.365  0.00  0.00     0.115 C 
BRANCH  37  38
HETATM   38  C   UNK N   1      30.424  17.752  -9.499  0.00  0.00     0.139 C 
HETATM   39  O   UNK N   1      30.315  18.271 -10.596  0.00  0.00    -0.650 OA
BRANCH  38  40
HETATM   40  O   UNK N   1      31.365  16.823  -9.262  0.00  0.00    -0.776 OA
HETATM   41  H   UNK N   1      31.280  15.900  -9.404  0.00  0.00     0.167 HD
ENDBRANCH  38  40
ENDBRANCH  37  38
ENDBRANCH  36  37
ENDBRANCH  15  36
BRANCH  16  42
HETATM   42  C   UNK N   1      30.018  24.733  -6.445  0.00  0.00     0.272 C 
HETATM   43  O   UNK N   1      29.695  25.214  -7.518  0.00  0.00    -0.301 OA
ENDBRANCH  16  42
BRANCH  13  44
HETATM   44  C   UNK N   1      25.322  24.642  -8.570  0.00  0.00     0.004 C 
HETATM   45  C   UNK N   1      25.779  25.573  -9.353  0.00  0.00     0.012 C 
ENDBRANCH  13  44
TORSDOF 10
ENDMDL
MODEL 3
REMARK VINA RESULT:      -7.2     13.286     14.993
REMARK  10 active torsions:
REMARK  status: ('A' for Active; 'I' for Inactive)
REMARK    1  A    between atoms: C_20  and  C_6 
REMARK    2  A    between atoms: C_9  and  C_7 
REMARK    3  A    between atoms: C_21  and  C_7 
REMARK    4  A    between atoms: C_10  and  C_8 
REMARK    5  A    between atoms: C_22  and  C_8 
REMARK    6  A    between atoms: C_32  and  C_9 
REMARK    7  A    between atoms: C_33  and  C_10 
REMARK    8  A    between atoms: C_23  and  C_15 
REMARK    9  A    between atoms: O_40  and  C_32 
REMARK   10  A    between atoms: O_42  and  C_33 
ROOT
HETATM    1  C   UNK N   1      26.037  21.558 -12.324  0.00  0.00     0.052 C 
HETATM    2  C   UNK N   1      26.408  27.120  -3.332  0.00  0.00     0.051 C 
HETATM    3  C   UNK N   1      31.517  20.707  -7.119  0.00  0.00     0.051 C 
HETATM    4  C   UNK N   1      27.972  27.214  -7.606  0.00  0.00     0.051 C 
HETATM    5  C   UNK N   1      25.515  26.354  -6.135  0.00  0.00     0.058 C 
HETATM    6  C   UNK N   1      28.717  20.844  -8.422  0.00  0.00     0.064 C 
HETATM    7  C   UNK N   1      25.568  23.648 -10.211  0.00  0.00     0.058 C 
HETATM    8  C   UNK N   1      29.170  24.089  -5.508  0.00  0.00     0.064 C 
HETATM    9  C   UNK N   1      26.540  21.619 -10.942  0.00  0.00    -0.021 C 
HETATM   10  C   UNK N   1      27.003  26.139  -4.238  0.00  0.00    -0.025 C 
HETATM   11  C   UNK N   1      30.248  21.313  -6.624  0.00  0.00    -0.025 C 
HETATM   12  C   UNK N   1      26.846  26.404  -8.212  0.00  0.00    -0.024 C 
HETATM   13  C   UNK N   1      27.634  20.958 -10.424  0.00  0.00     0.000 C 
HETATM   14  C   UNK N   1      28.275  25.559  -4.283  0.00  0.00    -0.021 C 
HETATM   15  C   UNK N   1      30.185  22.209  -5.657  0.00  0.00    -0.021 C 
HETATM   16  C   UNK N   1      27.075  25.433  -9.151  0.00  0.00     0.032 C 
HETATM   17  C   UNK N   1      26.414  25.728  -5.403  0.00  0.00     0.066 C 
HETATM   18  C   UNK N   1      25.644  26.031  -7.581  0.00  0.00     0.041 C 
HETATM   19  C   UNK N   1      26.194  22.534  -9.991  0.00  0.00     0.066 C 
HETATM   20  C   UNK N   1      29.019  21.392  -7.218  0.00  0.00     0.066 C 
HETATM   21  C   UNK N   1      27.740  21.326  -9.159  0.00  0.00     0.070 C 
HETATM   22  C   UNK N   1      28.194  24.720  -5.243  0.00  0.00     0.066 C 
HETATM   23  C   UNK N   1      29.116  22.873  -5.851  0.00  0.00     0.066 C 
HETATM   24  C   UNK N   1      25.820  24.785  -9.323  0.00  0.00     0.048 C 
HETATM   25 Fe   UNK N   1      26.899  23.573  -7.422  0.00  0.00     0.000 Fe
HETATM   26  N   UNK N   1      26.879  22.337  -8.903  0.00  0.00    -0.248 N 
HETATM   27  N   UNK N   1      27.086  24.715  -5.888  0.00  0.00    -0.248 N 
HETATM   28  N   UNK N   1      28.361  22.434  -6.743  0.00  0.00    -0.248 N 
HETATM   29  N   UNK N   1      25.361  24.814  -8.102  0.00  0.00    -0.170 NA
ENDROOT
BRANCH  14  30
HETATM   30  C   UNK N   1      29.645  25.599  -3.608  0.00  0.00     0.052 C 
BRANCH  30  31
HETATM   31  C   UNK N   1      30.097  26.944  -3.547  0.00  0.00     0.115 C 
BRANCH  31  32
HETATM   32  C   UNK N   1      31.141  26.873  -4.580  0.00  0.00     0.139 C 
HETATM   33  O   UNK N   1      31.047  27.514  -5.628  0.00  0.00    -0.650 OA
BRANCH  32  34
HETATM   34  O   UNK N   1      32.109  25.972  -4.438  0.00  0.00    -0.776 OA
HETATM   35  H   UNK N   1      32.927  26.216  -4.052  0.00  0.00     0.167 HD
ENDBRANCH  32  34
ENDBRANCH  31  32
ENDBRANCH  30  31
ENDBRANCH  14  30
BRANCH  15  36
HETATM   36  C   UNK N   1      31.044  22.566  -4.590  0.00  0.00     0.052 C 
BRANCH  36  37
HETATM   37  C   UNK N   1      30.608  21.501  -3.663  0.00  0.00     0.115 C 
BRANCH  37  38
HETATM   38  C   UNK N   1      31.340  22.013  -2.566  0.00  0.00     0.139 C 
HETATM   39  O   UNK N   1      30.813  22.813  -1.811  0.00  0.00    -0.650 OA
BRANCH  38  40
HETATM   40  O   UNK N   1      32.420  21.313  -2.188  0.00  0.00    -0.776 OA
HETATM   41  H   UNK N   1      32.584  20.967  -1.331  0.00  0.00     0.167 HD
ENDBRANCH  38  40
ENDBRANCH  37  38
ENDBRANCH  36  37
ENDBRANCH  15  36
BRANCH  16  42
HETATM   42  C   UNK N   1      28.484  24.868  -8.939  0.00  0.00     0.272 C 
HETATM   43  O   UNK N   1      29.321  24.467  -9.730  0.00  0.00    -0.301 OA
ENDBRANCH  16  42
BRANCH  13  44
HETATM   44  C   UNK N   1      28.685  20.171 -11.056  0.00  0.00     0.004 C 
HETATM   45  C   UNK N   1      29.531  20.715 -11.880  0.00  0.00     0.012 C 
ENDBRANCH  13  44
TORSDOF 10
ENDMDL
MODEL 4
REMARK VINA RESULT:      -7.1     13.428     15.441
REMARK  10 active torsions:
REMARK  status: ('A' for Active; 'I' for Inactive)
REMARK    1  A    between atoms: C_20  and  C_6 
REMARK    2  A    between atoms: C_9  and  C_7 
REMARK    3  A    between atoms: C_21  and  C_7 
REMARK    4  A    between atoms: C_10  and  C_8 
REMARK    5  A    between atoms: C_22  and  C_8 
REMARK    6  A    between atoms: C_32  and  C_9 
REMARK    7  A    between atoms: C_33  and  C_10 
REMARK    8  A    between atoms: C_23  and  C_15 
REMARK    9  A    between atoms: O_40  and  C_32 
REMARK   10  A    between atoms: O_42  and  C_33 
ROOT
HETATM    1  C   UNK N   1      28.762  19.563 -12.636  0.00  0.00     0.052 C 
HETATM    2  C   UNK N   1      24.813  26.910  -6.128  0.00  0.00     0.051 C 
HETATM    3  C   UNK N   1      31.469  20.824  -5.641  0.00  0.00     0.051 C 
HETATM    4  C   UNK N   1      28.073  26.352  -9.255  0.00  0.00     0.051 C 
HETATM    5  C   UNK N   1      25.282  25.414  -8.732  0.00  0.00     0.058 C 
HETATM    6  C   UNK N   1      29.515  20.186  -7.949  0.00  0.00     0.064 C 
HETATM    7  C   UNK N   1      27.284  21.944 -11.542  0.00  0.00     0.058 C 
HETATM    8  C   UNK N   1      28.439  24.011  -6.094  0.00  0.00     0.064 C 
HETATM    9  C   UNK N   1      28.608  20.007 -11.241  0.00  0.00    -0.021 C 
HETATM   10  C   UNK N   1      25.805  25.876  -6.414  0.00  0.00    -0.025 C 
HETATM   11  C   UNK N   1      30.075  21.292  -5.885  0.00  0.00    -0.025 C 
HETATM   12  C   UNK N   1      27.380  25.246 -10.022  0.00  0.00    -0.024 C 
HETATM   13  C   UNK N   1      29.407  19.675 -10.167  0.00  0.00     0.000 C 
HETATM   14  C   UNK N   1      27.005  25.531  -5.782  0.00  0.00    -0.021 C 
HETATM   15  C   UNK N   1      29.537  22.350  -5.307  0.00  0.00    -0.021 C 
HETATM   16  C   UNK N   1      28.058  24.151 -10.488  0.00  0.00     0.032 C 
HETATM   17  C   UNK N   1      25.812  25.126  -7.559  0.00  0.00     0.066 C 
HETATM   18  C   UNK N   1      26.050  24.814  -9.856  0.00  0.00     0.041 C 
HETATM   19  C   UNK N   1      27.823  21.031 -10.797  0.00  0.00     0.066 C 
HETATM   20  C   UNK N   1      29.225  21.025  -6.923  0.00  0.00     0.066 C 
HETATM   21  C   UNK N   1      28.927  20.319  -9.118  0.00  0.00     0.070 C 
HETATM   22  C   UNK N   1      27.406  24.504  -6.428  0.00  0.00     0.066 C 
HETATM   23  C   UNK N   1      28.619  22.759  -6.088  0.00  0.00     0.066 C 
HETATM   24  C   UNK N   1      27.049  23.272 -10.971  0.00  0.00     0.048 C 
HETATM   25 Fe   UNK N   1      27.269  22.706  -8.547  0.00  0.00     0.000 Fe
HETATM   26  N   UNK N   1      27.977  21.196  -9.515  0.00  0.00    -0.248 N 
HETATM   27  N   UNK N   1      26.692  24.167  -7.439  0.00  0.00    -0.248 N 
HETATM   28  N   UNK N   1      28.359  22.013  -7.054  0.00  0.00    -0.248 N 
HETATM   29  N   UNK N   1      26.103  23.483 -10.097  0.00  0.00    -0.170 NA
ENDROOT
BRANCH  14  30
HETATM   30  C   UNK N   1      27.938  25.955  -4.650  0.00  0.00     0.052 C 
BRANCH  30  31
HETATM   31  C   UNK N   1      27.194  26.063  -3.445  0.00  0.00     0.115 C 
BRANCH  31  32
HETATM   32  C   UNK N   1      27.048  27.526  -3.408  0.00  0.00     0.139 C 
HETATM   33  O   UNK N   1      27.998  28.269  -3.656  0.00  0.00    -0.650 OA
BRANCH  32  34
HETATM   34  O   UNK N   1      25.912  28.034  -2.937  0.00  0.00    -0.776 OA
HETATM   35  H   UNK N   1      25.135  28.018  -3.460  0.00  0.00     0.167 HD
ENDBRANCH  32  34
ENDBRANCH  31  32
ENDBRANCH  30  31
ENDBRANCH  14  30
BRANCH  15  36
HETATM   36  C   UNK N   1      29.821  23.073  -4.124  0.00  0.00     0.052 C 
BRANCH  36  37
HETATM   37  C   UNK N   1      29.778  21.914  -3.207  0.00  0.00     0.115 C 
BRANCH  37  38
HETATM   38  C   UNK N   1      29.512  22.699  -2.061  0.00  0.00     0.139 C 
HETATM   39  O   UNK N   1      30.440  23.187  -1.438  0.00  0.00    -0.650 OA
BRANCH  38  40
HETATM   40  O   UNK N   1      28.267  23.186  -1.943  0.00  0.00    -0.776 OA
HETATM   41  H   UNK N   1      28.033  24.088  -1.831  0.00  0.00     0.167 HD
ENDBRANCH  38  40
ENDBRANCH  37  38
ENDBRANCH  36  37
ENDBRANCH  15  36
BRANCH  16  42
HETATM   42  C   UNK N   1      29.267  23.900  -9.580  0.00  0.00     0.272 C 
HETATM   43  O   UNK N   1      30.390  23.494  -9.825  0.00  0.00    -0.301 OA
ENDBRANCH  16  42
BRANCH  13  44
HETATM   44  C   UNK N   1      30.678  18.967 -10.082  0.00  0.00     0.004 C 
HETATM   45  C   UNK N   1      30.757  17.692 -10.326  0.00  0.00     0.012 C 
ENDBRANCH  13  44
TORSDOF 10
ENDMDL
MODEL 5
REMARK VINA RESULT:      -7.1     12.877     16.303
REMARK  10 active torsions:
REMARK  status: ('A' for Active; 'I' for Inactive)
REMARK    1  A    between atoms: C_20  and  C_6 
REMARK    2  A    between atoms: C_9  and  C_7 
REMARK    3  A    between atoms: C_21  and  C_7 
REMARK    4  A    between atoms: C_10  and  C_8 
REMARK    5  A    between atoms: C_22  and  C_8 
REMARK    6  A    between atoms: C_32  and  C_9 
REMARK    7  A    between atoms: C_33  and  C_10 
REMARK    8  A    between atoms: C_23  and  C_15 
REMARK    9  A    between atoms: O_40  and  C_32 
REMARK   10  A    between atoms: O_42  and  C_33 
ROOT
HETATM    1  C   UNK N   1      29.640  30.386  -2.763  0.00  0.00     0.052 C 
HETATM    2  C   UNK N   1      31.157  20.157  -4.995  0.00  0.00     0.051 C 
HETATM    3  C   UNK N   1      25.159  26.438  -7.472  0.00  0.00     0.051 C 
HETATM    4  C   UNK N   1      32.211  24.301  -6.552  0.00  0.00     0.051 C 
HETATM    5  C   UNK N   1      31.794  22.930  -3.928  0.00  0.00     0.058 C 
HETATM    6  C   UNK N   1      26.709  27.286  -4.936  0.00  0.00     0.064 C 
HETATM    7  C   UNK N   1      30.868  27.655  -3.055  0.00  0.00     0.058 C 
HETATM    8  C   UNK N   1      28.338  23.526  -6.495  0.00  0.00     0.064 C 
HETATM    9  C   UNK N   1      29.028  29.131  -3.232  0.00  0.00    -0.021 C 
HETATM   10  C   UNK N   1      30.420  21.400  -5.205  0.00  0.00    -0.025 C 
HETATM   11  C   UNK N   1      25.949  25.625  -6.504  0.00  0.00    -0.025 C 
HETATM   12  C   UNK N   1      32.112  25.010  -5.218  0.00  0.00    -0.024 C 
HETATM   13  C   UNK N   1      27.892  28.994  -4.001  0.00  0.00     0.000 C 
HETATM   14  C   UNK N   1      29.491  21.784  -6.179  0.00  0.00    -0.021 C 
HETATM   15  C   UNK N   1      26.407  24.412  -6.757  0.00  0.00    -0.021 C 
HETATM   16  C   UNK N   1      31.522  26.240  -5.092  0.00  0.00     0.032 C 
HETATM   17  C   UNK N   1      30.679  22.560  -4.526  0.00  0.00     0.066 C 
HETATM   18  C   UNK N   1      31.981  24.406  -3.953  0.00  0.00     0.041 C 
HETATM   19  C   UNK N   1      29.606  27.895  -3.228  0.00  0.00     0.066 C 
HETATM   20  C   UNK N   1      26.654  26.012  -5.398  0.00  0.00     0.066 C 
HETATM   21  C   UNK N   1      27.727  27.701  -4.213  0.00  0.00     0.070 C 
HETATM   22  C   UNK N   1      29.131  22.954  -5.812  0.00  0.00     0.066 C 
HETATM   23  C   UNK N   1      27.422  24.248  -6.007  0.00  0.00     0.066 C 
HETATM   24  C   UNK N   1      31.455  26.473  -3.690  0.00  0.00     0.048 C 
HETATM   25 Fe   UNK N   1      29.355  25.227  -4.223  0.00  0.00     0.000 Fe
HETATM   26  N   UNK N   1      28.812  27.023  -3.777  0.00  0.00    -0.248 N 
HETATM   27  N   UNK N   1      29.739  23.431  -4.789  0.00  0.00    -0.248 N 
HETATM   28  N   UNK N   1      27.618  25.142  -5.158  0.00  0.00    -0.248 N 
HETATM   29  N   UNK N   1      31.206  25.268  -3.254  0.00  0.00    -0.170 NA
ENDROOT
BRANCH  14  30
HETATM   30  C   UNK N   1      28.813  21.298  -7.458  0.00  0.00     0.052 C 
BRANCH  30  31
HETATM   31  C   UNK N   1      29.797  20.777  -8.341  0.00  0.00     0.115 C 
BRANCH  31  32
HETATM   32  C   UNK N   1      28.922  20.446  -9.474  0.00  0.00     0.139 C 
HETATM   33  O   UNK N   1      29.341  19.805 -10.439  0.00  0.00    -0.650 OA
BRANCH  32  34
HETATM   34  O   UNK N   1      27.711  20.995  -9.518  0.00  0.00    -0.776 OA
HETATM   35  H   UNK N   1      27.616  21.926  -9.552  0.00  0.00     0.167 HD
ENDBRANCH  32  34
ENDBRANCH  31  32
ENDBRANCH  30  31
ENDBRANCH  14  30
BRANCH  15  36
HETATM   36  C   UNK N   1      26.042  23.395  -7.670  0.00  0.00     0.052 C 
BRANCH  36  37
HETATM   37  C   UNK N   1      25.378  22.517  -6.683  0.00  0.00     0.115 C 
BRANCH  37  38
HETATM   38  C   UNK N   1      24.811  21.670  -7.664  0.00  0.00     0.139 C 
HETATM   39  O   UNK N   1      25.221  20.527  -7.781  0.00  0.00    -0.650 OA
BRANCH  38  40
HETATM   40  O   UNK N   1      23.608  22.026  -8.140  0.00  0.00    -0.776 OA
HETATM   41  H   UNK N   1      23.369  22.874  -8.462  0.00  0.00     0.167 HD
ENDBRANCH  38  40
ENDBRANCH  37  38
ENDBRANCH  36  37
ENDBRANCH  15  36
BRANCH  16  42
HETATM   42  C   UNK N   1      30.468  26.394  -6.195  0.00  0.00     0.272 C 
HETATM   43  O   UNK N   1      30.180  27.338  -6.910  0.00  0.00    -0.301 OA
ENDBRANCH  16  42
BRANCH  13  44
HETATM   44  C   UNK N   1      27.069  29.971  -4.703  0.00  0.00     0.004 C 
HETATM   45  C   UNK N   1      26.367  30.852  -4.053  0.00  0.00     0.012 C 
ENDBRANCH  13  44
TORSDOF 10
ENDMDL
MODEL 6
REMARK VINA RESULT:      -6.9      1.830      5.170
REMARK  10 active torsions:
REMARK  status: ('A' for Active; 'I' for Inactive)
REMARK    1  A    between atoms: C_20  and  C_6 
REMARK    2  A    between atoms: C_9  and  C_7 
REMARK    3  A    between atoms: C_21  and  C_7 
REMARK    4  A    between atoms: C_10  and  C_8 
REMARK    5  A    between atoms: C_22  and  C_8 
REMARK    6  A    between atoms: C_32  and  C_9 
REMARK    7  A    between atoms: C_33  and  C_10 
REMARK    8  A    between atoms: C_23  and  C_15 
REMARK    9  A    between atoms: O_40  and  C_32 
REMARK   10  A    between atoms: O_42  and  C_33 
ROOT
HETATM    1  C   UNK N   1      25.930  15.329   1.554  0.00  0.00     0.052 C 
HETATM    2  C   UNK N   1      35.938  13.259   4.286  0.00  0.00     0.051 C 
HETATM    3  C   UNK N   1      29.051  17.712   8.067  0.00  0.00     0.051 C 
HETATM    4  C   UNK N   1      31.728  11.606   4.796  0.00  0.00     0.051 C 
HETATM    5  C   UNK N   1      33.342  13.032   2.721  0.00  0.00     0.058 C 
HETATM    6  C   UNK N   1      28.581  17.248   5.048  0.00  0.00     0.064 C 
HETATM    7  C   UNK N   1      28.688  14.135   1.691  0.00  0.00     0.058 C 
HETATM    8  C   UNK N   1      32.252  15.213   6.319  0.00  0.00     0.064 C 
HETATM    9  C   UNK N   1      27.085  15.735   2.372  0.00  0.00    -0.021 C 
HETATM   10  C   UNK N   1      34.634  13.834   4.605  0.00  0.00    -0.025 C 
HETATM   11  C   UNK N   1      30.013  17.373   6.980  0.00  0.00    -0.025 C 
HETATM   12  C   UNK N   1      31.162  12.201   3.524  0.00  0.00    -0.024 C 
HETATM   13  C   UNK N   1      27.064  16.487   3.527  0.00  0.00     0.000 C 
HETATM   14  C   UNK N   1      34.089  14.306   5.805  0.00  0.00    -0.021 C 
HETATM   15  C   UNK N   1      31.218  16.876   7.186  0.00  0.00    -0.021 C 
HETATM   16  C   UNK N   1      29.916  12.770   3.482  0.00  0.00     0.032 C 
HETATM   17  C   UNK N   1      33.573  13.836   3.741  0.00  0.00     0.066 C 
HETATM   18  C   UNK N   1      31.888  12.823   2.491  0.00  0.00     0.041 C 
HETATM   19  C   UNK N   1      28.349  15.227   2.301  0.00  0.00     0.066 C 
HETATM   20  C   UNK N   1      29.793  17.144   5.650  0.00  0.00     0.066 C 
HETATM   21  C   UNK N   1      28.313  16.582   3.946  0.00  0.00     0.070 C 
HETATM   22  C   UNK N   1      32.944  14.757   5.461  0.00  0.00     0.066 C 
HETATM   23  C   UNK N   1      31.528  16.233   6.132  0.00  0.00     0.066 C 
HETATM   24  C   UNK N   1      29.831  13.370   2.195  0.00  0.00     0.048 C 
HETATM   25 Fe   UNK N   1      30.873  15.124   3.639  0.00  0.00     0.000 Fe
HETATM   26  N   UNK N   1      29.104  15.762   3.215  0.00  0.00    -0.248 N 
HETATM   27  N   UNK N   1      32.620  14.584   4.233  0.00  0.00    -0.248 N 
HETATM   28  N   UNK N   1      30.744  16.364   5.169  0.00  0.00    -0.248 N 
HETATM   29  N   UNK N   1      31.056  13.791   2.039  0.00  0.00    -0.170 NA
ENDROOT
BRANCH  14  30
HETATM   30  C   UNK N   1      34.390  14.445   7.295  0.00  0.00     0.052 C 
BRANCH  30  31
HETATM   31  C   UNK N   1      34.638  13.159   7.845  0.00  0.00     0.115 C 
BRANCH  31  32
HETATM   32  C   UNK N   1      33.877  13.303   9.094  0.00  0.00     0.139 C 
HETATM   33  O   UNK N   1      34.445  13.506  10.168  0.00  0.00    -0.650 OA
BRANCH  32  34
HETATM   34  O   UNK N   1      32.573  13.043   9.072  0.00  0.00    -0.776 OA
HETATM   35  H   UNK N   1      32.193  12.595   8.343  0.00  0.00     0.167 HD
ENDBRANCH  32  34
ENDBRANCH  31  32
ENDBRANCH  30  31
ENDBRANCH  14  30
BRANCH  15  36
HETATM   36  C   UNK N   1      32.106  16.878   8.288  0.00  0.00     0.052 C 
BRANCH  36  37
HETATM   37  C   UNK N   1      32.513  18.294   8.170  0.00  0.00     0.115 C 
BRANCH  37  38
HETATM   38  C   UNK N   1      33.896  18.013   8.267  0.00  0.00     0.139 C 
HETATM   39  O   UNK N   1      34.330  17.467   9.267  0.00  0.00    -0.650 OA
BRANCH  38  40
HETATM   40  O   UNK N   1      34.587  18.002   7.117  0.00  0.00    -0.776 OA
HETATM   41  H   UNK N   1      34.225  18.044   6.253  0.00  0.00     0.167 HD
ENDBRANCH  38  40
ENDBRANCH  37  38
ENDBRANCH  36  37
ENDBRANCH  15  36
BRANCH  16  42
HETATM   42  C   UNK N   1      29.577  13.312   4.875  0.00  0.00     0.272 C 
HETATM   43  O   UNK N   1      28.509  13.500   5.430  0.00  0.00    -0.301 OA
ENDBRANCH  16  42
BRANCH  13  44
HETATM   44  C   UNK N   1      25.966  16.956   4.364  0.00  0.00     0.004 C 
HETATM   45  C   UNK N   1      25.201  17.936   3.985  0.00  0.00     0.012 C 
ENDBRANCH  13  44
TORSDOF 10
ENDMDL
MODEL 7
REMARK VINA RESULT:      -6.9      2.584      5.522
REMARK  10 active torsions:
REMARK  status: ('A' for Active; 'I' for Inactive)
REMARK    1  A    between atoms: C_20  and  C_6 
REMARK    2  A    between atoms: C_9  and  C_7 
REMARK    3  A    between atoms: C_21  and  C_7 
REMARK    4  A    between atoms: C_10  and  C_8 
REMARK    5  A    between atoms: C_22  and  C_8 
REMARK    6  A    between atoms: C_32  and  C_9 
REMARK    7  A    between atoms: C_33  and  C_10 
REMARK    8  A    between atoms: C_23  and  C_15 
REMARK    9  A    between atoms: O_40  and  C_32 
REMARK   10  A    between atoms: O_42  and  C_33 
ROOT
HETATM    1  C   UNK N   1      31.471  11.085   0.587  0.00  0.00     0.052 C 
HETATM    2  C   UNK N   1      34.371  18.160   7.898  0.00  0.00     0.051 C 
HETATM    3  C   UNK N   1      26.572  15.789   4.009  0.00  0.00     0.051 C 
HETATM    4  C   UNK N   1      32.827  13.894   7.534  0.00  0.00     0.051 C 
HETATM    5  C   UNK N   1      34.619  15.766   6.042  0.00  0.00     0.058 C 
HETATM    6  C   UNK N   1      29.001  14.766   2.396  0.00  0.00     0.064 C 
HETATM    7  C   UNK N   1      33.020  12.589   2.682  0.00  0.00     0.058 C 
HETATM    8  C   UNK N   1      30.362  16.638   6.120  0.00  0.00     0.064 C 
HETATM    9  C   UNK N   1      31.138  12.346   1.270  0.00  0.00    -0.021 C 
HETATM   10  C   UNK N   1      33.322  17.503   7.120  0.00  0.00    -0.025 C 
HETATM   11  C   UNK N   1      27.999  16.219   4.033  0.00  0.00    -0.025 C 
HETATM   12  C   UNK N   1      33.374  13.638   6.146  0.00  0.00    -0.024 C 
HETATM   13  C   UNK N   1      29.891  12.919   1.400  0.00  0.00     0.000 C 
HETATM   14  C   UNK N   1      31.929  17.498   7.246  0.00  0.00    -0.021 C 
HETATM   15  C   UNK N   1      28.547  16.909   5.016  0.00  0.00    -0.021 C 
HETATM   16  C   UNK N   1      32.646  12.979   5.189  0.00  0.00     0.032 C 
HETATM   17  C   UNK N   1      33.568  16.553   6.166  0.00  0.00     0.066 C 
HETATM   18  C   UNK N   1      34.269  14.456   5.430  0.00  0.00     0.041 C 
HETATM   19  C   UNK N   1      31.941  13.042   2.126  0.00  0.00     0.066 C 
HETATM   20  C   UNK N   1      29.074  15.743   3.334  0.00  0.00     0.066 C 
HETATM   21  C   UNK N   1      30.048  14.021   2.112  0.00  0.00     0.070 C 
HETATM   22  C   UNK N   1      31.535  16.812   6.243  0.00  0.00     0.066 C 
HETATM   23  C   UNK N   1      29.792  16.643   4.991  0.00  0.00     0.066 C 
HETATM   24  C   UNK N   1      33.409  13.107   3.995  0.00  0.00     0.048 C 
HETATM   25 Fe   UNK N   1      31.978  15.156   4.051  0.00  0.00     0.000 Fe
HETATM   26  N   UNK N   1      31.307  14.073   2.602  0.00  0.00    -0.248 N 
HETATM   27  N   UNK N   1      32.461  16.299   5.518  0.00  0.00    -0.248 N 
HETATM   28  N   UNK N   1      30.184  15.978   4.010  0.00  0.00    -0.248 N 
HETATM   29  N   UNK N   1      33.888  14.313   4.139  0.00  0.00    -0.170 NA
ENDROOT
BRANCH  14  30
HETATM   30  C   UNK N   1      30.795  18.004   8.135  0.00  0.00     0.052 C 
BRANCH  30  31
HETATM   31  C   UNK N   1      30.476  17.011   9.099  0.00  0.00     0.115 C 
BRANCH  31  32
HETATM   32  C   UNK N   1      29.411  17.732   9.812  0.00  0.00     0.139 C 
HETATM   33  O   UNK N   1      28.229  17.408   9.691  0.00  0.00    -0.650 OA
BRANCH  32  34
HETATM   34  O   UNK N   1      29.731  18.847  10.462  0.00  0.00    -0.776 OA
HETATM   35  H   UNK N   1      29.395  19.005  11.323  0.00  0.00     0.167 HD
ENDBRANCH  32  34
ENDBRANCH  31  32
ENDBRANCH  30  31
ENDBRANCH  14  30
BRANCH  15  36
HETATM   36  C   UNK N   1      28.034  17.754   6.029  0.00  0.00     0.052 C 
BRANCH  36  37
HETATM   37  C   UNK N   1      28.026  18.992   5.223  0.00  0.00     0.115 C 
BRANCH  37  38
HETATM   38  C   UNK N   1      27.359  19.754   6.211  0.00  0.00     0.139 C 
HETATM   39  O   UNK N   1      26.540  20.591   5.874  0.00  0.00    -0.650 OA
BRANCH  38  40
HETATM   40  O   UNK N   1      27.369  19.258   7.458  0.00  0.00    -0.776 OA
HETATM   41  H   UNK N   1      27.650  19.707   8.231  0.00  0.00     0.167 HD
ENDBRANCH  38  40
ENDBRANCH  37  38
ENDBRANCH  36  37
ENDBRANCH  15  36
BRANCH  16  42
HETATM   42  C   UNK N   1      31.156  13.204   5.466  0.00  0.00     0.272 C 
HETATM   43  O   UNK N   1      30.169  12.568   5.139  0.00  0.00    -0.301 OA
ENDBRANCH  16  42
BRANCH  13  44
HETATM   44  C   UNK N   1      28.556  12.428   1.082  0.00  0.00     0.004 C 
HETATM   45  C   UNK N   1      28.109  11.316   1.587  0.00  0.00     0.012 C 
ENDBRANCH  13  44
TORSDOF 10
ENDMDL
MODEL 8
REMARK VINA RESULT:      -6.8      1.726      2.520
REMARK  10 active torsions:
REMARK  status: ('A' for Active; 'I' for Inactive)
REMARK    1  A    between atoms: C_20  and  C_6 
REMARK    2  A    between atoms: C_9  and  C_7 
REMARK    3  A    between atoms: C_21  and  C_7 
REMARK    4  A    between atoms: C_10  and  C_8 
REMARK    5  A    between atoms: C_22  and  C_8 
REMARK    6  A    between atoms: C_32  and  C_9 
REMARK    7  A    between atoms: C_33  and  C_10 
REMARK    8  A    between atoms: C_23  and  C_15 
REMARK    9  A    between atoms: O_40  and  C_32 
REMARK   10  A    between atoms: O_42  and  C_33 
ROOT
HETATM    1  C   UNK N   1      29.516  11.923   0.109  0.00  0.00     0.052 C 
HETATM    2  C   UNK N   1      29.119  18.136   8.662  0.00  0.00     0.051 C 
HETATM    3  C   UNK N   1      35.008  12.134   5.366  0.00  0.00     0.051 C 
HETATM    4  C   UNK N   1      30.700  18.105   4.395  0.00  0.00     0.051 C 
HETATM    5  C   UNK N   1      28.352  17.062   5.924  0.00  0.00     0.058 C 
HETATM    6  C   UNK N   1      32.226  11.832   4.055  0.00  0.00     0.064 C 
HETATM    7  C   UNK N   1      28.776  14.089   2.061  0.00  0.00     0.058 C 
HETATM    8  C   UNK N   1      32.251  15.313   6.720  0.00  0.00     0.064 C 
HETATM    9  C   UNK N   1      29.995  12.146   1.483  0.00  0.00    -0.021 C 
HETATM   10  C   UNK N   1      29.837  17.171   7.833  0.00  0.00    -0.025 C 
HETATM   11  C   UNK N   1      33.670  12.615   5.814  0.00  0.00    -0.025 C 
HETATM   12  C   UNK N   1      29.688  17.121   3.850  0.00  0.00    -0.024 C 
HETATM   13  C   UNK N   1      31.156  11.664   2.050  0.00  0.00     0.000 C 
HETATM   14  C   UNK N   1      31.172  16.749   7.832  0.00  0.00    -0.021 C 
HETATM   15  C   UNK N   1      33.489  13.566   6.712  0.00  0.00    -0.021 C 
HETATM   16  C   UNK N   1      30.043  16.118   2.986  0.00  0.00     0.032 C 
HETATM   17  C   UNK N   1      29.315  16.605   6.701  0.00  0.00     0.066 C 
HETATM   18  C   UNK N   1      28.534  16.651   4.506  0.00  0.00     0.041 C 
HETATM   19  C   UNK N   1      29.530  13.079   2.363  0.00  0.00     0.066 C 
HETATM   20  C   UNK N   1      32.447  12.500   5.215  0.00  0.00     0.066 C 
HETATM   21  C   UNK N   1      31.204  12.134   3.283  0.00  0.00     0.070 C 
HETATM   22  C   UNK N   1      31.202  15.838   6.936  0.00  0.00     0.066 C 
HETATM   23  C   UNK N   1      32.349  14.078   6.469  0.00  0.00     0.066 C 
HETATM   24  C   UNK N   1      28.878  15.311   2.861  0.00  0.00     0.048 C 
HETATM   25 Fe   UNK N   1      30.079  14.384   4.848  0.00  0.00     0.000 Fe
HETATM   26  N   UNK N   1      30.224  13.049   3.463  0.00  0.00    -0.248 N 
HETATM   27  N   UNK N   1      30.109  15.650   6.293  0.00  0.00    -0.248 N 
HETATM   28  N   UNK N   1      31.662  13.485   5.611  0.00  0.00    -0.248 N 
HETATM   29  N   UNK N   1      28.407  15.373   4.077  0.00  0.00    -0.170 NA
ENDROOT
BRANCH  14  30
HETATM   30  C   UNK N   1      32.519  17.007   8.502  0.00  0.00     0.052 C 
BRANCH  30  31
HETATM   31  C   UNK N   1      32.839  18.386   8.396  0.00  0.00     0.115 C 
BRANCH  31  32
HETATM   32  C   UNK N   1      34.263  18.256   8.056  0.00  0.00     0.139 C 
HETATM   33  O   UNK N   1      34.623  17.967   6.914  0.00  0.00    -0.650 OA
BRANCH  32  34
HETATM   34  O   UNK N   1      35.154  18.292   9.043  0.00  0.00    -0.776 OA
HETATM   35  H   UNK N   1      35.461  19.114   9.372  0.00  0.00     0.167 HD
ENDBRANCH  32  34
ENDBRANCH  31  32
ENDBRANCH  30  31
ENDBRANCH  14  30
BRANCH  15  36
HETATM   36  C   UNK N   1      34.288  14.103   7.749  0.00  0.00     0.052 C 
BRANCH  36  37
HETATM   37  C   UNK N   1      33.930  13.097   8.771  0.00  0.00     0.115 C 
BRANCH  37  38
HETATM   38  C   UNK N   1      34.573  13.788   9.826  0.00  0.00     0.139 C 
HETATM   39  O   UNK N   1      35.124  14.851   9.600  0.00  0.00    -0.650 OA
BRANCH  38  40
HETATM   40  O   UNK N   1      34.215  13.444  11.073  0.00  0.00    -0.776 OA
HETATM   41  H   UNK N   1      34.684  13.647  11.859  0.00  0.00     0.167 HD
ENDBRANCH  38  40
ENDBRANCH  37  38
ENDBRANCH  36  37
ENDBRANCH  15  36
BRANCH  16  42
HETATM   42  C   UNK N   1      31.508  15.748   3.240  0.00  0.00     0.272 C 
HETATM   43  O   UNK N   1      32.400  15.412   2.480  0.00  0.00    -0.301 OA
ENDBRANCH  16  42
BRANCH  13  44
HETATM   44  C   UNK N   1      32.301  10.968   1.478  0.00  0.00     0.004 C 
HETATM   45  C   UNK N   1      33.070  11.541   0.601  0.00  0.00     0.012 C 
ENDBRANCH  13  44
TORSDOF 10
ENDMDL
MODEL 9
REMARK VINA RESULT:      -6.8      4.936     10.279
REMARK  10 active torsions:
REMARK  status: ('A' for Active; 'I' for Inactive)
REMARK    1  A    between atoms: C_20  and  C_6 
REMARK    2  A    between atoms: C_9  and  C_7 
REMARK    3  A    between atoms: C_21  and  C_7 
REMARK    4  A    between atoms: C_10  and  C_8 
REMARK    5  A    between atoms: C_22  and  C_8 
REMARK    6  A    between atoms: C_32  and  C_9 
REMARK    7  A    between atoms: C_33  and  C_10 
REMARK    8  A    between atoms: C_23  and  C_15 
REMARK    9  A    between atoms: O_40  and  C_32 
REMARK   10  A    between atoms: O_42  and  C_33 
ROOT
HETATM    1  C   UNK N   1      29.583  16.265   5.950  0.00  0.00     0.052 C 
HETATM    2  C   UNK N   1      19.784  12.764   4.038  0.00  0.00     0.051 C 
HETATM    3  C   UNK N   1      24.071  20.657   3.091  0.00  0.00     0.051 C 
HETATM    4  C   UNK N   1      23.799  13.321   1.966  0.00  0.00     0.051 C 
HETATM    5  C   UNK N   1      22.752  12.617   4.677  0.00  0.00     0.058 C 
HETATM    6  C   UNK N   1      25.608  18.750   4.975  0.00  0.00     0.064 C 
HETATM    7  C   UNK N   1      27.203  14.486   5.478  0.00  0.00     0.058 C 
HETATM    8  C   UNK N   1      22.153  16.677   3.246  0.00  0.00     0.064 C 
HETATM    9  C   UNK N   1      28.167  16.626   5.771  0.00  0.00    -0.021 C 
HETATM   10  C   UNK N   1      20.778  13.834   3.980  0.00  0.00    -0.025 C 
HETATM   11  C   UNK N   1      23.611  19.444   3.824  0.00  0.00    -0.025 C 
HETATM   12  C   UNK N   1      24.645  13.233   3.218  0.00  0.00    -0.024 C 
HETATM   13  C   UNK N   1      27.660  17.851   5.394  0.00  0.00     0.000 C 
HETATM   14  C   UNK N   1      20.792  15.062   3.311  0.00  0.00    -0.021 C 
HETATM   15  C   UNK N   1      22.517  18.769   3.525  0.00  0.00    -0.021 C 
HETATM   16  C   UNK N   1      25.708  14.069   3.436  0.00  0.00     0.032 C 
HETATM   17  C   UNK N   1      22.050  13.714   4.472  0.00  0.00     0.066 C 
HETATM   18  C   UNK N   1      24.211  12.844   4.500  0.00  0.00     0.041 C 
HETATM   19  C   UNK N   1      27.114  15.763   5.681  0.00  0.00     0.066 C 
HETATM   20  C   UNK N   1      24.305  18.590   4.636  0.00  0.00     0.066 C 
HETATM   21  C   UNK N   1      26.348  17.720   5.327  0.00  0.00     0.070 C 
HETATM   22  C   UNK N   1      21.885  15.604   3.692  0.00  0.00     0.066 C 
HETATM   23  C   UNK N   1      22.702  17.580   3.941  0.00  0.00     0.066 C 
HETATM   24  C   UNK N   1      26.114  13.806   4.774  0.00  0.00     0.048 C 
HETATM   25 Fe   UNK N   1      24.348  15.562   4.986  0.00  0.00     0.000 Fe
HETATM   26  N   UNK N   1      26.012  16.416   5.457  0.00  0.00    -0.248 N 
HETATM   27  N   UNK N   1      22.630  14.886   4.449  0.00  0.00    -0.248 N 
HETATM   28  N   UNK N   1      23.728  17.402   4.629  0.00  0.00    -0.248 N 
HETATM   29  N   UNK N   1      24.958  13.595   5.343  0.00  0.00    -0.170 NA
ENDROOT
BRANCH  14  30
HETATM   30  C   UNK N   1      19.986  15.913   2.332  0.00  0.00     0.052 C 
BRANCH  30  31
HETATM   31  C   UNK N   1      19.724  15.156   1.159  0.00  0.00     0.115 C 
BRANCH  31  32
HETATM   32  C   UNK N   1      19.504  16.269   0.224  0.00  0.00     0.139 C 
HETATM   33  O   UNK N   1      20.414  17.044  -0.072  0.00  0.00    -0.650 OA
BRANCH  32  34
HETATM   34  O   UNK N   1      18.259  16.525  -0.169  0.00  0.00    -0.776 OA
HETATM   35  H   UNK N   1      17.886  17.373  -0.030  0.00  0.00     0.167 HD
ENDBRANCH  32  34
ENDBRANCH  31  32
ENDBRANCH  30  31
ENDBRANCH  14  30
BRANCH  15  36
HETATM   36  C   UNK N   1      21.323  19.088   2.834  0.00  0.00     0.052 C 
BRANCH  36  37
HETATM   37  C   UNK N   1      21.724  20.454   2.435  0.00  0.00     0.115 C 
BRANCH  37  38
HETATM   38  C   UNK N   1      20.952  20.446   1.250  0.00  0.00     0.139 C 
HETATM   39  O   UNK N   1      21.416  20.917   0.226  0.00  0.00    -0.650 OA
BRANCH  38  40
HETATM   40  O   UNK N   1      19.922  19.586   1.211  0.00  0.00    -0.776 OA
HETATM   41  H   UNK N   1      19.874  18.759   1.652  0.00  0.00     0.167 HD
ENDBRANCH  38  40
ENDBRANCH  37  38
ENDBRANCH  36  37
ENDBRANCH  15  36
BRANCH  16  42
HETATM   42  C   UNK N   1      25.453  15.388   2.697  0.00  0.00     0.272 C 
HETATM   43  O   UNK N   1      26.183  16.084   2.013  0.00  0.00    -0.301 OA
ENDBRANCH  16  42
BRANCH  13  44
HETATM   44  C   UNK N   1      28.308  19.065   4.913  0.00  0.00     0.004 C 
HETATM   45  C   UNK N   1      28.242  20.176   5.584  0.00  0.00     0.012 C 
ENDBRANCH  13  44
TORSDOF 10
ENDMDL
