MODEL 1
REMARK VINA RESULT:      -5.0      0.000      0.000
REMARK  16 active torsions:
REMARK  status: ('A' for Active; 'I' for Inactive)
REMARK    1  A    between atoms: C_3  and  C_2 
REMARK    2  A    between atoms: C_4  and  C_2 
REMARK    3  A    between atoms: C_5  and  C_3 
REMARK    4  A    between atoms: C_8  and  C_4 
REMARK    5  A    between atoms: C_9  and  C_5 
REMARK    6  A    between atoms: C_10  and  C_6 
REMARK    7  A    between atoms: N_12  and  C_6 
REMARK    8  A    between atoms: N_13  and  C_7 
REMARK    9  A    between atoms: P_25  and  C_7 
REMARK   10  A    between atoms: C_11  and  C_8 
REMARK   11  A    between atoms: C_8  and  N_15 
REMARK   12  A    between atoms: C_9  and  O_17 
REMARK   13  A    between atoms: C_10  and  O_19 
REMARK   14  A    between atoms: O_21  and  C_11 
REMARK   15  A    between atoms: P_25  and  O_22 
REMARK   16  A    between atoms: P_25  and  O_23 
ROOT
HETATM    1  C   UNK N   1      40.598  22.020  -0.307  0.00  0.00     0.003 C 
ENDROOT
BRANCH   1   2
HETATM    2  C   UNK N   1      40.486  20.694   0.441  0.00  0.00     0.008 C 
BRANCH   2   3
HETATM    3  C   UNK N   1      39.897  20.884   1.830  0.00  0.00     0.083 C 
BRANCH   3   4
HETATM    4  C   UNK N   1      40.898  20.548   2.886  0.00  0.00     0.111 C 
HETATM    5  N   UNK N   1      42.115  20.949   2.736  0.00  0.00    -0.359 N 
ATOM      6  HN  UNK N   1      42.331  21.474   1.888  1.00  0.00     0.162 HD
BRANCH   5   7
HETATM    7  C   UNK N   1      43.200  20.714   3.667  0.00  0.00     0.190 C 
HETATM    8  C   UNK N   1      44.252  19.783   3.085  0.00  0.00     0.045 C 
BRANCH   7   9
HETATM    9  P   UNK N   1      43.965  22.318   4.243  0.00  0.00     0.258 P 
HETATM   10  O   UNK N   1      43.692  22.593   5.746  0.00  0.00    -0.652 OA
BRANCH   9  11
HETATM   11  O   UNK N   1      43.360  23.730   3.437  0.00  0.00    -0.328 OA
HETATM   12  H   UNK N   1      43.901  24.402   2.993  0.00  0.00     0.220 HD
ENDBRANCH   9  11
BRANCH   9  13
HETATM   13  O   UNK N   1      45.693  22.369   4.106  0.00  0.00    -0.328 OA
HETATM   14  H   UNK N   1      46.114  22.442   3.235  0.00  0.00     0.220 HD
ENDBRANCH   9  13
ENDBRANCH   7   9
ENDBRANCH   5   7
BRANCH   4  15
HETATM   15  O   UNK N   1      40.508  19.875   3.989  0.00  0.00    -0.350 OA
ATOM     16  HO  UNK N   1      39.743  19.312   3.952  1.00  0.00     0.219 HD
ENDBRANCH   4  15
ENDBRANCH   3   4
ENDBRANCH   2   3
ENDBRANCH   1   2
BRANCH   1  17
HETATM   17  C   UNK N   1      42.025  22.574  -0.387  0.00  0.00     0.036 C 
BRANCH  17  18
HETATM   18  C   UNK N   1      42.155  24.087  -0.093  0.00  0.00     0.181 C 
BRANCH  18  19
HETATM   19  C   UNK N   1      40.993  24.607   0.717  0.00  0.00     0.163 C 
HETATM   20  O   UNK N   1      40.867  24.318   1.897  0.00  0.00    -0.648 OA
BRANCH  19  21
HETATM   21  O   UNK N   1      40.063  25.379   0.124  0.00  0.00    -0.775 OA
HETATM   22  H   UNK N   1      39.228  25.030  -0.120  0.00  0.00     0.167 HD
ENDBRANCH  19  21
ENDBRANCH  18  19
BRANCH  18  23
HETATM   23  N   UNK N   1      43.397  24.397   0.596  0.00  0.00    -0.359 N 
HETATM   24  C   UNK N   1      44.168  25.382   0.276  0.00  0.00     0.129 C 
ATOM     25  HN  UNK N   1      43.674  23.803   1.377  1.00  0.00     0.162 HD
BRANCH  24  26
HETATM   26  C   UNK N   1      45.446  25.583   1.017  0.00  0.00     0.195 C 
BRANCH  26  27
HETATM   27  N   UNK N   1      45.822  24.358   1.697  0.00  0.00    -0.423 N 
HETATM   28  H   UNK N   1      45.440  24.021   2.580  0.00  0.00     0.150 HD
HETATM   29  H   UNK N   1      46.534  23.779   1.251  0.00  0.00     0.150 HD
ENDBRANCH  26  27
ENDBRANCH  24  26
BRANCH  24  30
HETATM   30  O   UNK N   1      43.852  26.210  -0.742  0.00  0.00    -0.348 OA
HETATM   31  H   UNK N   1      43.828  26.372  -1.664  0.00  0.00     0.219 HD
ENDBRANCH  24  30
ENDBRANCH  18  23
ENDBRANCH  17  18
ENDBRANCH   1  17
TORSDOF 16
ENDMDL
MODEL 2
REMARK VINA RESULT:      -5.0     11.677     14.767
REMARK  16 active torsions:
REMARK  status: ('A' for Active; 'I' for Inactive)
REMARK    1  A    between atoms: C_3  and  C_2 
REMARK    2  A    between atoms: C_4  and  C_2 
REMARK    3  A    between atoms: C_5  and  C_3 
REMARK    4  A    between atoms: C_8  and  C_4 
REMARK    5  A    between atoms: C_9  and  C_5 
REMARK    6  A    between atoms: C_10  and  C_6 
REMARK    7  A    between atoms: N_12  and  C_6 
REMARK    8  A    between atoms: N_13  and  C_7 
REMARK    9  A    between atoms: P_25  and  C_7 
REMARK   10  A    between atoms: C_11  and  C_8 
REMARK   11  A    between atoms: C_8  and  N_15 
REMARK   12  A    between atoms: C_9  and  O_17 
REMARK   13  A    between atoms: C_10  and  O_19 
REMARK   14  A    between atoms: O_21  and  C_11 
REMARK   15  A    between atoms: P_25  and  O_22 
REMARK   16  A    between atoms: P_25  and  O_23 
ROOT
HETATM    1  C   UNK N   1      31.231  16.786   8.816  0.00  0.00     0.003 C 
ENDROOT
BRANCH   1   2
HETATM    2  C   UNK N   1      30.890  18.273   8.840  0.00  0.00     0.008 C 
BRANCH   2   3
HETATM    3  C   UNK N   1      29.653  18.549   9.680  0.00  0.00     0.083 C 
BRANCH   3   4
HETATM    4  C   UNK N   1      28.437  18.662   8.821  0.00  0.00     0.111 C 
HETATM    5  N   UNK N   1      28.545  19.228   7.666  0.00  0.00    -0.359 N 
ATOM      6  HN  UNK N   1      29.467  19.577   7.403  1.00  0.00     0.162 HD
BRANCH   5   7
HETATM    7  C   UNK N   1      27.469  19.409   6.713  0.00  0.00     0.190 C 
HETATM    8  C   UNK N   1      27.106  20.876   6.544  0.00  0.00     0.045 C 
BRANCH   7   9
HETATM    9  P   UNK N   1      27.873  18.622   5.068  0.00  0.00     0.258 P 
HETATM   10  O   UNK N   1      29.242  17.891   5.087  0.00  0.00    -0.652 OA
BRANCH   9  11
HETATM   11  O   UNK N   1      28.010  19.743   3.752  0.00  0.00    -0.328 OA
HETATM   12  H   UNK N   1      28.320  19.529   2.858  0.00  0.00     0.220 HD
ENDBRANCH   9  11
BRANCH   9  13
HETATM   13  O   UNK N   1      26.745  17.403   4.568  0.00  0.00    -0.328 OA
HETATM   14  H   UNK N   1      26.128  17.013   5.208  0.00  0.00     0.220 HD
ENDBRANCH   9  13
ENDBRANCH   7   9
ENDBRANCH   5   7
BRANCH   4  15
HETATM   15  O   UNK N   1      27.267  18.139   9.243  0.00  0.00    -0.350 OA
ATOM     16  HO  UNK N   1      26.492  18.216   8.699  1.00  0.00     0.219 HD
ENDBRANCH   4  15
ENDBRANCH   3   4
ENDBRANCH   2   3
ENDBRANCH   1   2
BRANCH   1  17
HETATM   17  C   UNK N   1      32.731  16.489   8.708  0.00  0.00     0.036 C 
BRANCH  17  18
HETATM   18  C   UNK N   1      33.532  17.477   7.828  0.00  0.00     0.181 C 
BRANCH  18  19
HETATM   19  C   UNK N   1      34.720  18.051   8.562  0.00  0.00     0.163 C 
HETATM   20  O   UNK N   1      35.279  19.061   8.164  0.00  0.00    -0.648 OA
BRANCH  19  21
HETATM   21  O   UNK N   1      35.188  17.424   9.657  0.00  0.00    -0.775 OA
HETATM   22  H   UNK N   1      35.749  17.866  10.264  0.00  0.00     0.167 HD
ENDBRANCH  19  21
ENDBRANCH  18  19
BRANCH  18  23
HETATM   23  N   UNK N   1      33.985  16.856   6.594  0.00  0.00    -0.359 N 
HETATM   24  C   UNK N   1      33.299  16.850   5.501  0.00  0.00     0.129 C 
ATOM     25  HN  UNK N   1      34.897  16.399   6.594  1.00  0.00     0.162 HD
BRANCH  24  26
HETATM   26  C   UNK N   1      33.834  16.141   4.304  0.00  0.00     0.195 C 
BRANCH  26  27
HETATM   27  N   UNK N   1      32.749  15.800   3.403  0.00  0.00    -0.423 N 
HETATM   28  H   UNK N   1      32.475  14.859   3.124  0.00  0.00     0.150 HD
HETATM   29  H   UNK N   1      32.210  16.574   3.013  0.00  0.00     0.150 HD
ENDBRANCH  26  27
ENDBRANCH  24  26
BRANCH  24  30
HETATM   30  O   UNK N   1      32.090  17.446   5.435  0.00  0.00    -0.348 OA
HETATM   31  H   UNK N   1      31.586  18.220   5.278  0.00  0.00     0.219 HD
ENDBRANCH  24  30
ENDBRANCH  18  23
ENDBRANCH  17  18
ENDBRANCH   1  17
TORSDOF 16
ENDMDL
MODEL 3
REMARK VINA RESULT:      -4.9     12.322     15.368
REMARK  16 active torsions:
REMARK  status: ('A' for Active; 'I' for Inactive)
REMARK    1  A    between atoms: C_3  and  C_2 
REMARK    2  A    between atoms: C_4  and  C_2 
REMARK    3  A    between atoms: C_5  and  C_3 
REMARK    4  A    between atoms: C_8  and  C_4 
REMARK    5  A    between atoms: C_9  and  C_5 
REMARK    6  A    between atoms: C_10  and  C_6 
REMARK    7  A    between atoms: N_12  and  C_6 
REMARK    8  A    between atoms: N_13  and  C_7 
REMARK    9  A    between atoms: P_25  and  C_7 
REMARK   10  A    between atoms: C_11  and  C_8 
REMARK   11  A    between atoms: C_8  and  N_15 
REMARK   12  A    between atoms: C_9  and  O_17 
REMARK   13  A    between atoms: C_10  and  O_19 
REMARK   14  A    between atoms: O_21  and  C_11 
REMARK   15  A    between atoms: P_25  and  O_22 
REMARK   16  A    between atoms: P_25  and  O_23 
ROOT
HETATM    1  C   UNK N   1      31.167  16.834   8.149  0.00  0.00     0.003 C 
ENDROOT
BRANCH   1   2
HETATM    2  C   UNK N   1      30.195  17.067   9.302  0.00  0.00     0.008 C 
BRANCH   2   3
HETATM    3  C   UNK N   1      29.762  18.523   9.382  0.00  0.00     0.083 C 
BRANCH   3   4
HETATM    4  C   UNK N   1      28.491  18.745   8.633  0.00  0.00     0.111 C 
HETATM    5  N   UNK N   1      28.552  19.228   7.438  0.00  0.00    -0.359 N 
ATOM      6  HN  UNK N   1      29.479  19.440   7.068  1.00  0.00     0.162 HD
BRANCH   5   7
HETATM    7  C   UNK N   1      27.417  19.495   6.578  0.00  0.00     0.190 C 
HETATM    8  C   UNK N   1      27.035  20.967   6.589  0.00  0.00     0.045 C 
BRANCH   7   9
HETATM    9  P   UNK N   1      27.723  18.892   4.837  0.00  0.00     0.258 P 
HETATM   10  O   UNK N   1      27.420  19.982   3.776  0.00  0.00    -0.652 OA
BRANCH   9  11
HETATM   11  O   UNK N   1      26.733  17.549   4.360  0.00  0.00    -0.328 OA
HETATM   12  H   UNK N   1      26.224  16.982   4.961  0.00  0.00     0.220 HD
ENDBRANCH   9  11
BRANCH   9  13
HETATM   13  O   UNK N   1      29.366  18.434   4.523  0.00  0.00    -0.328 OA
HETATM   14  H   UNK N   1      29.715  17.595   4.863  0.00  0.00     0.220 HD
ENDBRANCH   9  13
ENDBRANCH   7   9
ENDBRANCH   5   7
BRANCH   4  15
HETATM   15  O   UNK N   1      27.313  18.403   9.196  0.00  0.00    -0.350 OA
ATOM     16  HO  UNK N   1      27.257  17.621   9.734  1.00  0.00     0.219 HD
ENDBRANCH   4  15
ENDBRANCH   3   4
ENDBRANCH   2   3
ENDBRANCH   1   2
BRANCH   1  17
HETATM   17  C   UNK N   1      32.379  17.773   8.152  0.00  0.00     0.036 C 
BRANCH  17  18
HETATM   18  C   UNK N   1      33.752  17.068   8.241  0.00  0.00     0.181 C 
BRANCH  18  19
HETATM   19  C   UNK N   1      34.796  17.946   8.888  0.00  0.00     0.163 C 
HETATM   20  O   UNK N   1      35.380  17.591   9.900  0.00  0.00    -0.648 OA
BRANCH  19  21
HETATM   21  O   UNK N   1      35.070  19.152   8.356  0.00  0.00    -0.775 OA
HETATM   22  H   UNK N   1      35.248  19.248   7.441  0.00  0.00     0.167 HD
ENDBRANCH  19  21
ENDBRANCH  18  19
BRANCH  18  23
HETATM   23  N   UNK N   1      33.667  15.811   8.967  0.00  0.00    -0.359 N 
HETATM   24  C   UNK N   1      33.990  14.668   8.462  0.00  0.00     0.129 C 
ATOM     25  HN  UNK N   1      33.333  15.834   9.930  1.00  0.00     0.162 HD
BRANCH  24  26
HETATM   26  C   UNK N   1      33.818  13.432   9.276  0.00  0.00     0.195 C 
BRANCH  26  27
HETATM   27  N   UNK N   1      32.461  12.934   9.140  0.00  0.00    -0.423 N 
HETATM   28  H   UNK N   1      31.752  13.293   8.502  0.00  0.00     0.150 HD
HETATM   29  H   UNK N   1      32.193  12.153   9.739  0.00  0.00     0.150 HD
ENDBRANCH  26  27
ENDBRANCH  24  26
BRANCH  24  30
HETATM   30  O   UNK N   1      34.448  14.572   7.195  0.00  0.00    -0.348 OA
HETATM   31  H   UNK N   1      34.290  14.338   6.302  0.00  0.00     0.219 HD
ENDBRANCH  24  30
ENDBRANCH  18  23
ENDBRANCH  17  18
ENDBRANCH   1  17
TORSDOF 16
ENDMDL
MODEL 4
REMARK VINA RESULT:      -4.8     12.700     14.724
REMARK  16 active torsions:
REMARK  status: ('A' for Active; 'I' for Inactive)
REMARK    1  A    between atoms: C_3  and  C_2 
REMARK    2  A    between atoms: C_4  and  C_2 
REMARK    3  A    between atoms: C_5  and  C_3 
REMARK    4  A    between atoms: C_8  and  C_4 
REMARK    5  A    between atoms: C_9  and  C_5 
REMARK    6  A    between atoms: C_10  and  C_6 
REMARK    7  A    between atoms: N_12  and  C_6 
REMARK    8  A    between atoms: N_13  and  C_7 
REMARK    9  A    between atoms: P_25  and  C_7 
REMARK   10  A    between atoms: C_11  and  C_8 
REMARK   11  A    between atoms: C_8  and  N_15 
REMARK   12  A    between atoms: C_9  and  O_17 
REMARK   13  A    between atoms: C_10  and  O_19 
REMARK   14  A    between atoms: O_21  and  C_11 
REMARK   15  A    between atoms: P_25  and  O_22 
REMARK   16  A    between atoms: P_25  and  O_23 
ROOT
HETATM    1  C   UNK N   1      33.883  17.163   6.267  0.00  0.00     0.003 C 
ENDROOT
BRANCH   1   2
HETATM    2  C   UNK N   1      32.832  17.478   5.208  0.00  0.00     0.008 C 
BRANCH   2   3
HETATM    3  C   UNK N   1      31.778  16.384   5.123  0.00  0.00     0.083 C 
BRANCH   3   4
HETATM    4  C   UNK N   1      30.403  16.961   5.163  0.00  0.00     0.111 C 
HETATM    5  N   UNK N   1      29.751  16.935   6.277  0.00  0.00    -0.359 N 
ATOM      6  HN  UNK N   1      30.217  16.509   7.079  1.00  0.00     0.162 HD
BRANCH   5   7
HETATM    7  C   UNK N   1      28.416  17.459   6.485  0.00  0.00     0.190 C 
HETATM    8  C   UNK N   1      27.384  16.346   6.588  0.00  0.00     0.045 C 
BRANCH   7   9
HETATM    9  P   UNK N   1      28.347  18.582   7.975  0.00  0.00     0.258 P 
HETATM   10  O   UNK N   1      27.716  19.960   7.644  0.00  0.00    -0.652 OA
BRANCH   9  11
HETATM   11  O   UNK N   1      29.897  18.976   8.647  0.00  0.00    -0.328 OA
HETATM   12  H   UNK N   1      30.687  18.413   8.611  0.00  0.00     0.220 HD
ENDBRANCH   9  11
BRANCH   9  13
HETATM   13  O   UNK N   1      27.381  17.971   9.279  0.00  0.00    -0.328 OA
HETATM   14  H   UNK N   1      26.430  17.821   9.157  0.00  0.00     0.220 HD
ENDBRANCH   9  13
ENDBRANCH   7   9
ENDBRANCH   5   7
BRANCH   4  15
HETATM   15  O   UNK N   1      29.884  17.534   4.056  0.00  0.00    -0.350 OA
ATOM     16  HO  UNK N   1      29.332  18.303   4.138  1.00  0.00     0.219 HD
ENDBRANCH   4  15
ENDBRANCH   3   4
ENDBRANCH   2   3
ENDBRANCH   1   2
BRANCH   1  17
HETATM   17  C   UNK N   1      33.648  17.864   7.610  0.00  0.00     0.036 C 
BRANCH  17  18
HETATM   18  C   UNK N   1      33.467  16.916   8.819  0.00  0.00     0.181 C 
BRANCH  18  19
HETATM   19  C   UNK N   1      32.249  16.037   8.670  0.00  0.00     0.163 C 
HETATM   20  O   UNK N   1      31.125  16.480   8.846  0.00  0.00    -0.648 OA
BRANCH  19  21
HETATM   21  O   UNK N   1      32.405  14.735   8.364  0.00  0.00    -0.775 OA
HETATM   22  H   UNK N   1      32.703  14.120   9.006  0.00  0.00     0.167 HD
ENDBRANCH  19  21
ENDBRANCH  18  19
BRANCH  18  23
HETATM   23  N   UNK N   1      34.638  16.081   9.029  0.00  0.00    -0.359 N 
HETATM   24  C   UNK N   1      35.335  16.082  10.116  0.00  0.00     0.129 C 
ATOM     25  HN  UNK N   1      34.926  15.458   8.274  1.00  0.00     0.162 HD
BRANCH  24  26
HETATM   26  C   UNK N   1      36.548  15.222  10.210  0.00  0.00     0.195 C 
BRANCH  26  27
HETATM   27  N   UNK N   1      36.819  14.898  11.598  0.00  0.00    -0.423 N 
HETATM   28  H   UNK N   1      36.472  15.406  12.411  0.00  0.00     0.150 HD
HETATM   29  H   UNK N   1      37.411  14.087  11.777  0.00  0.00     0.150 HD
ENDBRANCH  26  27
ENDBRANCH  24  26
BRANCH  24  30
HETATM   30  O   UNK N   1      35.000  16.877  11.154  0.00  0.00    -0.348 OA
HETATM   31  H   UNK N   1      35.235  17.567  11.743  0.00  0.00     0.219 HD
ENDBRANCH  24  30
ENDBRANCH  18  23
ENDBRANCH  17  18
ENDBRANCH   1  17
TORSDOF 16
ENDMDL
MODEL 5
REMARK VINA RESULT:      -4.8     13.207     15.143
REMARK  16 active torsions:
REMARK  status: ('A' for Active; 'I' for Inactive)
REMARK    1  A    between atoms: C_3  and  C_2 
REMARK    2  A    between atoms: C_4  and  C_2 
REMARK    3  A    between atoms: C_5  and  C_3 
REMARK    4  A    between atoms: C_8  and  C_4 
REMARK    5  A    between atoms: C_9  and  C_5 
REMARK    6  A    between atoms: C_10  and  C_6 
REMARK    7  A    between atoms: N_12  and  C_6 
REMARK    8  A    between atoms: N_13  and  C_7 
REMARK    9  A    between atoms: P_25  and  C_7 
REMARK   10  A    between atoms: C_11  and  C_8 
REMARK   11  A    between atoms: C_8  and  N_15 
REMARK   12  A    between atoms: C_9  and  O_17 
REMARK   13  A    between atoms: C_10  and  O_19 
REMARK   14  A    between atoms: O_21  and  C_11 
REMARK   15  A    between atoms: P_25  and  O_22 
REMARK   16  A    between atoms: P_25  and  O_23 
ROOT
HETATM    1  C   UNK N   1      35.940  13.071   9.016  0.00  0.00     0.003 C 
ENDROOT
BRANCH   1   2
HETATM    2  C   UNK N   1      37.409  12.662   9.052  0.00  0.00     0.008 C 
BRANCH   2   3
HETATM    3  C   UNK N   1      37.649  11.522  10.030  0.00  0.00     0.083 C 
BRANCH   3   4
HETATM    4  C   UNK N   1      37.438  11.971  11.437  0.00  0.00     0.111 C 
HETATM    5  N   UNK N   1      36.751  11.220  12.231  0.00  0.00    -0.359 N 
ATOM      6  HN  UNK N   1      36.379  10.352  11.845  1.00  0.00     0.162 HD
BRANCH   5   7
HETATM    7  C   UNK N   1      36.464  11.506  13.622  0.00  0.00     0.190 C 
HETATM    8  C   UNK N   1      37.731  11.550  14.462  0.00  0.00     0.045 C 
BRANCH   7   9
HETATM    9  P   UNK N   1      35.479  13.083  13.806  0.00  0.00     0.258 P 
HETATM   10  O   UNK N   1      36.390  14.331  13.946  0.00  0.00    -0.652 OA
BRANCH   9  11
HETATM   11  O   UNK N   1      34.468  13.135  15.215  0.00  0.00    -0.328 OA
HETATM   12  H   UNK N   1      33.866  13.858  15.450  0.00  0.00     0.220 HD
ENDBRANCH   9  11
BRANCH   9  13
HETATM   13  O   UNK N   1      34.461  13.445  12.450  0.00  0.00    -0.328 OA
HETATM   14  H   UNK N   1      33.513  13.607  12.577  0.00  0.00     0.220 HD
ENDBRANCH   9  13
ENDBRANCH   7   9
ENDBRANCH   5   7
BRANCH   4  15
HETATM   15  O   UNK N   1      38.000  13.121  11.864  0.00  0.00    -0.350 OA
ATOM     16  HO  UNK N   1      38.761  13.092  12.433  1.00  0.00     0.219 HD
ENDBRANCH   4  15
ENDBRANCH   3   4
ENDBRANCH   2   3
ENDBRANCH   1   2
BRANCH   1  17
HETATM   17  C   UNK N   1      35.707  14.540   8.645  0.00  0.00     0.036 C 
BRANCH  17  18
HETATM   18  C   UNK N   1      34.826  15.333   9.638  0.00  0.00     0.181 C 
BRANCH  18  19
HETATM   19  C   UNK N   1      35.646  16.247  10.516  0.00  0.00     0.163 C 
HETATM   20  O   UNK N   1      35.584  17.461  10.395  0.00  0.00    -0.648 OA
BRANCH  19  21
HETATM   21  O   UNK N   1      36.482  15.716  11.428  0.00  0.00    -0.775 OA
HETATM   22  H   UNK N   1      37.226  15.210  11.165  0.00  0.00     0.167 HD
ENDBRANCH  19  21
ENDBRANCH  18  19
BRANCH  18  23
HETATM   23  N   UNK N   1      33.808  16.112   8.953  0.00  0.00    -0.359 N 
HETATM   24  C   UNK N   1      32.541  15.981   9.163  0.00  0.00     0.129 C 
ATOM     25  HN  UNK N   1      34.114  16.802   8.266  1.00  0.00     0.162 HD
BRANCH  24  26
HETATM   26  C   UNK N   1      31.579  16.796   8.369  0.00  0.00     0.195 C 
BRANCH  26  27
HETATM   27  N   UNK N   1      30.802  17.645   9.253  0.00  0.00    -0.423 N 
HETATM   28  H   UNK N   1      31.113  18.023  10.147  0.00  0.00     0.150 HD
HETATM   29  H   UNK N   1      29.858  17.887   8.952  0.00  0.00     0.150 HD
ENDBRANCH  26  27
ENDBRANCH  24  26
BRANCH  24  30
HETATM   30  O   UNK N   1      32.075  15.092  10.065  0.00  0.00    -0.348 OA
HETATM   31  H   UNK N   1      32.154  14.256  10.480  0.00  0.00     0.219 HD
ENDBRANCH  24  30
ENDBRANCH  18  23
ENDBRANCH  17  18
ENDBRANCH   1  17
TORSDOF 16
ENDMDL
MODEL 6
REMARK VINA RESULT:      -4.7     12.252     15.258
REMARK  16 active torsions:
REMARK  status: ('A' for Active; 'I' for Inactive)
REMARK    1  A    between atoms: C_3  and  C_2 
REMARK    2  A    between atoms: C_4  and  C_2 
REMARK    3  A    between atoms: C_5  and  C_3 
REMARK    4  A    between atoms: C_8  and  C_4 
REMARK    5  A    between atoms: C_9  and  C_5 
REMARK    6  A    between atoms: C_10  and  C_6 
REMARK    7  A    between atoms: N_12  and  C_6 
REMARK    8  A    between atoms: N_13  and  C_7 
REMARK    9  A    between atoms: P_25  and  C_7 
REMARK   10  A    between atoms: C_11  and  C_8 
REMARK   11  A    between atoms: C_8  and  N_15 
REMARK   12  A    between atoms: C_9  and  O_17 
REMARK   13  A    between atoms: C_10  and  O_19 
REMARK   14  A    between atoms: O_21  and  C_11 
REMARK   15  A    between atoms: P_25  and  O_22 
REMARK   16  A    between atoms: P_25  and  O_23 
ROOT
HETATM    1  C   UNK N   1      31.712  18.088   8.656  0.00  0.00     0.003 C 
ENDROOT
BRANCH   1   2
HETATM    2  C   UNK N   1      30.352  18.645   9.063  0.00  0.00     0.008 C 
BRANCH   2   3
HETATM    3  C   UNK N   1      29.273  17.574   9.019  0.00  0.00     0.083 C 
BRANCH   3   4
HETATM    4  C   UNK N   1      28.222  17.914   8.015  0.00  0.00     0.111 C 
HETATM    5  N   UNK N   1      28.311  19.034   7.380  0.00  0.00    -0.359 N 
ATOM      6  HN  UNK N   1      29.102  19.637   7.607  1.00  0.00     0.162 HD
BRANCH   5   7
HETATM    7  C   UNK N   1      27.382  19.507   6.372  0.00  0.00     0.190 C 
HETATM    8  C   UNK N   1      27.273  21.024   6.375  0.00  0.00     0.045 C 
BRANCH   7   9
HETATM    9  P   UNK N   1      27.831  18.867   4.676  0.00  0.00     0.258 P 
HETATM   10  O   UNK N   1      26.979  17.637   4.268  0.00  0.00    -0.652 OA
BRANCH   9  11
HETATM   11  O   UNK N   1      29.469  18.317   4.528  0.00  0.00    -0.328 OA
HETATM   12  H   UNK N   1      29.743  17.421   4.273  0.00  0.00     0.220 HD
ENDBRANCH   9  11
BRANCH   9  13
HETATM   13  O   UNK N   1      27.573  20.010   3.396  0.00  0.00    -0.328 OA
HETATM   14  H   UNK N   1      26.895  20.699   3.483  0.00  0.00     0.220 HD
ENDBRANCH   9  13
ENDBRANCH   7   9
ENDBRANCH   5   7
BRANCH   4  15
HETATM   15  O   UNK N   1      27.230  17.035   7.759  0.00  0.00    -0.350 OA
ATOM     16  HO  UNK N   1      26.423  17.338   7.359  1.00  0.00     0.219 HD
ENDBRANCH   4  15
ENDBRANCH   3   4
ENDBRANCH   2   3
ENDBRANCH   1   2
BRANCH   1  17
HETATM   17  C   UNK N   1      31.637  16.847   7.758  0.00  0.00     0.036 C 
BRANCH  17  18
HETATM   18  C   UNK N   1      32.984  16.121   7.534  0.00  0.00     0.181 C 
BRANCH  18  19
HETATM   19  C   UNK N   1      33.746  16.694   6.363  0.00  0.00     0.163 C 
HETATM   20  O   UNK N   1      33.734  16.144   5.272  0.00  0.00    -0.648 OA
BRANCH  19  21
HETATM   21  O   UNK N   1      34.475  17.814   6.530  0.00  0.00    -0.775 OA
HETATM   22  H   UNK N   1      34.203  18.628   6.154  0.00  0.00     0.167 HD
ENDBRANCH  19  21
ENDBRANCH  18  19
BRANCH  18  23
HETATM   23  N   UNK N   1      33.824  16.164   8.719  0.00  0.00    -0.359 N 
HETATM   24  C   UNK N   1      33.774  15.288   9.666  0.00  0.00     0.129 C 
ATOM     25  HN  UNK N   1      34.491  16.931   8.808  1.00  0.00     0.162 HD
BRANCH  24  26
HETATM   26  C   UNK N   1      34.645  15.453  10.864  0.00  0.00     0.195 C 
BRANCH  26  27
HETATM   27  N   UNK N   1      35.084  16.831  10.971  0.00  0.00    -0.423 N 
HETATM   28  H   UNK N   1      34.759  17.512  11.657  0.00  0.00     0.150 HD
HETATM   29  H   UNK N   1      35.783  17.149  10.299  0.00  0.00     0.150 HD
ENDBRANCH  26  27
ENDBRANCH  24  26
BRANCH  24  30
HETATM   30  O   UNK N   1      32.919  14.245   9.603  0.00  0.00    -0.348 OA
HETATM   31  H   UNK N   1      32.285  13.758   9.115  0.00  0.00     0.219 HD
ENDBRANCH  24  30
ENDBRANCH  18  23
ENDBRANCH  17  18
ENDBRANCH   1  17
TORSDOF 16
ENDMDL
MODEL 7
REMARK VINA RESULT:      -4.7     12.075     14.639
REMARK  16 active torsions:
REMARK  status: ('A' for Active; 'I' for Inactive)
REMARK    1  A    between atoms: C_3  and  C_2 
REMARK    2  A    between atoms: C_4  and  C_2 
REMARK    3  A    between atoms: C_5  and  C_3 
REMARK    4  A    between atoms: C_8  and  C_4 
REMARK    5  A    between atoms: C_9  and  C_5 
REMARK    6  A    between atoms: C_10  and  C_6 
REMARK    7  A    between atoms: N_12  and  C_6 
REMARK    8  A    between atoms: N_13  and  C_7 
REMARK    9  A    between atoms: P_25  and  C_7 
REMARK   10  A    between atoms: C_11  and  C_8 
REMARK   11  A    between atoms: C_8  and  N_15 
REMARK   12  A    between atoms: C_9  and  O_17 
REMARK   13  A    between atoms: C_10  and  O_19 
REMARK   14  A    between atoms: O_21  and  C_11 
REMARK   15  A    between atoms: P_25  and  O_22 
REMARK   16  A    between atoms: P_25  and  O_23 
ROOT
HETATM    1  C   UNK N   1      34.496  14.657   8.907  0.00  0.00     0.003 C 
ENDROOT
BRANCH   1   2
HETATM    2  C   UNK N   1      35.845  15.073   9.487  0.00  0.00     0.008 C 
BRANCH   2   3
HETATM    3  C   UNK N   1      35.726  15.465  10.952  0.00  0.00     0.083 C 
BRANCH   3   4
HETATM    4  C   UNK N   1      35.507  14.264  11.811  0.00  0.00     0.111 C 
HETATM    5  N   UNK N   1      36.531  13.569  12.177  0.00  0.00    -0.359 N 
ATOM      6  HN  UNK N   1      37.446  13.879  11.849  1.00  0.00     0.162 HD
BRANCH   5   7
HETATM    7  C   UNK N   1      36.491  12.386  13.013  0.00  0.00     0.190 C 
HETATM    8  C   UNK N   1      37.676  11.470  12.752  0.00  0.00     0.045 C 
BRANCH   7   9
HETATM    9  P   UNK N   1      36.371  12.832  14.823  0.00  0.00     0.258 P 
HETATM   10  O   UNK N   1      34.973  13.388  15.200  0.00  0.00    -0.652 OA
BRANCH   9  11
HETATM   11  O   UNK N   1      37.472  14.074  15.328  0.00  0.00    -0.328 OA
HETATM   12  H   UNK N   1      37.568  14.409  16.234  0.00  0.00     0.220 HD
ENDBRANCH   9  11
BRANCH   9  13
HETATM   13  O   UNK N   1      36.604  11.493  15.900  0.00  0.00    -0.328 OA
HETATM   14  H   UNK N   1      37.030  10.679  15.587  0.00  0.00     0.220 HD
ENDBRANCH   9  13
ENDBRANCH   7   9
ENDBRANCH   5   7
BRANCH   4  15
HETATM   15  O   UNK N   1      34.259  13.951  12.221  0.00  0.00    -0.350 OA
ATOM     16  HO  UNK N   1      33.660  13.520  11.623  1.00  0.00     0.219 HD
ENDBRANCH   4  15
ENDBRANCH   3   4
ENDBRANCH   2   3
ENDBRANCH   1   2
BRANCH   1  17
HETATM   17  C   UNK N   1      33.784  15.765   8.122  0.00  0.00     0.036 C 
BRANCH  17  18
HETATM   18  C   UNK N   1      33.816  17.161   8.787  0.00  0.00     0.181 C 
BRANCH  18  19
HETATM   19  C   UNK N   1      34.471  18.194   7.901  0.00  0.00     0.163 C 
HETATM   20  O   UNK N   1      35.016  19.178   8.375  0.00  0.00    -0.648 OA
BRANCH  19  21
HETATM   21  O   UNK N   1      34.428  18.042   6.564  0.00  0.00    -0.775 OA
HETATM   22  H   UNK N   1      34.654  18.748   5.990  0.00  0.00     0.167 HD
ENDBRANCH  19  21
ENDBRANCH  18  19
BRANCH  18  23
HETATM   23  N   UNK N   1      32.484  17.616   9.150  0.00  0.00    -0.359 N 
HETATM   24  C   UNK N   1      31.494  17.667   8.324  0.00  0.00     0.129 C 
ATOM     25  HN  UNK N   1      32.324  17.913  10.113  1.00  0.00     0.162 HD
BRANCH  24  26
HETATM   26  C   UNK N   1      30.180  18.197   8.786  0.00  0.00     0.195 C 
BRANCH  26  27
HETATM   27  N   UNK N   1      29.765  17.509   9.994  0.00  0.00    -0.423 N 
HETATM   28  H   UNK N   1      29.696  16.499  10.114  0.00  0.00     0.150 HD
HETATM   29  H   UNK N   1      29.518  18.088  10.796  0.00  0.00     0.150 HD
ENDBRANCH  26  27
ENDBRANCH  24  26
BRANCH  24  30
HETATM   30  O   UNK N   1      31.641  17.280   7.039  0.00  0.00    -0.348 OA
HETATM   31  H   UNK N   1      31.665  16.587   6.409  0.00  0.00     0.219 HD
ENDBRANCH  24  30
ENDBRANCH  18  23
ENDBRANCH  17  18
ENDBRANCH   1  17
TORSDOF 16
ENDMDL
MODEL 8
REMARK VINA RESULT:      -4.7     12.866     15.437
REMARK  16 active torsions:
REMARK  status: ('A' for Active; 'I' for Inactive)
REMARK    1  A    between atoms: C_3  and  C_2 
REMARK    2  A    between atoms: C_4  and  C_2 
REMARK    3  A    between atoms: C_5  and  C_3 
REMARK    4  A    between atoms: C_8  and  C_4 
REMARK    5  A    between atoms: C_9  and  C_5 
REMARK    6  A    between atoms: C_10  and  C_6 
REMARK    7  A    between atoms: N_12  and  C_6 
REMARK    8  A    between atoms: N_13  and  C_7 
REMARK    9  A    between atoms: P_25  and  C_7 
REMARK   10  A    between atoms: C_11  and  C_8 
REMARK   11  A    between atoms: C_8  and  N_15 
REMARK   12  A    between atoms: C_9  and  O_17 
REMARK   13  A    between atoms: C_10  and  O_19 
REMARK   14  A    between atoms: O_21  and  C_11 
REMARK   15  A    between atoms: P_25  and  O_22 
REMARK   16  A    between atoms: P_25  and  O_23 
ROOT
HETATM    1  C   UNK N   1      33.600  17.314   5.902  0.00  0.00     0.003 C 
ENDROOT
BRANCH   1   2
HETATM    2  C   UNK N   1      32.545  17.612   4.841  0.00  0.00     0.008 C 
BRANCH   2   3
HETATM    3  C   UNK N   1      31.597  16.438   4.650  0.00  0.00     0.083 C 
BRANCH   3   4
HETATM    4  C   UNK N   1      30.391  16.846   3.871  0.00  0.00     0.111 C 
HETATM    5  N   UNK N   1      29.314  17.153   4.511  0.00  0.00    -0.359 N 
ATOM      6  HN  UNK N   1      29.344  17.093   5.529  1.00  0.00     0.162 HD
BRANCH   5   7
HETATM    7  C   UNK N   1      28.066  17.575   3.908  0.00  0.00     0.190 C 
HETATM    8  C   UNK N   1      27.132  16.400   3.665  0.00  0.00     0.045 C 
BRANCH   7   9
HETATM    9  P   UNK N   1      27.230  18.901   4.923  0.00  0.00     0.258 P 
HETATM   10  O   UNK N   1      27.040  20.219   4.127  0.00  0.00    -0.652 OA
BRANCH   9  11
HETATM   11  O   UNK N   1      28.112  19.383   6.337  0.00  0.00    -0.328 OA
HETATM   12  H   UNK N   1      28.349  20.295   6.571  0.00  0.00     0.220 HD
ENDBRANCH   9  11
BRANCH   9  13
HETATM   13  O   UNK N   1      25.631  18.486   5.452  0.00  0.00    -0.328 OA
HETATM   14  H   UNK N   1      25.434  18.400   6.399  0.00  0.00     0.220 HD
ENDBRANCH   9  13
ENDBRANCH   7   9
ENDBRANCH   5   7
BRANCH   4  15
HETATM   15  O   UNK N   1      30.458  16.927   2.525  0.00  0.00    -0.350 OA
ATOM     16  HO  UNK N   1      30.086  16.234   1.991  1.00  0.00     0.219 HD
ENDBRANCH   4  15
ENDBRANCH   3   4
ENDBRANCH   2   3
ENDBRANCH   1   2
BRANCH   1  17
HETATM   17  C   UNK N   1      33.236  17.816   7.304  0.00  0.00     0.036 C 
BRANCH  17  18
HETATM   18  C   UNK N   1      32.364  16.850   8.139  0.00  0.00     0.181 C 
BRANCH  18  19
HETATM   19  C   UNK N   1      33.200  15.942   9.008  0.00  0.00     0.163 C 
HETATM   20  O   UNK N   1      32.685  15.063   9.681  0.00  0.00    -0.648 OA
BRANCH  19  21
HETATM   21  O   UNK N   1      34.533  16.122   9.064  0.00  0.00    -0.775 OA
HETATM   22  H   UNK N   1      35.050  16.153   8.282  0.00  0.00     0.167 HD
ENDBRANCH  19  21
ENDBRANCH  18  19
BRANCH  18  23
HETATM   23  N   UNK N   1      31.411  17.566   8.971  0.00  0.00    -0.359 N 
HETATM   24  C   UNK N   1      30.162  17.703   8.676  0.00  0.00     0.129 C 
ATOM     25  HN  UNK N   1      31.750  17.983   9.838  1.00  0.00     0.162 HD
BRANCH  24  26
HETATM   26  C   UNK N   1      29.280  18.500   9.576  0.00  0.00     0.195 C 
BRANCH  26  27
HETATM   27  N   UNK N   1      27.896  18.362   9.162  0.00  0.00    -0.423 N 
HETATM   28  H   UNK N   1      27.573  18.032   8.253  0.00  0.00     0.150 HD
HETATM   29  H   UNK N   1      27.181  18.620   9.842  0.00  0.00     0.150 HD
ENDBRANCH  26  27
ENDBRANCH  24  26
BRANCH  24  30
HETATM   30  O   UNK N   1      29.652  17.166   7.548  0.00  0.00    -0.348 OA
HETATM   31  H   UNK N   1      29.078  16.545   7.146  0.00  0.00     0.219 HD
ENDBRANCH  24  30
ENDBRANCH  18  23
ENDBRANCH  17  18
ENDBRANCH   1  17
TORSDOF 16
ENDMDL
MODEL 9
REMARK VINA RESULT:      -4.7     21.593     23.742
REMARK  16 active torsions:
REMARK  status: ('A' for Active; 'I' for Inactive)
REMARK    1  A    between atoms: C_3  and  C_2 
REMARK    2  A    between atoms: C_4  and  C_2 
REMARK    3  A    between atoms: C_5  and  C_3 
REMARK    4  A    between atoms: C_8  and  C_4 
REMARK    5  A    between atoms: C_9  and  C_5 
REMARK    6  A    between atoms: C_10  and  C_6 
REMARK    7  A    between atoms: N_12  and  C_6 
REMARK    8  A    between atoms: N_13  and  C_7 
REMARK    9  A    between atoms: P_25  and  C_7 
REMARK   10  A    between atoms: C_11  and  C_8 
REMARK   11  A    between atoms: C_8  and  N_15 
REMARK   12  A    between atoms: C_9  and  O_17 
REMARK   13  A    between atoms: C_10  and  O_19 
REMARK   14  A    between atoms: O_21  and  C_11 
REMARK   15  A    between atoms: P_25  and  O_22 
REMARK   16  A    between atoms: P_25  and  O_23 
ROOT
HETATM    1  C   UNK N   1      20.622  15.597   8.741  0.00  0.00     0.003 C 
ENDROOT
BRANCH   1   2
HETATM    2  C   UNK N   1      20.042  16.271   7.501  0.00  0.00     0.008 C 
BRANCH   2   3
HETATM    3  C   UNK N   1      20.542  17.701   7.357  0.00  0.00     0.083 C 
BRANCH   3   4
HETATM    4  C   UNK N   1      21.398  17.848   6.144  0.00  0.00     0.111 C 
HETATM    5  N   UNK N   1      20.827  17.966   4.993  0.00  0.00    -0.359 N 
ATOM      6  HN  UNK N   1      19.807  17.945   4.974  1.00  0.00     0.162 HD
BRANCH   5   7
HETATM    7  C   UNK N   1      21.512  18.126   3.725  0.00  0.00     0.190 C 
HETATM    8  C   UNK N   1      21.232  16.964   2.784  0.00  0.00     0.045 C 
BRANCH   7   9
HETATM    9  P   UNK N   1      21.091  19.758   2.922  0.00  0.00     0.258 P 
HETATM   10  O   UNK N   1      20.301  20.695   3.874  0.00  0.00    -0.652 OA
BRANCH   9  11
HETATM   11  O   UNK N   1      20.078  19.627   1.519  0.00  0.00    -0.328 OA
HETATM   12  H   UNK N   1      19.108  19.655   1.519  0.00  0.00     0.220 HD
ENDBRANCH   9  11
BRANCH   9  13
HETATM   13  O   UNK N   1      22.473  20.694   2.451  0.00  0.00    -0.328 OA
HETATM   14  H   UNK N   1      22.827  20.629   1.550  0.00  0.00     0.220 HD
ENDBRANCH   9  13
ENDBRANCH   7   9
ENDBRANCH   5   7
BRANCH   4  15
HETATM   15  O   UNK N   1      22.741  17.898   6.273  0.00  0.00    -0.350 OA
ATOM     16  HO  UNK N   1      23.295  17.596   5.563  1.00  0.00     0.219 HD
ENDBRANCH   4  15
ENDBRANCH   3   4
ENDBRANCH   2   3
ENDBRANCH   1   2
BRANCH   1  17
HETATM   17  C   UNK N   1      21.833  14.701   8.458  0.00  0.00     0.036 C 
BRANCH  17  18
HETATM   18  C   UNK N   1      21.684  13.235   8.927  0.00  0.00     0.181 C 
BRANCH  18  19
HETATM   19  C   UNK N   1      21.664  12.270   7.766  0.00  0.00     0.163 C 
HETATM   20  O   UNK N   1      22.591  11.499   7.570  0.00  0.00    -0.648 OA
BRANCH  19  21
HETATM   21  O   UNK N   1      20.620  12.278   6.916  0.00  0.00    -0.775 OA
HETATM   22  H   UNK N   1      20.416  11.527   6.394  0.00  0.00     0.167 HD
ENDBRANCH  19  21
ENDBRANCH  18  19
BRANCH  18  23
HETATM   23  N   UNK N   1      22.742  12.853   9.849  0.00  0.00    -0.359 N 
HETATM   24  C   UNK N   1      22.536  12.223  10.956  0.00  0.00     0.129 C 
ATOM     25  HN  UNK N   1      23.702  13.098   9.606  1.00  0.00     0.162 HD
BRANCH  24  26
HETATM   26  C   UNK N   1      23.687  11.923  11.854  0.00  0.00     0.195 C 
BRANCH  26  27
HETATM   27  N   UNK N   1      24.923  12.376  11.243  0.00  0.00    -0.423 N 
HETATM   28  H   UNK N   1      25.206  13.346  11.112  0.00  0.00     0.150 HD
HETATM   29  H   UNK N   1      25.568  11.657  10.915  0.00  0.00     0.150 HD
ENDBRANCH  26  27
ENDBRANCH  24  26
BRANCH  24  30
HETATM   30  O   UNK N   1      21.290  11.862  11.328  0.00  0.00    -0.348 OA
HETATM   31  H   UNK N   1      20.686  11.662  12.016  0.00  0.00     0.219 HD
ENDBRANCH  24  30
ENDBRANCH  18  23
ENDBRANCH  17  18
ENDBRANCH   1  17
TORSDOF 16
ENDMDL
