MODEL 1
REMARK VINA RESULT:      -3.1      0.000      0.000
REMARK  2 active torsions:
REMARK  status: ('A' for Active; 'I' for Inactive)
REMARK    1  A    between atoms: C_2  and  C_3 
REMARK    2  A    between atoms: C_3  and  C_4 
ROOT
HETATM    1  C   UNK N   1      21.318  12.224  11.001  0.00  0.00     0.216 C 
HETATM    2  N   UNK N   1      20.917  13.322  10.226  0.00  0.00    -0.472 NA
HETATM    3  C   UNK N   1      20.619  14.247   9.600  0.00  0.00     0.220 C 
ENDROOT
BRANCH   1   4
HETATM    4  C   UNK N   1      22.663  11.809  10.469  0.00  0.00     0.033 C 
BRANCH   4   5
HETATM    5  C   UNK N   1      23.750  11.924  11.496  0.00  0.00    -0.002 C 
HETATM    6  C   UNK N   1      23.062  11.892  12.840  0.00  0.00     0.005 C 
ENDBRANCH   4   5
ENDBRANCH   1   4
TORSDOF 2
ENDMDL
MODEL 2
REMARK VINA RESULT:      -2.8      1.666      2.339
REMARK  2 active torsions:
REMARK  status: ('A' for Active; 'I' for Inactive)
REMARK    1  A    between atoms: C_2  and  C_3 
REMARK    2  A    between atoms: C_3  and  C_4 
ROOT
HETATM    1  C   UNK N   1      20.315  14.331   9.448  0.00  0.00     0.216 C 
HETATM    2  N   UNK N   1      20.470  13.986   8.097  0.00  0.00    -0.472 NA
HETATM    3  C   UNK N   1      20.636  13.699   6.990  0.00  0.00     0.220 C 
ENDROOT
BRANCH   1   4
HETATM    4  C   UNK N   1      20.840  13.163  10.237  0.00  0.00     0.033 C 
BRANCH   4   5
HETATM    5  C   UNK N   1      22.339  13.114  10.267  0.00  0.00    -0.002 C 
HETATM    6  C   UNK N   1      22.703  12.072  11.298  0.00  0.00     0.005 C 
ENDBRANCH   4   5
ENDBRANCH   1   4
TORSDOF 2
ENDMDL
MODEL 3
REMARK VINA RESULT:      -2.8      1.790      3.397
REMARK  2 active torsions:
REMARK  status: ('A' for Active; 'I' for Inactive)
REMARK    1  A    between atoms: C_2  and  C_3 
REMARK    2  A    between atoms: C_3  and  C_4 
ROOT
HETATM    1  C   UNK N   1      24.259  12.123  10.987  0.00  0.00     0.216 C 
HETATM    2  N   UNK N   1      23.760  12.038  12.296  0.00  0.00    -0.472 NA
HETATM    3  C   UNK N   1      23.350  12.008  13.376  0.00  0.00     0.220 C 
ENDROOT
BRANCH   1   4
HETATM    4  C   UNK N   1      23.255  12.933  10.212  0.00  0.00     0.033 C 
BRANCH   4   5
HETATM    5  C   UNK N   1      22.015  12.155   9.886  0.00  0.00    -0.002 C 
HETATM    6  C   UNK N   1      20.854  13.018  10.323  0.00  0.00     0.005 C 
ENDBRANCH   4   5
ENDBRANCH   1   4
TORSDOF 2
ENDMDL
MODEL 4
REMARK VINA RESULT:      -2.8     14.295     14.710
REMARK  2 active torsions:
REMARK  status: ('A' for Active; 'I' for Inactive)
REMARK    1  A    between atoms: C_2  and  C_3 
REMARK    2  A    between atoms: C_3  and  C_4 
ROOT
HETATM    1  C   UNK N   1      36.489  13.732  15.555  0.00  0.00     0.216 C 
HETATM    2  N   UNK N   1      36.311  14.150  14.227  0.00  0.00    -0.472 NA
HETATM    3  C   UNK N   1      36.158  14.456  13.123  0.00  0.00     0.220 C 
ENDROOT
BRANCH   1   4
HETATM    4  C   UNK N   1      35.219  13.026  15.942  0.00  0.00     0.033 C 
BRANCH   4   5
HETATM    5  C   UNK N   1      35.104  12.814  17.422  0.00  0.00    -0.002 C 
HETATM    6  C   UNK N   1      35.361  14.160  18.059  0.00  0.00     0.005 C 
ENDBRANCH   4   5
ENDBRANCH   1   4
TORSDOF 2
ENDMDL
MODEL 5
REMARK VINA RESULT:      -2.7     21.145     21.844
REMARK  2 active torsions:
REMARK  status: ('A' for Active; 'I' for Inactive)
REMARK    1  A    between atoms: C_2  and  C_3 
REMARK    2  A    between atoms: C_3  and  C_4 
ROOT
HETATM    1  C   UNK N   1      25.501  25.502  -5.473  0.00  0.00     0.216 C 
HETATM    2  N   UNK N   1      25.618  24.953  -6.759  0.00  0.00    -0.472 NA
HETATM    3  C   UNK N   1      25.674  24.503  -7.823  0.00  0.00     0.220 C 
ENDROOT
BRANCH   1   4
HETATM    4  C   UNK N   1      24.888  26.863  -5.657  0.00  0.00     0.033 C 
BRANCH   4   5
HETATM    5  C   UNK N   1      25.372  27.856  -4.643  0.00  0.00    -0.002 C 
HETATM    6  C   UNK N   1      26.099  27.056  -3.588  0.00  0.00     0.005 C 
ENDBRANCH   4   5
ENDBRANCH   1   4
TORSDOF 2
ENDMDL
MODEL 6
REMARK VINA RESULT:      -2.7     21.436     22.309
REMARK  2 active torsions:
REMARK  status: ('A' for Active; 'I' for Inactive)
REMARK    1  A    between atoms: C_2  and  C_3 
REMARK    2  A    between atoms: C_3  and  C_4 
ROOT
HETATM    1  C   UNK N   1      25.920  27.767  -3.303  0.00  0.00     0.216 C 
HETATM    2  N   UNK N   1      26.259  29.129  -3.313  0.00  0.00    -0.472 NA
HETATM    3  C   UNK N   1      26.575  30.241  -3.316  0.00  0.00     0.220 C 
ENDROOT
BRANCH   1   4
HETATM    4  C   UNK N   1      26.683  27.142  -4.439  0.00  0.00     0.033 C 
BRANCH   4   5
HETATM    5  C   UNK N   1      26.118  27.502  -5.781  0.00  0.00    -0.002 C 
HETATM    6  C   UNK N   1      24.673  27.060  -5.759  0.00  0.00     0.005 C 
ENDBRANCH   4   5
ENDBRANCH   1   4
TORSDOF 2
ENDMDL
MODEL 7
REMARK VINA RESULT:      -2.7      1.436      3.705
REMARK  2 active torsions:
REMARK  status: ('A' for Active; 'I' for Inactive)
REMARK    1  A    between atoms: C_2  and  C_3 
REMARK    2  A    between atoms: C_3  and  C_4 
ROOT
HETATM    1  C   UNK N   1      21.732  12.270  10.976  0.00  0.00     0.216 C 
HETATM    2  N   UNK N   1      23.097  12.120  11.265  0.00  0.00    -0.472 NA
HETATM    3  C   UNK N   1      24.226  11.981  11.468  0.00  0.00     0.220 C 
ENDROOT
BRANCH   1   4
HETATM    4  C   UNK N   1      21.660  13.167   9.770  0.00  0.00     0.033 C 
BRANCH   4   5
HETATM    5  C   UNK N   1      20.439  14.038   9.771  0.00  0.00    -0.002 C 
HETATM    6  C   UNK N   1      20.799  15.263   8.962  0.00  0.00     0.005 C 
ENDBRANCH   4   5
ENDBRANCH   1   4
TORSDOF 2
ENDMDL
MODEL 8
REMARK VINA RESULT:      -2.7     10.593     11.170
REMARK  2 active torsions:
REMARK  status: ('A' for Active; 'I' for Inactive)
REMARK    1  A    between atoms: C_2  and  C_3 
REMARK    2  A    between atoms: C_3  and  C_4 
ROOT
HETATM    1  C   UNK N   1      23.917  19.860   3.507  0.00  0.00     0.216 C 
HETATM    2  N   UNK N   1      22.664  20.271   3.028  0.00  0.00    -0.472 NA
HETATM    3  C   UNK N   1      21.641  20.647   2.642  0.00  0.00     0.220 C 
ENDROOT
BRANCH   1   4
HETATM    4  C   UNK N   1      24.938  20.582   2.671  0.00  0.00     0.033 C 
BRANCH   4   5
HETATM    5  C   UNK N   1      26.327  20.459   3.223  0.00  0.00    -0.002 C 
HETATM    6  C   UNK N   1      26.386  19.116   3.912  0.00  0.00     0.005 C 
ENDBRANCH   4   5
ENDBRANCH   1   4
TORSDOF 2
ENDMDL
MODEL 9
REMARK VINA RESULT:      -2.6     12.823     14.114
REMARK  2 active torsions:
REMARK  status: ('A' for Active; 'I' for Inactive)
REMARK    1  A    between atoms: C_2  and  C_3 
REMARK    2  A    between atoms: C_3  and  C_4 
ROOT
HETATM    1  C   UNK N   1      35.015  12.728  15.829  0.00  0.00     0.216 C 
HETATM    2  N   UNK N   1      35.106  13.290  17.111  0.00  0.00    -0.472 NA
HETATM    3  C   UNK N   1      35.158  13.724  18.182  0.00  0.00     0.220 C 
ENDROOT
BRANCH   1   4
HETATM    4  C   UNK N   1      35.570  11.335  15.946  0.00  0.00     0.033 C 
BRANCH   4   5
HETATM    5  C   UNK N   1      34.524  10.278  15.753  0.00  0.00    -0.002 C 
HETATM    6  C   UNK N   1      33.634  10.769  14.635  0.00  0.00     0.005 C 
ENDBRANCH   4   5
ENDBRANCH   1   4
TORSDOF 2
ENDMDL
