REMARK  5 active torsions:
REMARK  status: ('A' for Active; 'I' for Inactive)
REMARK    1  A    between atoms: C_4  and  C_3 
REMARK    2  A    between atoms: C_5  and  C_3 
REMARK    3  A    between atoms: C_6  and  C_4 
REMARK    4  A    between atoms: N_7  and  C_5 
REMARK    5  A    between atoms: O_9  and  C_6 
ROOT
HETATM    1  C   UNK N   1      -0.708  -0.639   0.000  0.00  0.00     0.066 C 
ENDROOT
BRANCH   1   2
HETATM    2  C   UNK N   1       0.072  -1.948   0.000  0.00  0.00     0.116 C 
BRANCH   2   3
HETATM    3  C   UNK N   1      -0.783  -3.174   0.000  0.00  0.00     0.139 C 
HETATM    4  O   UNK N   1      -0.251  -4.269  -0.000  0.00  0.00    -0.650 OA
BRANCH   3   5
HETATM    5  O   UNK N   1      -2.129  -3.085  -0.000  0.00  0.00    -0.776 OA
HETATM    6  H   UNK N   1      -2.543  -2.245  -0.000  0.00  0.00     0.167 HD
ENDBRANCH   3   5
ENDBRANCH   2   3
ENDBRANCH   1   2
BRANCH   1   7
HETATM    7  C   UNK N   1       0.100   0.651   0.000  0.00  0.00    -0.001 C 
HETATM    8  C   UNK N   1       1.453   0.737  -0.000  0.00  0.00    -0.007 C 
HETATM    9  C   UNK N   1       2.393  -0.426   0.000  0.00  0.00     0.038 C 
BRANCH   7  10
HETATM   10  N   UNK N   1      -0.632   1.859  -0.000  0.00  0.00    -0.403 N 
HETATM   11  H   UNK N   1      -0.158   2.722  -0.000  0.00  0.00     0.156 HD
HETATM   12  H   UNK N   1      -1.617   1.838  -0.000  0.00  0.00     0.156 HD
ENDBRANCH   7  10
ENDBRANCH   1   7
TORSDOF 5
