MODEL 1
REMARK VINA RESULT:      -5.4      0.000      0.000
REMARK  4 active torsions:
REMARK  status: ('A' for Active; 'I' for Inactive)
REMARK    1  A    between atoms: O_1  and  C_2 
REMARK    2  A    between atoms: C_2  and  C_4 
REMARK    3  A    between atoms: C_10  and  C_11 
REMARK    4  A    between atoms: C_11  and  O_12 
ROOT
HETATM    1  C   UNK N   1      20.237  17.963   1.908  0.00  0.00     0.071 A 
HETATM    2  C   UNK N   1      20.217  17.052   2.980  0.00  0.00     0.022 A 
HETATM    3  C   UNK N   1      20.639  17.409   4.254  0.00  0.00     0.018 A 
HETATM    4  C   UNK N   1      21.092  18.696   4.475  0.00  0.00     0.088 A 
HETATM    5  N   UNK N   1      21.119  19.588   3.457  0.00  0.00    -0.360 N 
ATOM      6  HN  UNK N   1      21.458  20.530   3.651  1.00  0.00     0.165 HD
HETATM    7  C   UNK N   1      20.717  19.298   2.182  0.00  0.00     0.123 A 
ENDROOT
BRANCH   1   8
HETATM    8  C   UNK N   1      19.748  17.418   0.596  0.00  0.00     0.178 C 
HETATM    9  O   UNK N   1      20.514  17.370  -0.356  0.00  0.00    -0.646 OA
BRANCH   8  10
HETATM   10  O   UNK N   1      18.497  16.975   0.416  0.00  0.00    -0.773 OA
HETATM   11  H   UNK N   1      18.060  17.123  -0.401  0.00  0.00     0.167 HD
ENDBRANCH   8  10
ENDBRANCH   1   8
BRANCH   7  12
HETATM   12  C   UNK N   1      20.835  20.438   1.218  0.00  0.00     0.194 C 
HETATM   13  O   UNK N   1      21.177  21.528   1.646  0.00  0.00    -0.645 OA
BRANCH  12  14
HETATM   14  O   UNK N   1      20.584  20.329  -0.094  0.00  0.00    -0.772 OA
HETATM   15  H   UNK N   1      20.525  19.482  -0.491  0.00  0.00     0.167 HD
ENDBRANCH  12  14
ENDBRANCH   7  12
TORSDOF 4
ENDMDL
MODEL 2
REMARK VINA RESULT:      -5.3      1.836      3.274
REMARK  4 active torsions:
REMARK  status: ('A' for Active; 'I' for Inactive)
REMARK    1  A    between atoms: O_1  and  C_2 
REMARK    2  A    between atoms: C_2  and  C_4 
REMARK    3  A    between atoms: C_10  and  C_11 
REMARK    4  A    between atoms: C_11  and  O_12 
ROOT
HETATM    1  C   UNK N   1      21.883  19.398   3.070  0.00  0.00     0.071 A 
HETATM    2  C   UNK N   1      21.722  18.363   4.012  0.00  0.00     0.022 A 
HETATM    3  C   UNK N   1      20.571  17.586   4.057  0.00  0.00     0.018 A 
HETATM    4  C   UNK N   1      19.557  17.835   3.151  0.00  0.00     0.088 A 
HETATM    5  N   UNK N   1      19.693  18.826   2.238  0.00  0.00    -0.360 N 
ATOM      6  HN  UNK N   1      18.928  18.985   1.584  1.00  0.00     0.165 HD
HETATM    7  C   UNK N   1      20.799  19.624   2.143  0.00  0.00     0.123 A 
ENDROOT
BRANCH   1   8
HETATM    8  C   UNK N   1      23.186  20.143   3.157  0.00  0.00     0.178 C 
HETATM    9  O   UNK N   1      24.206  19.533   3.444  0.00  0.00    -0.646 OA
BRANCH   8  10
HETATM   10  O   UNK N   1      23.285  21.459   2.932  0.00  0.00    -0.773 OA
HETATM   11  H   UNK N   1      23.155  22.065   3.635  0.00  0.00     0.167 HD
ENDBRANCH   8  10
ENDBRANCH   1   8
BRANCH   7  12
HETATM   12  C   UNK N   1      20.731  20.654   1.058  0.00  0.00     0.194 C 
HETATM   13  O   UNK N   1      20.808  21.832   1.368  0.00  0.00    -0.645 OA
BRANCH  12  14
HETATM   14  O   UNK N   1      20.590  20.355  -0.241  0.00  0.00    -0.772 OA
HETATM   15  H   UNK N   1      21.075  20.831  -0.886  0.00  0.00     0.167 HD
ENDBRANCH  12  14
ENDBRANCH   7  12
TORSDOF 4
ENDMDL
MODEL 3
REMARK VINA RESULT:      -5.3      0.962      3.165
REMARK  4 active torsions:
REMARK  status: ('A' for Active; 'I' for Inactive)
REMARK    1  A    between atoms: O_1  and  C_2 
REMARK    2  A    between atoms: C_2  and  C_4 
REMARK    3  A    between atoms: C_10  and  C_11 
REMARK    4  A    between atoms: C_11  and  O_12 
ROOT
HETATM    1  C   UNK N   1      20.710  19.067   2.236  0.00  0.00     0.071 A 
HETATM    2  C   UNK N   1      21.121  19.277   3.566  0.00  0.00     0.022 A 
HETATM    3  C   UNK N   1      21.043  18.274   4.524  0.00  0.00     0.018 A 
HETATM    4  C   UNK N   1      20.548  17.035   4.161  0.00  0.00     0.088 A 
HETATM    5  N   UNK N   1      20.148  16.814   2.886  0.00  0.00    -0.360 N 
ATOM      6  HN  UNK N   1      19.788  15.889   2.649  1.00  0.00     0.165 HD
HETATM    7  C   UNK N   1      20.200  17.759   1.899  0.00  0.00     0.123 A 
ENDROOT
BRANCH   1   8
HETATM    8  C   UNK N   1      20.861  20.254   1.326  0.00  0.00     0.178 C 
HETATM    9  O   UNK N   1      21.163  21.338   1.803  0.00  0.00    -0.646 OA
BRANCH   8  10
HETATM   10  O   UNK N   1      20.677  20.181   0.002  0.00  0.00    -0.773 OA
HETATM   11  H   UNK N   1      20.376  19.382  -0.386  0.00  0.00     0.167 HD
ENDBRANCH   8  10
ENDBRANCH   1   8
BRANCH   7  12
HETATM   12  C   UNK N   1      19.706  17.291   0.565  0.00  0.00     0.194 C 
HETATM   13  O   UNK N   1      20.489  17.267  -0.371  0.00  0.00    -0.645 OA
BRANCH  12  14
HETATM   14  O   UNK N   1      18.446  16.896   0.338  0.00  0.00    -0.772 OA
HETATM   15  H   UNK N   1      18.107  16.137   0.772  0.00  0.00     0.167 HD
ENDBRANCH  12  14
ENDBRANCH   7  12
TORSDOF 4
ENDMDL
MODEL 4
REMARK VINA RESULT:      -5.2     10.458     11.900
REMARK  4 active torsions:
REMARK  status: ('A' for Active; 'I' for Inactive)
REMARK    1  A    between atoms: O_1  and  C_2 
REMARK    2  A    between atoms: C_2  and  C_4 
REMARK    3  A    between atoms: C_10  and  C_11 
REMARK    4  A    between atoms: C_11  and  O_12 
ROOT
HETATM    1  C   UNK N   1      23.216  12.250  11.330  0.00  0.00     0.071 A 
HETATM    2  C   UNK N   1      24.494  12.287  10.741  0.00  0.00     0.022 A 
HETATM    3  C   UNK N   1      24.676  12.615   9.403  0.00  0.00     0.018 A 
HETATM    4  C   UNK N   1      23.570  12.914   8.629  0.00  0.00     0.088 A 
HETATM    5  N   UNK N   1      22.332  12.884   9.177  0.00  0.00    -0.360 N 
ATOM      6  HN  UNK N   1      21.537  13.109   8.581  1.00  0.00     0.165 HD
HETATM    7  C   UNK N   1      22.088  12.569  10.486  0.00  0.00     0.123 A 
ENDROOT
BRANCH   1   8
HETATM    8  C   UNK N   1      23.194  11.878  12.786  0.00  0.00     0.178 C 
HETATM    9  O   UNK N   1      24.000  12.393  13.547  0.00  0.00    -0.646 OA
BRANCH   8  10
HETATM   10  O   UNK N   1      22.324  10.998  13.296  0.00  0.00    -0.773 OA
HETATM   11  H   UNK N   1      21.834  10.438  12.725  0.00  0.00     0.167 HD
ENDBRANCH   8  10
ENDBRANCH   1   8
BRANCH   7  12
HETATM   12  C   UNK N   1      20.642  12.600  10.873  0.00  0.00     0.194 C 
HETATM   13  O   UNK N   1      19.898  13.365  10.283  0.00  0.00    -0.645 OA
BRANCH  12  14
HETATM   14  O   UNK N   1      20.116  11.831  11.837  0.00  0.00    -0.772 OA
HETATM   15  H   UNK N   1      19.214  11.927  12.073  0.00  0.00     0.167 HD
ENDBRANCH  12  14
ENDBRANCH   7  12
TORSDOF 4
ENDMDL
MODEL 5
REMARK VINA RESULT:      -5.2     10.724     12.078
REMARK  4 active torsions:
REMARK  status: ('A' for Active; 'I' for Inactive)
REMARK    1  A    between atoms: O_1  and  C_2 
REMARK    2  A    between atoms: C_2  and  C_4 
REMARK    3  A    between atoms: C_10  and  C_11 
REMARK    4  A    between atoms: C_11  and  O_12 
ROOT
HETATM    1  C   UNK N   1      22.191  12.424  10.717  0.00  0.00     0.071 A 
HETATM    2  C   UNK N   1      22.456  12.655   9.354  0.00  0.00     0.022 A 
HETATM    3  C   UNK N   1      23.753  12.739   8.864  0.00  0.00     0.018 A 
HETATM    4  C   UNK N   1      24.813  12.592   9.739  0.00  0.00     0.088 A 
HETATM    5  N   UNK N   1      24.578  12.370  11.054  0.00  0.00    -0.360 N 
ATOM      6  HN  UNK N   1      25.380  12.266  11.675  1.00  0.00     0.165 HD
HETATM    7  C   UNK N   1      23.326  12.277  11.597  0.00  0.00     0.123 A 
ENDROOT
BRANCH   1   8
HETATM    8  C   UNK N   1      20.734  12.361  11.083  0.00  0.00     0.178 C 
HETATM    9  O   UNK N   1      19.935  13.063  10.480  0.00  0.00    -0.646 OA
BRANCH   8  10
HETATM   10  O   UNK N   1      20.263  11.563  12.049  0.00  0.00    -0.773 OA
HETATM   11  H   UNK N   1      20.587  11.646  12.925  0.00  0.00     0.167 HD
ENDBRANCH   8  10
ENDBRANCH   1   8
BRANCH   7  12
HETATM   12  C   UNK N   1      23.306  12.028  13.074  0.00  0.00     0.194 C 
HETATM   13  O   UNK N   1      22.562  11.164  13.508  0.00  0.00    -0.645 OA
BRANCH  12  14
HETATM   14  O   UNK N   1      24.063  12.703  13.950  0.00  0.00    -0.772 OA
HETATM   15  H   UNK N   1      24.535  12.241  14.616  0.00  0.00     0.167 HD
ENDBRANCH  12  14
ENDBRANCH   7  12
TORSDOF 4
ENDMDL
MODEL 6
REMARK VINA RESULT:      -5.1      1.858      3.052
REMARK  4 active torsions:
REMARK  status: ('A' for Active; 'I' for Inactive)
REMARK    1  A    between atoms: O_1  and  C_2 
REMARK    2  A    between atoms: C_2  and  C_4 
REMARK    3  A    between atoms: C_10  and  C_11 
REMARK    4  A    between atoms: C_11  and  O_12 
ROOT
HETATM    1  C   UNK N   1      20.993  19.687   2.218  0.00  0.00     0.071 A 
HETATM    2  C   UNK N   1      19.887  18.834   2.397  0.00  0.00     0.022 A 
HETATM    3  C   UNK N   1      19.866  17.859   3.385  0.00  0.00     0.018 A 
HETATM    4  C   UNK N   1      20.962  17.721   4.217  0.00  0.00     0.088 A 
HETATM    5  N   UNK N   1      22.036  18.531   4.061  0.00  0.00    -0.360 N 
ATOM      6  HN  UNK N   1      22.829  18.405   4.689  1.00  0.00     0.165 HD
HETATM    7  C   UNK N   1      22.117  19.510   3.108  0.00  0.00     0.123 A 
ENDROOT
BRANCH   1   8
HETATM    8  C   UNK N   1      20.855  20.688   1.105  0.00  0.00     0.178 C 
HETATM    9  O   UNK N   1      20.863  20.298  -0.053  0.00  0.00    -0.646 OA
BRANCH   8  10
HETATM   10  O   UNK N   1      20.723  22.002   1.323  0.00  0.00    -0.773 OA
HETATM   11  H   UNK N   1      21.097  22.617   0.722  0.00  0.00     0.167 HD
ENDBRANCH   8  10
ENDBRANCH   1   8
BRANCH   7  12
HETATM   12  C   UNK N   1      23.398  20.284   3.120  0.00  0.00     0.194 C 
HETATM   13  O   UNK N   1      23.351  21.491   2.952  0.00  0.00    -0.645 OA
BRANCH  12  14
HETATM   14  O   UNK N   1      24.602  19.724   3.307  0.00  0.00    -0.772 OA
HETATM   15  H   UNK N   1      24.902  19.536   4.175  0.00  0.00     0.167 HD
ENDBRANCH  12  14
ENDBRANCH   7  12
TORSDOF 4
ENDMDL
MODEL 7
REMARK VINA RESULT:      -5.0     12.771     14.024
REMARK  4 active torsions:
REMARK  status: ('A' for Active; 'I' for Inactive)
REMARK    1  A    between atoms: O_1  and  C_2 
REMARK    2  A    between atoms: C_2  and  C_4 
REMARK    3  A    between atoms: C_10  and  C_11 
REMARK    4  A    between atoms: C_11  and  O_12 
ROOT
HETATM    1  C   UNK N   1      33.270  17.719   7.373  0.00  0.00     0.071 A 
HETATM    2  C   UNK N   1      33.832  17.558   6.093  0.00  0.00     0.022 A 
HETATM    3  C   UNK N   1      33.059  17.224   4.989  0.00  0.00     0.018 A 
HETATM    4  C   UNK N   1      31.697  17.045   5.152  0.00  0.00     0.088 A 
HETATM    5  N   UNK N   1      31.137  17.196   6.376  0.00  0.00    -0.360 N 
ATOM      6  HN  UNK N   1      30.131  17.058   6.464  1.00  0.00     0.165 HD
HETATM    7  C   UNK N   1      31.845  17.523   7.500  0.00  0.00     0.123 A 
ENDROOT
BRANCH   1   8
HETATM    8  C   UNK N   1      34.245  18.080   8.458  0.00  0.00     0.178 C 
HETATM    9  O   UNK N   1      34.986  19.039   8.302  0.00  0.00    -0.646 OA
BRANCH   8  10
HETATM   10  O   UNK N   1      34.343  17.393   9.603  0.00  0.00    -0.773 OA
HETATM   11  H   UNK N   1      33.958  16.541   9.673  0.00  0.00     0.167 HD
ENDBRANCH   8  10
ENDBRANCH   1   8
BRANCH   7  12
HETATM   12  C   UNK N   1      31.018  17.637   8.743  0.00  0.00     0.194 C 
HETATM   13  O   UNK N   1      30.538  18.722   9.026  0.00  0.00    -0.645 OA
BRANCH  12  14
HETATM   14  O   UNK N   1      30.774  16.609   9.568  0.00  0.00    -0.772 OA
HETATM   15  H   UNK N   1      31.236  15.800   9.459  0.00  0.00     0.167 HD
ENDBRANCH  12  14
ENDBRANCH   7  12
TORSDOF 4
ENDMDL
MODEL 8
REMARK VINA RESULT:      -5.0     14.602     15.512
REMARK  4 active torsions:
REMARK  status: ('A' for Active; 'I' for Inactive)
REMARK    1  A    between atoms: O_1  and  C_2 
REMARK    2  A    between atoms: C_2  and  C_4 
REMARK    3  A    between atoms: C_10  and  C_11 
REMARK    4  A    between atoms: C_11  and  O_12 
ROOT
HETATM    1  C   UNK N   1      33.722  15.913   8.987  0.00  0.00     0.071 A 
HETATM    2  C   UNK N   1      33.743  14.964  10.026  0.00  0.00     0.022 A 
HETATM    3  C   UNK N   1      34.543  15.124  11.150  0.00  0.00     0.018 A 
HETATM    4  C   UNK N   1      35.342  16.248  11.251  0.00  0.00     0.088 A 
HETATM    5  N   UNK N   1      35.336  17.173  10.262  0.00  0.00    -0.360 N 
ATOM      6  HN  UNK N   1      35.935  17.992  10.366  1.00  0.00     0.165 HD
HETATM    7  C   UNK N   1      34.571  17.073   9.133  0.00  0.00     0.123 A 
ENDROOT
BRANCH   1   8
HETATM    8  C   UNK N   1      32.803  15.589   7.843  0.00  0.00     0.178 C 
HETATM    9  O   UNK N   1      32.925  14.521   7.262  0.00  0.00    -0.646 OA
BRANCH   8  10
HETATM   10  O   UNK N   1      31.844  16.424   7.424  0.00  0.00    -0.773 OA
HETATM   11  H   UNK N   1      30.976  16.352   7.771  0.00  0.00     0.167 HD
ENDBRANCH   8  10
ENDBRANCH   1   8
BRANCH   7  12
HETATM   12  C   UNK N   1      34.725  18.213   8.175  0.00  0.00     0.194 C 
HETATM   13  O   UNK N   1      35.257  19.238   8.570  0.00  0.00    -0.645 OA
BRANCH  12  14
HETATM   14  O   UNK N   1      34.309  18.174   6.901  0.00  0.00    -0.772 OA
HETATM   15  H   UNK N   1      33.514  17.729   6.681  0.00  0.00     0.167 HD
ENDBRANCH  12  14
ENDBRANCH   7  12
TORSDOF 4
ENDMDL
MODEL 9
REMARK VINA RESULT:      -5.0      8.592      9.829
REMARK  4 active torsions:
REMARK  status: ('A' for Active; 'I' for Inactive)
REMARK    1  A    between atoms: O_1  and  C_2 
REMARK    2  A    between atoms: C_2  and  C_4 
REMARK    3  A    between atoms: C_10  and  C_11 
REMARK    4  A    between atoms: C_11  and  O_12 
ROOT
HETATM    1  C   UNK N   1      27.656  19.654   6.382  0.00  0.00     0.071 A 
HETATM    2  C   UNK N   1      27.717  19.548   4.980  0.00  0.00     0.022 A 
HETATM    3  C   UNK N   1      28.423  18.530   4.351  0.00  0.00     0.018 A 
HETATM    4  C   UNK N   1      29.084  17.594   5.125  0.00  0.00     0.088 A 
HETATM    5  N   UNK N   1      29.037  17.678   6.476  0.00  0.00    -0.360 N 
ATOM      6  HN  UNK N   1      29.534  16.973   7.019  1.00  0.00     0.165 HD
HETATM    7  C   UNK N   1      28.360  18.656   7.153  0.00  0.00     0.123 A 
ENDROOT
BRANCH   1   8
HETATM    8  C   UNK N   1      26.851  20.812   6.901  0.00  0.00     0.178 C 
HETATM    9  O   UNK N   1      26.874  21.875   6.297  0.00  0.00    -0.646 OA
BRANCH   8  10
HETATM   10  O   UNK N   1      26.101  20.737   8.008  0.00  0.00    -0.773 OA
HETATM   11  H   UNK N   1      25.679  19.930   8.233  0.00  0.00     0.167 HD
ENDBRANCH   8  10
ENDBRANCH   1   8
BRANCH   7  12
HETATM   12  C   UNK N   1      28.446  18.552   8.644  0.00  0.00     0.194 C 
HETATM   13  O   UNK N   1      29.524  18.750   9.180  0.00  0.00    -0.645 OA
BRANCH  12  14
HETATM   14  O   UNK N   1      27.402  18.252   9.428  0.00  0.00    -0.772 OA
HETATM   15  H   UNK N   1      26.579  18.681   9.298  0.00  0.00     0.167 HD
ENDBRANCH  12  14
ENDBRANCH   7  12
TORSDOF 4
ENDMDL
