REMARK  2 active torsions:
REMARK  status: ('A' for Active; 'I' for Inactive)
REMARK    1  A    between atoms: O_2  and  C_3 
REMARK    2  A    between atoms: C_10  and  C_11 
ROOT
HETATM    1  C   UNK N   1       1.578   0.362  -0.000  0.00  0.00     0.165 A 
HETATM    2  N   UNK N   1       1.420  -0.990  -0.000  0.00  0.00    -0.344 N 
ATOM      3  HN  UNK N   1       2.255  -1.576  -0.000  1.00  0.00     0.167 HD
HETATM    4  C   UNK N   1       0.211  -1.596  -0.000  0.00  0.00     0.107 A 
HETATM    5  C   UNK N   1      -0.932  -0.821   0.000  0.00  0.00     0.105 A 
HETATM    6  N   UNK N   1      -0.819   0.527   0.000  0.00  0.00    -0.364 N 
ATOM      7  HN  UNK N   1      -1.674   1.083   0.000  1.00  0.00     0.165 HD
HETATM    8  C   UNK N   1       0.381   1.182  -0.000  0.00  0.00     0.064 A 
ENDROOT
BRANCH   8   9
HETATM    9  C   UNK N   1       0.264   2.710  -0.000  0.00  0.00     0.032 C 
HETATM   10  C   UNK N   1       1.348   3.759  -0.000  0.00  0.00     0.016 C 
HETATM   11  C   UNK N   1      -1.136   3.310   0.000  0.00  0.00     0.016 C 
ENDBRANCH   8   9
BRANCH   1  12
HETATM   12  O   UNK N   1       2.874   0.787  -0.000  0.00  0.00    -0.339 OA
HETATM   13  C   UNK N   1       3.414   2.039   0.000  0.00  0.00     0.211 C 
ENDBRANCH   1  12
TORSDOF 2
