MODEL 1
REMARK VINA RESULT:      -3.7      0.000      0.000
REMARK  3 active torsions:
REMARK  status: ('A' for Active; 'I' for Inactive)
REMARK    1  A    between atoms: C_2  and  C_3 
REMARK    2  A    between atoms: C_3  and  O_4 
REMARK    3  A    between atoms: O_4  and  C_5 
ROOT
HETATM    1  O   UNK N   1      34.590  17.782   6.600  0.00  0.00    -0.322 OA
ENDROOT
BRANCH   1   2
HETATM    2  C   UNK N   1      33.755  16.926   5.924  0.00  0.00     0.178 C 
BRANCH   2   3
HETATM    3  C   UNK N   1      33.168  17.594   4.703  0.00  0.00     0.022 C 
HETATM    4  C   UNK N   1      31.664  17.418   4.745  0.00  0.00     0.007 C 
ENDBRANCH   2   3
ENDBRANCH   1   2
BRANCH   1   5
HETATM    5  C   UNK N   1      34.253  18.286   7.808  0.00  0.00     0.254 C 
HETATM    6  C   UNK N   1      32.985  17.871   8.464  0.00  0.00     0.126 C 
HETATM    7  O   UNK N   1      34.988  19.090   8.377  0.00  0.00    -0.266 OA
ENDBRANCH   1   5
TORSDOF 3
ENDMDL
MODEL 2
REMARK VINA RESULT:      -3.5     10.654     12.093
REMARK  3 active torsions:
REMARK  status: ('A' for Active; 'I' for Inactive)
REMARK    1  A    between atoms: C_2  and  C_3 
REMARK    2  A    between atoms: C_3  and  O_4 
REMARK    3  A    between atoms: O_4  and  C_5 
ROOT
HETATM    1  O   UNK N   1      22.816  21.134   2.749  0.00  0.00    -0.322 OA
ENDROOT
BRANCH   1   2
HETATM    2  C   UNK N   1      23.795  20.286   3.207  0.00  0.00     0.178 C 
BRANCH   2   3
HETATM    3  C   UNK N   1      25.103  20.535   2.492  0.00  0.00     0.022 C 
HETATM    4  C   UNK N   1      26.229  20.324   3.481  0.00  0.00     0.007 C 
ENDBRANCH   2   3
ENDBRANCH   1   2
BRANCH   1   5
HETATM    5  C   UNK N   1      21.535  20.723   2.617  0.00  0.00     0.254 C 
HETATM    6  C   UNK N   1      20.984  20.417   1.270  0.00  0.00     0.126 C 
HETATM    7  O   UNK N   1      20.813  20.599   3.604  0.00  0.00    -0.266 OA
ENDBRANCH   1   5
TORSDOF 3
ENDMDL
MODEL 3
REMARK VINA RESULT:      -3.4     13.075     13.920
REMARK  3 active torsions:
REMARK  status: ('A' for Active; 'I' for Inactive)
REMARK    1  A    between atoms: C_2  and  C_3 
REMARK    2  A    between atoms: C_3  and  O_4 
REMARK    3  A    between atoms: O_4  and  C_5 
ROOT
HETATM    1  O   UNK N   1      21.689  13.771  10.015  0.00  0.00    -0.322 OA
ENDROOT
BRANCH   1   2
HETATM    2  C   UNK N   1      21.633  12.568  10.677  0.00  0.00     0.178 C 
BRANCH   2   3
HETATM    3  C   UNK N   1      23.011  12.119  11.101  0.00  0.00     0.022 C 
HETATM    4  C   UNK N   1      22.999  11.908  12.600  0.00  0.00     0.007 C 
ENDBRANCH   2   3
ENDBRANCH   1   2
BRANCH   1   5
HETATM    5  C   UNK N   1      20.567  14.393   9.589  0.00  0.00     0.254 C 
HETATM    6  C   UNK N   1      20.663  15.646   8.793  0.00  0.00     0.126 C 
HETATM    7  O   UNK N   1      19.459  13.934   9.854  0.00  0.00    -0.266 OA
ENDBRANCH   1   5
TORSDOF 3
ENDMDL
MODEL 4
REMARK VINA RESULT:      -3.4     10.886     12.217
REMARK  3 active torsions:
REMARK  status: ('A' for Active; 'I' for Inactive)
REMARK    1  A    between atoms: C_2  and  C_3 
REMARK    2  A    between atoms: C_3  and  O_4 
REMARK    3  A    between atoms: O_4  and  C_5 
ROOT
HETATM    1  O   UNK N   1      22.673  21.124   2.898  0.00  0.00    -0.322 OA
ENDROOT
BRANCH   1   2
HETATM    2  C   UNK N   1      21.595  20.515   2.302  0.00  0.00     0.178 C 
BRANCH   2   3
HETATM    3  C   UNK N   1      20.522  20.202   3.318  0.00  0.00     0.022 C 
HETATM    4  C   UNK N   1      19.638  19.111   2.750  0.00  0.00     0.007 C 
ENDBRANCH   2   3
ENDBRANCH   1   2
BRANCH   1   5
HETATM    5  C   UNK N   1      23.892  20.539   2.913  0.00  0.00     0.254 C 
HETATM    6  C   UNK N   1      24.169  19.410   3.840  0.00  0.00     0.126 C 
HETATM    7  O   UNK N   1      24.783  20.933   2.163  0.00  0.00    -0.266 OA
ENDBRANCH   1   5
TORSDOF 3
ENDMDL
MODEL 5
REMARK VINA RESULT:      -3.3     13.921     15.243
REMARK  3 active torsions:
REMARK  status: ('A' for Active; 'I' for Inactive)
REMARK    1  A    between atoms: C_2  and  C_3 
REMARK    2  A    between atoms: C_3  and  O_4 
REMARK    3  A    between atoms: O_4  and  C_5 
ROOT
HETATM    1  O   UNK N   1      26.031  25.539  -3.707  0.00  0.00    -0.322 OA
ENDROOT
BRANCH   1   2
HETATM    2  C   UNK N   1      26.352  26.823  -3.337  0.00  0.00     0.178 C 
BRANCH   2   3
HETATM    3  C   UNK N   1      25.543  27.830  -4.122  0.00  0.00     0.022 C 
HETATM    4  C   UNK N   1      25.033  27.151  -5.375  0.00  0.00     0.007 C 
ENDBRANCH   2   3
ENDBRANCH   1   2
BRANCH   1   5
HETATM    5  C   UNK N   1      26.910  24.523  -3.556  0.00  0.00     0.254 C 
HETATM    6  C   UNK N   1      27.829  24.159  -4.667  0.00  0.00     0.126 C 
HETATM    7  O   UNK N   1      26.960  23.891  -2.504  0.00  0.00    -0.266 OA
ENDBRANCH   1   5
TORSDOF 3
ENDMDL
MODEL 6
REMARK VINA RESULT:      -3.2      2.263      3.694
REMARK  3 active torsions:
REMARK  status: ('A' for Active; 'I' for Inactive)
REMARK    1  A    between atoms: C_2  and  C_3 
REMARK    2  A    between atoms: C_3  and  O_4 
REMARK    3  A    between atoms: O_4  and  C_5 
ROOT
HETATM    1  O   UNK N   1      34.535  17.421   9.548  0.00  0.00    -0.322 OA
ENDROOT
BRANCH   1   2
HETATM    2  C   UNK N   1      35.005  16.130   9.569  0.00  0.00     0.178 C 
BRANCH   2   3
HETATM    3  C   UNK N   1      34.061  15.223  10.323  0.00  0.00     0.022 C 
HETATM    4  C   UNK N   1      32.939  14.827   9.387  0.00  0.00     0.007 C 
ENDBRANCH   2   3
ENDBRANCH   1   2
BRANCH   1   5
HETATM    5  C   UNK N   1      34.638  18.189   8.441  0.00  0.00     0.254 C 
HETATM    6  C   UNK N   1      33.979  17.770   7.176  0.00  0.00     0.126 C 
HETATM    7  O   UNK N   1      35.275  19.240   8.466  0.00  0.00    -0.266 OA
ENDBRANCH   1   5
TORSDOF 3
ENDMDL
MODEL 7
REMARK VINA RESULT:      -3.2     11.121     12.452
REMARK  3 active torsions:
REMARK  status: ('A' for Active; 'I' for Inactive)
REMARK    1  A    between atoms: C_2  and  C_3 
REMARK    2  A    between atoms: C_3  and  O_4 
REMARK    3  A    between atoms: O_4  and  C_5 
ROOT
HETATM    1  O   UNK N   1      28.623  23.392  -2.557  0.00  0.00    -0.322 OA
ENDROOT
BRANCH   1   2
HETATM    2  C   UNK N   1      28.393  24.271  -3.588  0.00  0.00     0.178 C 
BRANCH   2   3
HETATM    3  C   UNK N   1      26.990  24.827  -3.522  0.00  0.00     0.022 C 
HETATM    4  C   UNK N   1      26.162  24.148  -4.592  0.00  0.00     0.007 C 
ENDBRANCH   2   3
ENDBRANCH   1   2
BRANCH   1   5
HETATM    5  C   UNK N   1      29.814  22.769  -2.415  0.00  0.00     0.254 C 
HETATM    6  C   UNK N   1      30.278  21.799  -3.441  0.00  0.00     0.126 C 
HETATM    7  O   UNK N   1      30.525  22.998  -1.439  0.00  0.00    -0.266 OA
ENDBRANCH   1   5
TORSDOF 3
ENDMDL
MODEL 8
REMARK VINA RESULT:      -3.0      8.742      9.785
REMARK  3 active torsions:
REMARK  status: ('A' for Active; 'I' for Inactive)
REMARK    1  A    between atoms: C_2  and  C_3 
REMARK    2  A    between atoms: C_3  and  O_4 
REMARK    3  A    between atoms: O_4  and  C_5 
ROOT
HETATM    1  O   UNK N   1      34.602  12.975  13.961  0.00  0.00    -0.322 OA
ENDROOT
BRANCH   1   2
HETATM    2  C   UNK N   1      34.592  11.661  13.560  0.00  0.00     0.178 C 
BRANCH   2   3
HETATM    3  C   UNK N   1      33.684  10.834  14.439  0.00  0.00     0.022 C 
HETATM    4  C   UNK N   1      34.491  10.344  15.622  0.00  0.00     0.007 C 
ENDBRANCH   2   3
ENDBRANCH   1   2
BRANCH   1   5
HETATM    5  C   UNK N   1      35.759  13.660  14.102  0.00  0.00     0.254 C 
HETATM    6  C   UNK N   1      36.608  13.453  15.306  0.00  0.00     0.126 C 
HETATM    7  O   UNK N   1      36.122  14.457  13.241  0.00  0.00    -0.266 OA
ENDBRANCH   1   5
TORSDOF 3
ENDMDL
MODEL 9
REMARK VINA RESULT:      -3.0      1.316      3.391
REMARK  3 active torsions:
REMARK  status: ('A' for Active; 'I' for Inactive)
REMARK    1  A    between atoms: C_2  and  C_3 
REMARK    2  A    between atoms: C_3  and  O_4 
REMARK    3  A    between atoms: O_4  and  C_5 
ROOT
HETATM    1  O   UNK N   1      34.183  17.776   6.010  0.00  0.00    -0.322 OA
ENDROOT
BRANCH   1   2
HETATM    2  C   UNK N   1      34.193  17.384   7.327  0.00  0.00     0.178 C 
BRANCH   2   3
HETATM    3  C   UNK N   1      33.398  18.343   8.182  0.00  0.00     0.022 C 
HETATM    4  C   UNK N   1      32.012  17.765   8.375  0.00  0.00     0.007 C 
ENDBRANCH   2   3
ENDBRANCH   1   2
BRANCH   1   5
HETATM    5  C   UNK N   1      33.564  17.038   5.061  0.00  0.00     0.254 C 
HETATM    6  C   UNK N   1      32.452  17.624   4.266  0.00  0.00     0.126 C 
HETATM    7  O   UNK N   1      33.912  15.880   4.845  0.00  0.00    -0.266 OA
ENDBRANCH   1   5
TORSDOF 3
ENDMDL
