MODEL 1
REMARK VINA RESULT:      -4.2      0.000      0.000
REMARK  5 active torsions:
REMARK  status: ('A' for Active; 'I' for Inactive)
REMARK    1  A    between atoms: C_4  and  C_3 
REMARK    2  A    between atoms: C_5  and  C_3 
REMARK    3  A    between atoms: C_6  and  C_4 
REMARK    4  A    between atoms: N_7  and  C_5 
REMARK    5  A    between atoms: O_9  and  C_6 
ROOT
HETATM    1  C   UNK N   1      35.095  13.307  16.584  0.00  0.00     0.066 C 
ENDROOT
BRANCH   1   2
HETATM    2  C   UNK N   1      36.360  13.138  15.753  0.00  0.00     0.116 C 
BRANCH   2   3
HETATM    3  C   UNK N   1      36.948  14.420  15.259  0.00  0.00     0.139 C 
HETATM    4  O   UNK N   1      37.577  15.121  16.030  0.00  0.00    -0.650 OA
BRANCH   3   5
HETATM    5  O   UNK N   1      36.792  14.811  13.977  0.00  0.00    -0.776 OA
HETATM    6  H   UNK N   1      37.118  14.276  13.281  0.00  0.00     0.167 HD
ENDBRANCH   3   5
ENDBRANCH   2   3
ENDBRANCH   1   2
BRANCH   1   7
HETATM    7  C   UNK N   1      35.271  13.552  18.076  0.00  0.00    -0.001 C 
HETATM    8  C   UNK N   1      35.319  12.596  19.035  0.00  0.00    -0.007 C 
HETATM    9  C   UNK N   1      35.205  11.124  18.795  0.00  0.00     0.038 C 
BRANCH   7  10
HETATM   10  N   UNK N   1      35.396  14.898  18.488  0.00  0.00    -0.403 N 
HETATM   11  H   UNK N   1      34.686  15.546  18.275  0.00  0.00     0.156 HD
HETATM   12  H   UNK N   1      36.194  15.188  18.988  0.00  0.00     0.156 HD
ENDBRANCH   7  10
ENDBRANCH   1   7
TORSDOF 5
ENDMDL
MODEL 2
REMARK VINA RESULT:      -4.2     15.552     16.267
REMARK  5 active torsions:
REMARK  status: ('A' for Active; 'I' for Inactive)
REMARK    1  A    between atoms: C_4  and  C_3 
REMARK    2  A    between atoms: C_5  and  C_3 
REMARK    3  A    between atoms: C_6  and  C_4 
REMARK    4  A    between atoms: N_7  and  C_5 
REMARK    5  A    between atoms: O_9  and  C_6 
ROOT
HETATM    1  C   UNK N   1      21.838  12.787   9.564  0.00  0.00     0.066 C 
ENDROOT
BRANCH   1   2
HETATM    2  C   UNK N   1      21.525  14.275   9.465  0.00  0.00     0.116 C 
BRANCH   2   3
HETATM    3  C   UNK N   1      20.088  14.585   9.192  0.00  0.00     0.139 C 
HETATM    4  O   UNK N   1      19.237  14.179   9.961  0.00  0.00    -0.650 OA
BRANCH   3   5
HETATM    5  O   UNK N   1      19.724  15.304   8.110  0.00  0.00    -0.776 OA
HETATM    6  H   UNK N   1      19.685  16.238   8.160  0.00  0.00     0.167 HD
ENDBRANCH   3   5
ENDBRANCH   2   3
ENDBRANCH   1   2
BRANCH   1   7
HETATM    7  C   UNK N   1      22.019  12.207  10.960  0.00  0.00    -0.001 C 
HETATM    8  C   UNK N   1      23.206  11.928  11.553  0.00  0.00    -0.007 C 
HETATM    9  C   UNK N   1      24.551  12.143  10.937  0.00  0.00     0.038 C 
BRANCH   7  10
HETATM   10  N   UNK N   1      20.842  11.939  11.693  0.00  0.00    -0.403 N 
HETATM   11  H   UNK N   1      20.583  12.525  12.441  0.00  0.00     0.156 HD
HETATM   12  H   UNK N   1      20.281  11.164  11.458  0.00  0.00     0.156 HD
ENDBRANCH   7  10
ENDBRANCH   1   7
TORSDOF 5
ENDMDL
MODEL 3
REMARK VINA RESULT:      -4.1     21.356     22.153
REMARK  5 active torsions:
REMARK  status: ('A' for Active; 'I' for Inactive)
REMARK    1  A    between atoms: C_4  and  C_3 
REMARK    2  A    between atoms: C_5  and  C_3 
REMARK    3  A    between atoms: C_6  and  C_4 
REMARK    4  A    between atoms: N_7  and  C_5 
REMARK    5  A    between atoms: O_9  and  C_6 
ROOT
HETATM    1  C   UNK N   1      20.628  19.572   3.307  0.00  0.00     0.066 C 
ENDROOT
BRANCH   1   2
HETATM    2  C   UNK N   1      21.588  20.197   2.302  0.00  0.00     0.116 C 
BRANCH   2   3
HETATM    3  C   UNK N   1      20.933  20.708   1.060  0.00  0.00     0.139 C 
HETATM    4  O   UNK N   1      20.664  21.892   0.975  0.00  0.00    -0.650 OA
BRANCH   3   5
HETATM    5  O   UNK N   1      20.637  19.880   0.037  0.00  0.00    -0.776 OA
HETATM    6  H   UNK N   1      20.045  20.158  -0.634  0.00  0.00     0.167 HD
ENDBRANCH   3   5
ENDBRANCH   2   3
ENDBRANCH   1   2
BRANCH   1   7
HETATM    7  C   UNK N   1      19.848  18.346   2.852  0.00  0.00    -0.001 C 
HETATM    8  C   UNK N   1      20.266  17.060   2.955  0.00  0.00    -0.007 C 
HETATM    9  C   UNK N   1      21.572  16.619   3.535  0.00  0.00     0.038 C 
BRANCH   7  10
HETATM   10  N   UNK N   1      18.580  18.577   2.275  0.00  0.00    -0.403 N 
HETATM   11  H   UNK N   1      18.084  17.834   1.863  0.00  0.00     0.156 HD
HETATM   12  H   UNK N   1      18.193  19.483   2.284  0.00  0.00     0.156 HD
ENDBRANCH   7  10
ENDBRANCH   1   7
TORSDOF 5
ENDMDL
MODEL 4
REMARK VINA RESULT:      -4.1      8.007      8.931
REMARK  5 active torsions:
REMARK  status: ('A' for Active; 'I' for Inactive)
REMARK    1  A    between atoms: C_4  and  C_3 
REMARK    2  A    between atoms: C_5  and  C_3 
REMARK    3  A    between atoms: C_6  and  C_4 
REMARK    4  A    between atoms: N_7  and  C_5 
REMARK    5  A    between atoms: O_9  and  C_6 
ROOT
HETATM    1  C   UNK N   1      33.690  16.128   9.059  0.00  0.00     0.066 C 
ENDROOT
BRANCH   1   2
HETATM    2  C   UNK N   1      33.269  17.520   8.603  0.00  0.00     0.116 C 
BRANCH   2   3
HETATM    3  C   UNK N   1      34.317  18.259   7.836  0.00  0.00     0.139 C 
HETATM    4  O   UNK N   1      34.456  18.030   6.648  0.00  0.00    -0.650 OA
BRANCH   3   5
HETATM    5  O   UNK N   1      35.107  19.173   8.437  0.00  0.00    -0.776 OA
HETATM    6  H   UNK N   1      35.533  18.964   9.244  0.00  0.00     0.167 HD
ENDBRANCH   3   5
ENDBRANCH   2   3
ENDBRANCH   1   2
BRANCH   1   7
HETATM    7  C   UNK N   1      34.950  16.027   9.908  0.00  0.00    -0.001 C 
HETATM    8  C   UNK N   1      35.915  15.084   9.782  0.00  0.00    -0.007 C 
HETATM    9  C   UNK N   1      35.911  13.972   8.782  0.00  0.00     0.038 C 
BRANCH   7  10
HETATM   10  N   UNK N   1      35.119  17.006  10.912  0.00  0.00    -0.403 N 
HETATM   11  H   UNK N   1      34.627  16.930  11.762  0.00  0.00     0.156 HD
HETATM   12  H   UNK N   1      35.730  17.764  10.763  0.00  0.00     0.156 HD
ENDBRANCH   7  10
ENDBRANCH   1   7
TORSDOF 5
ENDMDL
MODEL 5
REMARK VINA RESULT:      -4.0     10.031     11.115
REMARK  5 active torsions:
REMARK  status: ('A' for Active; 'I' for Inactive)
REMARK    1  A    between atoms: C_4  and  C_3 
REMARK    2  A    between atoms: C_5  and  C_3 
REMARK    3  A    between atoms: C_6  and  C_4 
REMARK    4  A    between atoms: N_7  and  C_5 
REMARK    5  A    between atoms: O_9  and  C_6 
ROOT
HETATM    1  C   UNK N   1      31.925  17.964   8.449  0.00  0.00     0.066 C 
ENDROOT
BRANCH   1   2
HETATM    2  C   UNK N   1      33.357  17.478   8.642  0.00  0.00     0.116 C 
BRANCH   2   3
HETATM    3  C   UNK N   1      34.378  18.253   7.874  0.00  0.00     0.139 C 
HETATM    4  O   UNK N   1      34.457  18.101   6.668  0.00  0.00    -0.650 OA
BRANCH   3   5
HETATM    5  O   UNK N   1      35.210  19.115   8.494  0.00  0.00    -0.776 OA
HETATM    6  H   UNK N   1      34.877  19.707   9.138  0.00  0.00     0.167 HD
ENDBRANCH   3   5
ENDBRANCH   2   3
ENDBRANCH   1   2
BRANCH   1   7
HETATM    7  C   UNK N   1      31.078  17.235   7.415  0.00  0.00    -0.001 C 
HETATM    8  C   UNK N   1      29.741  17.378   7.246  0.00  0.00    -0.007 C 
HETATM    9  C   UNK N   1      28.859  18.281   8.049  0.00  0.00     0.038 C 
BRANCH   7  10
HETATM   10  N   UNK N   1      31.753  16.333   6.563  0.00  0.00    -0.403 N 
HETATM   11  H   UNK N   1      32.450  16.662   5.950  0.00  0.00     0.156 HD
HETATM   12  H   UNK N   1      31.525  15.375   6.581  0.00  0.00     0.156 HD
ENDBRANCH   7  10
ENDBRANCH   1   7
TORSDOF 5
ENDMDL
MODEL 6
REMARK VINA RESULT:      -4.0      9.953     11.009
REMARK  5 active torsions:
REMARK  status: ('A' for Active; 'I' for Inactive)
REMARK    1  A    between atoms: C_4  and  C_3 
REMARK    2  A    between atoms: C_5  and  C_3 
REMARK    3  A    between atoms: C_6  and  C_4 
REMARK    4  A    between atoms: N_7  and  C_5 
REMARK    5  A    between atoms: O_9  and  C_6 
ROOT
HETATM    1  C   UNK N   1      31.971  17.437   7.682  0.00  0.00     0.066 C 
ENDROOT
BRANCH   1   2
HETATM    2  C   UNK N   1      33.136  17.794   8.598  0.00  0.00     0.116 C 
BRANCH   2   3
HETATM    3  C   UNK N   1      34.346  18.304   7.884  0.00  0.00     0.139 C 
HETATM    4  O   UNK N   1      34.542  17.965   6.732  0.00  0.00    -0.650 OA
BRANCH   3   5
HETATM    5  O   UNK N   1      35.220  19.129   8.496  0.00  0.00    -0.776 OA
HETATM    6  H   UNK N   1      35.240  20.038   8.274  0.00  0.00     0.167 HD
ENDBRANCH   3   5
ENDBRANCH   2   3
ENDBRANCH   1   2
BRANCH   1   7
HETATM    7  C   UNK N   1      30.567  17.670   8.222  0.00  0.00    -0.001 C 
HETATM    8  C   UNK N   1      29.413  17.454   7.544  0.00  0.00    -0.007 C 
HETATM    9  C   UNK N   1      29.317  16.948   6.140  0.00  0.00     0.038 C 
BRANCH   7  10
HETATM   10  N   UNK N   1      30.467  18.152   9.546  0.00  0.00    -0.403 N 
HETATM   11  H   UNK N   1      31.282  18.340  10.064  0.00  0.00     0.156 HD
HETATM   12  H   UNK N   1      29.581  18.300   9.950  0.00  0.00     0.156 HD
ENDBRANCH   7  10
ENDBRANCH   1   7
TORSDOF 5
ENDMDL
MODEL 7
REMARK VINA RESULT:      -3.8     14.023     14.895
REMARK  5 active torsions:
REMARK  status: ('A' for Active; 'I' for Inactive)
REMARK    1  A    between atoms: C_4  and  C_3 
REMARK    2  A    between atoms: C_5  and  C_3 
REMARK    3  A    between atoms: C_6  and  C_4 
REMARK    4  A    between atoms: N_7  and  C_5 
REMARK    5  A    between atoms: O_9  and  C_6 
ROOT
HETATM    1  C   UNK N   1      22.582  13.104  10.181  0.00  0.00     0.066 C 
ENDROOT
BRANCH   1   2
HETATM    2  C   UNK N   1      22.698  11.930  11.145  0.00  0.00     0.116 C 
BRANCH   2   3
HETATM    3  C   UNK N   1      23.787  12.073  12.159  0.00  0.00     0.139 C 
HETATM    4  O   UNK N   1      23.506  12.025  13.343  0.00  0.00    -0.650 OA
BRANCH   3   5
HETATM    5  O   UNK N   1      25.070  12.252  11.784  0.00  0.00    -0.776 OA
HETATM    6  H   UNK N   1      25.306  12.993  11.261  0.00  0.00     0.167 HD
ENDBRANCH   3   5
ENDBRANCH   2   3
ENDBRANCH   1   2
BRANCH   1   7
HETATM    7  C   UNK N   1      23.371  13.017   8.882  0.00  0.00    -0.001 C 
HETATM    8  C   UNK N   1      22.868  12.666   7.673  0.00  0.00    -0.007 C 
HETATM    9  C   UNK N   1      21.443  12.302   7.402  0.00  0.00     0.038 C 
BRANCH   7  10
HETATM   10  N   UNK N   1      24.746  13.330   8.952  0.00  0.00    -0.403 N 
HETATM   11  H   UNK N   1      25.072  13.969   9.627  0.00  0.00     0.156 HD
HETATM   12  H   UNK N   1      25.380  12.909   8.326  0.00  0.00     0.156 HD
ENDBRANCH   7  10
ENDBRANCH   1   7
TORSDOF 5
ENDMDL
MODEL 8
REMARK VINA RESULT:      -3.8     13.152     14.271
REMARK  5 active torsions:
REMARK  status: ('A' for Active; 'I' for Inactive)
REMARK    1  A    between atoms: C_4  and  C_3 
REMARK    2  A    between atoms: C_5  and  C_3 
REMARK    3  A    between atoms: C_6  and  C_4 
REMARK    4  A    between atoms: N_7  and  C_5 
REMARK    5  A    between atoms: O_9  and  C_6 
ROOT
HETATM    1  C   UNK N   1      27.841  18.439   6.622  0.00  0.00     0.066 C 
ENDROOT
BRANCH   1   2
HETATM    2  C   UNK N   1      29.025  18.353   7.577  0.00  0.00     0.116 C 
BRANCH   2   3
HETATM    3  C   UNK N   1      28.656  18.414   9.024  0.00  0.00     0.139 C 
HETATM    4  O   UNK N   1      29.509  18.704   9.843  0.00  0.00    -0.650 OA
BRANCH   3   5
HETATM    5  O   UNK N   1      27.398  18.152   9.433  0.00  0.00    -0.776 OA
HETATM    6  H   UNK N   1      26.804  18.857   9.603  0.00  0.00     0.167 HD
ENDBRANCH   3   5
ENDBRANCH   2   3
ENDBRANCH   1   2
BRANCH   1   7
HETATM    7  C   UNK N   1      27.960  19.404   5.452  0.00  0.00    -0.001 C 
HETATM    8  C   UNK N   1      27.521  20.687   5.436  0.00  0.00    -0.007 C 
HETATM    9  C   UNK N   1      26.840  21.381   6.572  0.00  0.00     0.038 C 
BRANCH   7  10
HETATM   10  N   UNK N   1      28.583  18.912   4.283  0.00  0.00    -0.403 N 
HETATM   11  H   UNK N   1      29.142  19.509   3.735  0.00  0.00     0.156 HD
HETATM   12  H   UNK N   1      28.458  17.972   4.017  0.00  0.00     0.156 HD
ENDBRANCH   7  10
ENDBRANCH   1   7
TORSDOF 5
ENDMDL
MODEL 9
REMARK VINA RESULT:      -3.8     13.020     14.152
REMARK  5 active torsions:
REMARK  status: ('A' for Active; 'I' for Inactive)
REMARK    1  A    between atoms: C_4  and  C_3 
REMARK    2  A    between atoms: C_5  and  C_3 
REMARK    3  A    between atoms: C_6  and  C_4 
REMARK    4  A    between atoms: N_7  and  C_5 
REMARK    5  A    between atoms: O_9  and  C_6 
ROOT
HETATM    1  C   UNK N   1      27.975  18.738   6.911  0.00  0.00     0.066 C 
ENDROOT
BRANCH   1   2
HETATM    2  C   UNK N   1      29.074  18.849   7.961  0.00  0.00     0.116 C 
BRANCH   2   3
HETATM    3  C   UNK N   1      28.673  18.382   9.323  0.00  0.00     0.139 C 
HETATM    4  O   UNK N   1      29.470  18.471  10.240  0.00  0.00    -0.650 OA
BRANCH   3   5
HETATM    5  O   UNK N   1      27.448  17.865   9.550  0.00  0.00    -0.776 OA
HETATM    6  H   UNK N   1      26.816  18.355  10.037  0.00  0.00     0.167 HD
ENDBRANCH   3   5
ENDBRANCH   2   3
ENDBRANCH   1   2
BRANCH   1   7
HETATM    7  C   UNK N   1      27.135  19.979   6.650  0.00  0.00    -0.001 C 
HETATM    8  C   UNK N   1      26.961  20.579   5.447  0.00  0.00    -0.007 C 
HETATM    9  C   UNK N   1      27.568  20.123   4.159  0.00  0.00     0.038 C 
BRANCH   7  10
HETATM   10  N   UNK N   1      26.482  20.551   7.765  0.00  0.00    -0.403 N 
HETATM   11  H   UNK N   1      26.821  20.381   8.674  0.00  0.00     0.156 HD
HETATM   12  H   UNK N   1      25.688  21.119   7.634  0.00  0.00     0.156 HD
ENDBRANCH   7  10
ENDBRANCH   1   7
TORSDOF 5
ENDMDL
