REMARK  4 active torsions:
REMARK  status: ('A' for Active; 'I' for Inactive)
REMARK    1  A    between atoms: C_7  and  S_12 
REMARK    2  A    between atoms: S_12  and  N_15 
REMARK       I    between atoms: N_18  and  C_21 
REMARK    3  A    between atoms: C_21  and  C_23 
REMARK    4  A    between atoms: N_26  and  C_29 
ROOT
HETATM    1  N   UNK N   1       4.658   1.234  -0.516  0.00  0.00    -0.203 NA
HETATM    2  C   UNK N   1       4.675   2.137   0.656  0.00  0.00     0.127 C 
HETATM    3  C   UNK N   1       5.224   3.543   0.306  0.00  0.00     0.141 C 
HETATM    4  N   UNK N   1       6.483   3.319  -0.345  0.00  0.00    -0.349 N 
HETATM    5  C   UNK N   1       6.442   2.569  -1.575  0.00  0.00     0.141 C 
HETATM    6  C   UNK N   1       5.944   1.192  -1.224  0.00  0.00     0.127 C 
HETATM    7  C   UNK N   1       7.664   3.488   0.316  0.00  0.00     0.224 C 
HETATM    8  O   UNK N   1       7.700   4.109   1.375  0.00  0.00    -0.273 OA
ENDROOT
BRANCH   7   9
HETATM    9  C   UNK N   1       8.833   2.657  -0.111  0.00  0.00     0.081 C 
HETATM   10  C   UNK N   1      10.254   3.061   0.264  0.00  0.00     0.034 C 
HETATM   11  C   UNK N   1      11.219   2.058  -0.411  0.00  0.00     0.123 C 
HETATM   12  N   UNK N   1      10.817   0.671  -0.173  0.00  0.00    -0.381 N 
HETATM   13  C   UNK N   1       9.427   0.307  -0.323  0.00  0.00     0.123 C 
HETATM   14  C   UNK N   1       8.572   1.267   0.451  0.00  0.00     0.034 C 
BRANCH  12  15
HETATM   15  C   UNK N   1      11.782  -0.368  -0.019  0.00  0.00     0.032 A 
HETATM   16  C   UNK N   1      13.154  -0.093  -0.077  0.00  0.00     0.046 A 
HETATM   17  C   UNK N   1      14.072  -1.142   0.019  0.00  0.00     0.089 A 
HETATM   18  N   UNK N   1      13.638  -2.423   0.171  0.00  0.00    -0.375 N 
HETATM   19  C   UNK N   1      12.314  -2.719   0.237  0.00  0.00     0.089 A 
ATOM     20  HN  UNK N   1      14.322  -3.177   0.237  1.00  0.00     0.164 HD
HETATM   21  C   UNK N   1      11.366  -1.702   0.140  0.00  0.00     0.046 A 
ENDBRANCH  12  15
ENDBRANCH   7   9
BRANCH   1  22
HETATM   22  S   UNK N   1       4.363  -0.444   0.008  0.00  0.00     0.243 S 
HETATM   23  O   UNK N   1       5.610  -1.044   0.682  0.00  0.00    -0.206 OA
HETATM   24  O   UNK N   1       4.582  -1.100  -1.364  0.00  0.00    -0.206 OA
BRANCH  22  25
HETATM   25  C   UNK N   1       2.769  -1.175   0.290  0.00  0.00     0.075 A 
HETATM   26  C   UNK N   1       1.637  -0.363   0.322  0.00  0.00     0.037 A 
HETATM   27  C   UNK N   1       0.370  -0.942   0.264  0.00  0.00    -0.024 A 
HETATM   28  C   UNK N   1      -0.766  -0.133   0.252  0.00  0.00     0.014 A 
HETATM   29  C   UNK N   1       0.239  -2.347   0.158  0.00  0.00    -0.024 A 
HETATM   30  C   UNK N   1      -2.030  -0.712   0.112  0.00  0.00     0.024 A 
HETATM   31  C   UNK N   1      -2.159  -2.100  -0.013  0.00  0.00     0.034 A 
HETATM   32 Cl   UNK N   1      -3.740  -2.810  -0.243  0.00  0.00    -0.084 Cl
HETATM   33  C   UNK N   1      -1.027  -2.918   0.019  0.00  0.00     0.036 A 
HETATM   34  C   UNK N   1       1.376  -3.156   0.157  0.00  0.00     0.014 A 
HETATM   35  C   UNK N   1       2.640  -2.568   0.209  0.00  0.00     0.026 A 
ENDBRANCH  22  25
ENDBRANCH   1  22
TORSDOF 4
