MODEL 1
REMARK VINA RESULT:      -4.6      0.000      0.000
REMARK  6 active torsions:
REMARK  status: ('A' for Active; 'I' for Inactive)
REMARK    1  A    between atoms: C_5  and  C_3 
REMARK    2  A    between atoms: C_6  and  C_4 
REMARK    3  A    between atoms: C_7  and  C_5 
REMARK    4  A    between atoms: C_9  and  C_6 
REMARK    5  A    between atoms: C_8  and  C_7 
REMARK    6  A    between atoms: N_11  and  C_10 
ROOT
HETATM    1  C   UNK N   1      36.515  12.905  13.647  0.00  0.00     0.018 A 
HETATM    2  C   UNK N   1      35.940  12.009  12.771  0.00  0.00    -0.027 A 
HETATM    3  C   UNK N   1      36.474  14.166  11.812  0.00  0.00     0.143 A 
HETATM    4  N   UNK N   1      36.803  14.101  13.112  0.00  0.00    -0.343 N 
HETATM    5 Se   UNK N   1      35.743  12.666  11.081  0.00  0.00     0.000 Se
HETATM    6  H   UNK N   1      37.208  14.844  13.615  0.00  0.00     0.167 HD
ENDROOT
BRANCH   1   7
HETATM    7  C   UNK N   1      36.799  12.600  15.079  0.00  0.00     0.057 C 
BRANCH   7   8
HETATM    8  C   UNK N   1      36.013  13.557  15.952  0.00  0.00     0.006 C 
BRANCH   8   9
HETATM    9  C   UNK N   1      35.279  12.792  17.029  0.00  0.00    -0.004 C 
HETATM   10  C   UNK N   1      35.224  13.645  18.278  0.00  0.00     0.005 C 
ENDBRANCH   8   9
ENDBRANCH   7   8
ENDBRANCH   1   7
BRANCH   2  11
HETATM   11  C   UNK N   1      35.538  10.621  13.159  0.00  0.00     0.041 C 
BRANCH  11  12
HETATM   12  C   UNK N   1      34.025  10.481  13.248  0.00  0.00     0.000 C 
HETATM   13  C   UNK N   1      33.520  10.747  14.653  0.00  0.00     0.005 C 
ENDBRANCH  11  12
ENDBRANCH   2  11
BRANCH   3  14
HETATM   14  N   UNK N   1      36.667  15.229  11.130  0.00  0.00    -0.382 N 
HETATM   15  H   UNK N   1      37.095  16.011  11.547  0.00  0.00     0.157 HD
ATOM     16  HN  UNK N   1      36.378  15.268  10.151  1.00  0.00     0.157 HD
ENDBRANCH   3  14
TORSDOF 6
ENDMDL
MODEL 2
REMARK VINA RESULT:      -4.6      8.624     10.204
REMARK  6 active torsions:
REMARK  status: ('A' for Active; 'I' for Inactive)
REMARK    1  A    between atoms: C_5  and  C_3 
REMARK    2  A    between atoms: C_6  and  C_4 
REMARK    3  A    between atoms: C_7  and  C_5 
REMARK    4  A    between atoms: C_9  and  C_6 
REMARK    5  A    between atoms: C_8  and  C_7 
REMARK    6  A    between atoms: N_11  and  C_10 
ROOT
HETATM    1  C   UNK N   1      30.712  17.274   7.995  0.00  0.00     0.018 A 
HETATM    2  C   UNK N   1      30.161  17.038   6.754  0.00  0.00    -0.027 A 
HETATM    3  C   UNK N   1      28.637  17.989   8.375  0.00  0.00     0.143 A 
HETATM    4  N   UNK N   1      29.862  17.796   8.892  0.00  0.00    -0.343 N 
HETATM    5 Se   UNK N   1      28.408  17.527   6.629  0.00  0.00     0.000 Se
HETATM    6  H   UNK N   1      30.107  18.011   9.820  0.00  0.00     0.167 HD
ENDROOT
BRANCH   1   7
HETATM    7  C   UNK N   1      32.132  16.979   8.343  0.00  0.00     0.057 C 
BRANCH   7   8
HETATM    8  C   UNK N   1      32.951  18.244   8.186  0.00  0.00     0.006 C 
BRANCH   8   9
HETATM    9  C   UNK N   1      34.359  17.899   7.763  0.00  0.00    -0.004 C 
HETATM   10  C   UNK N   1      34.429  16.416   7.471  0.00  0.00     0.005 C 
ENDBRANCH   8   9
ENDBRANCH   7   8
ENDBRANCH   1   7
BRANCH   2  11
HETATM   11  C   UNK N   1      30.930  16.459   5.608  0.00  0.00     0.041 C 
BRANCH  11  12
HETATM   12  C   UNK N   1      31.300  17.526   4.586  0.00  0.00     0.000 C 
HETATM   13  C   UNK N   1      32.795  17.569   4.337  0.00  0.00     0.005 C 
ENDBRANCH  11  12
ENDBRANCH   2  11
BRANCH   3  14
HETATM   14  N   UNK N   1      27.688  18.474   9.080  0.00  0.00    -0.382 N 
HETATM   15  H   UNK N   1      26.753  18.263   8.859  0.00  0.00     0.157 HD
ATOM     16  HN  UNK N   1      27.900  19.080   9.874  1.00  0.00     0.157 HD
ENDBRANCH   3  14
TORSDOF 6
ENDMDL
MODEL 3
REMARK VINA RESULT:      -4.4      1.833      4.020
REMARK  6 active torsions:
REMARK  status: ('A' for Active; 'I' for Inactive)
REMARK    1  A    between atoms: C_5  and  C_3 
REMARK    2  A    between atoms: C_6  and  C_4 
REMARK    3  A    between atoms: C_7  and  C_5 
REMARK    4  A    between atoms: C_9  and  C_6 
REMARK    5  A    between atoms: C_8  and  C_7 
REMARK    6  A    between atoms: N_11  and  C_10 
ROOT
HETATM    1  C   UNK N   1      34.886  12.380  14.629  0.00  0.00     0.018 A 
HETATM    2  C   UNK N   1      35.631  12.792  15.714  0.00  0.00    -0.027 A 
HETATM    3  C   UNK N   1      36.074  13.998  13.663  0.00  0.00     0.143 A 
HETATM    4  N   UNK N   1      35.140  13.048  13.494  0.00  0.00    -0.343 N 
HETATM    5 Se   UNK N   1      36.761  14.174  15.340  0.00  0.00     0.000 Se
HETATM    6  H   UNK N   1      34.693  12.862  12.636  0.00  0.00     0.167 HD
ENDROOT
BRANCH   1   7
HETATM    7  C   UNK N   1      33.878  11.282  14.682  0.00  0.00     0.057 C 
BRANCH   7   8
HETATM    8  C   UNK N   1      34.037  10.408  13.455  0.00  0.00     0.006 C 
BRANCH   8   9
HETATM    9  C   UNK N   1      35.214   9.477  13.631  0.00  0.00    -0.004 C 
HETATM   10  C   UNK N   1      35.282   9.052  15.082  0.00  0.00     0.005 C 
ENDBRANCH   8   9
ENDBRANCH   7   8
ENDBRANCH   1   7
BRANCH   2  11
HETATM   11  C   UNK N   1      35.509  12.183  17.075  0.00  0.00     0.041 C 
BRANCH  11  12
HETATM   12  C   UNK N   1      35.145  13.226  18.124  0.00  0.00     0.000 C 
HETATM   13  C   UNK N   1      35.233  12.661  19.529  0.00  0.00     0.005 C 
ENDBRANCH  11  12
ENDBRANCH   2  11
BRANCH   3  14
HETATM   14  N   UNK N   1      36.454  14.736  12.692  0.00  0.00    -0.382 N 
HETATM   15  H   UNK N   1      36.798  14.326  11.866  0.00  0.00     0.157 HD
ATOM     16  HN  UNK N   1      36.401  15.753  12.772  1.00  0.00     0.157 HD
ENDBRANCH   3  14
TORSDOF 6
ENDMDL
MODEL 4
REMARK VINA RESULT:      -4.4     10.534     12.350
REMARK  6 active torsions:
REMARK  status: ('A' for Active; 'I' for Inactive)
REMARK    1  A    between atoms: C_5  and  C_3 
REMARK    2  A    between atoms: C_6  and  C_4 
REMARK    3  A    between atoms: C_7  and  C_5 
REMARK    4  A    between atoms: C_9  and  C_6 
REMARK    5  A    between atoms: C_8  and  C_7 
REMARK    6  A    between atoms: N_11  and  C_10 
ROOT
HETATM    1  C   UNK N   1      29.156  17.969   5.040  0.00  0.00     0.018 A 
HETATM    2  C   UNK N   1      29.420  17.506   6.312  0.00  0.00    -0.027 A 
HETATM    3  C   UNK N   1      31.308  17.446   4.799  0.00  0.00     0.143 A 
HETATM    4  N   UNK N   1      30.205  17.928   4.204  0.00  0.00    -0.343 N 
HETATM    5 Se   UNK N   1      31.149  16.979   6.552  0.00  0.00     0.000 Se
HETATM    6  H   UNK N   1      30.169  18.217   3.264  0.00  0.00     0.167 HD
ENDROOT
BRANCH   1   7
HETATM    7  C   UNK N   1      27.824  18.475   4.599  0.00  0.00     0.057 C 
BRANCH   7   8
HETATM    8  C   UNK N   1      27.855  19.989   4.579  0.00  0.00     0.006 C 
BRANCH   8   9
HETATM    9  C   UNK N   1      26.699  20.541   5.381  0.00  0.00    -0.004 C 
HETATM   10  C   UNK N   1      27.224  21.609   6.316  0.00  0.00     0.005 C 
ENDBRANCH   8   9
ENDBRANCH   7   8
ENDBRANCH   1   7
BRANCH   2  11
HETATM   11  C   UNK N   1      28.394  17.462   7.401  0.00  0.00     0.041 C 
BRANCH  11  12
HETATM   12  C   UNK N   1      28.468  18.696   8.289  0.00  0.00     0.000 C 
HETATM   13  C   UNK N   1      29.249  18.425   9.560  0.00  0.00     0.005 C 
ENDBRANCH  11  12
ENDBRANCH   2  11
BRANCH   3  14
HETATM   14  N   UNK N   1      32.408  17.325   4.161  0.00  0.00    -0.382 N 
HETATM   15  H   UNK N   1      33.211  16.991   4.621  0.00  0.00     0.157 HD
ATOM     16  HN  UNK N   1      32.454  17.575   3.172  1.00  0.00     0.157 HD
ENDBRANCH   3  14
TORSDOF 6
ENDMDL
MODEL 5
REMARK VINA RESULT:      -4.4     21.709     23.949
REMARK  6 active torsions:
REMARK  status: ('A' for Active; 'I' for Inactive)
REMARK    1  A    between atoms: C_5  and  C_3 
REMARK    2  A    between atoms: C_6  and  C_4 
REMARK    3  A    between atoms: C_7  and  C_5 
REMARK    4  A    between atoms: C_9  and  C_6 
REMARK    5  A    between atoms: C_8  and  C_7 
REMARK    6  A    between atoms: N_11  and  C_10 
ROOT
HETATM    1  C   UNK N   1      26.542  25.367  -3.846  0.00  0.00     0.018 A 
HETATM    2  C   UNK N   1      25.864  25.307  -5.045  0.00  0.00    -0.027 A 
HETATM    3  C   UNK N   1      25.785  27.459  -3.942  0.00  0.00     0.143 A 
HETATM    4  N   UNK N   1      26.491  26.561  -3.237  0.00  0.00    -0.343 N 
HETATM    5 Se   UNK N   1      25.086  26.885  -5.522  0.00  0.00     0.000 Se
HETATM    6  H   UNK N   1      26.920  26.754  -2.372  0.00  0.00     0.167 HD
ENDROOT
BRANCH   1   7
HETATM    7  C   UNK N   1      27.278  24.215  -3.249  0.00  0.00     0.057 C 
BRANCH   7   8
HETATM    8  C   UNK N   1      28.751  24.349  -3.574  0.00  0.00     0.006 C 
BRANCH   8   9
HETATM    9  C   UNK N   1      29.418  22.994  -3.526  0.00  0.00    -0.004 C 
HETATM   10  C   UNK N   1      30.262  22.914  -2.272  0.00  0.00     0.005 C 
ENDBRANCH   8   9
ENDBRANCH   7   8
ENDBRANCH   1   7
BRANCH   2  11
HETATM   11  C   UNK N   1      25.791  24.072  -5.888  0.00  0.00     0.041 C 
BRANCH  11  12
HETATM   12  C   UNK N   1      26.925  24.021  -6.904  0.00  0.00     0.000 C 
HETATM   13  C   UNK N   1      27.680  22.708  -6.834  0.00  0.00     0.005 C 
ENDBRANCH  11  12
ENDBRANCH   2  11
BRANCH   3  14
HETATM   14  N   UNK N   1      25.619  28.653  -3.519  0.00  0.00    -0.382 N 
HETATM   15  H   UNK N   1      24.866  29.193  -3.851  0.00  0.00     0.157 HD
ATOM     16  HN  UNK N   1      26.268  29.048  -2.837  1.00  0.00     0.157 HD
ENDBRANCH   3  14
TORSDOF 6
ENDMDL
MODEL 6
REMARK VINA RESULT:      -4.3      3.816      5.369
REMARK  6 active torsions:
REMARK  status: ('A' for Active; 'I' for Inactive)
REMARK    1  A    between atoms: C_5  and  C_3 
REMARK    2  A    between atoms: C_6  and  C_4 
REMARK    3  A    between atoms: C_7  and  C_5 
REMARK    4  A    between atoms: C_9  and  C_6 
REMARK    5  A    between atoms: C_8  and  C_7 
REMARK    6  A    between atoms: N_11  and  C_10 
ROOT
HETATM    1  C   UNK N   1      35.190  12.583  17.105  0.00  0.00     0.018 A 
HETATM    2  C   UNK N   1      35.404  11.245  17.359  0.00  0.00    -0.027 A 
HETATM    3  C   UNK N   1      35.176  12.627  19.332  0.00  0.00     0.143 A 
HETATM    4  N   UNK N   1      35.070  13.345  18.203  0.00  0.00    -0.343 N 
HETATM    5 Se   UNK N   1      35.440  10.836  19.136  0.00  0.00     0.000 Se
HETATM    6  H   UNK N   1      34.922  14.319  18.181  0.00  0.00     0.167 HD
ENDROOT
BRANCH   1   7
HETATM    7  C   UNK N   1      35.099  13.165  15.735  0.00  0.00     0.057 C 
BRANCH   7   8
HETATM    8  C   UNK N   1      36.424  13.812  15.386  0.00  0.00     0.006 C 
BRANCH   8   9
HETATM    9  C   UNK N   1      36.455  14.170  13.918  0.00  0.00    -0.004 C 
HETATM   10  C   UNK N   1      35.431  13.325  13.191  0.00  0.00     0.005 C 
ENDBRANCH   8   9
ENDBRANCH   7   8
ENDBRANCH   1   7
BRANCH   2  11
HETATM   11  C   UNK N   1      35.568  10.219  16.282  0.00  0.00     0.041 C 
BRANCH  11  12
HETATM   12  C   UNK N   1      37.034   9.877  16.053  0.00  0.00     0.000 C 
HETATM   13  C   UNK N   1      37.512  10.345  14.692  0.00  0.00     0.005 C 
ENDBRANCH  11  12
ENDBRANCH   2  11
BRANCH   3  14
HETATM   14  N   UNK N   1      35.094  13.180  20.481  0.00  0.00    -0.382 N 
HETATM   15  H   UNK N   1      35.867  13.663  20.852  0.00  0.00     0.157 HD
ATOM     16  HN  UNK N   1      34.225  13.121  21.015  1.00  0.00     0.157 HD
ENDBRANCH   3  14
TORSDOF 6
ENDMDL
MODEL 7
REMARK VINA RESULT:      -4.3     11.406     13.443
REMARK  6 active torsions:
REMARK  status: ('A' for Active; 'I' for Inactive)
REMARK    1  A    between atoms: C_5  and  C_3 
REMARK    2  A    between atoms: C_6  and  C_4 
REMARK    3  A    between atoms: C_7  and  C_5 
REMARK    4  A    between atoms: C_9  and  C_6 
REMARK    5  A    between atoms: C_8  and  C_7 
REMARK    6  A    between atoms: N_11  and  C_10 
ROOT
HETATM    1  C   UNK N   1      28.116  18.313   5.530  0.00  0.00     0.018 A 
HETATM    2  C   UNK N   1      29.255  17.559   5.715  0.00  0.00    -0.027 A 
HETATM    3  C   UNK N   1      28.179  18.288   7.756  0.00  0.00     0.143 A 
HETATM    4  N   UNK N   1      27.526  18.719   6.665  0.00  0.00    -0.343 N 
HETATM    5 Se   UNK N   1      29.663  17.273   7.469  0.00  0.00     0.000 Se
HETATM    6  H   UNK N   1      26.711  19.270   6.693  0.00  0.00     0.167 HD
ENDROOT
BRANCH   1   7
HETATM    7  C   UNK N   1      27.563  18.668   4.191  0.00  0.00     0.057 C 
BRANCH   7   8
HETATM    8  C   UNK N   1      27.275  20.155   4.156  0.00  0.00     0.006 C 
BRANCH   8   9
HETATM    9  C   UNK N   1      26.175  20.446   3.161  0.00  0.00    -0.004 C 
HETATM   10  C   UNK N   1      24.906  19.768   3.629  0.00  0.00     0.005 C 
ENDBRANCH   8   9
ENDBRANCH   7   8
ENDBRANCH   1   7
BRANCH   2  11
HETATM   11  C   UNK N   1      30.069  17.006   4.587  0.00  0.00     0.041 C 
BRANCH  11  12
HETATM   12  C   UNK N   1      31.464  17.615   4.553  0.00  0.00     0.000 C 
HETATM   13  C   UNK N   1      32.234  17.181   3.321  0.00  0.00     0.005 C 
ENDBRANCH  11  12
ENDBRANCH   2  11
BRANCH   3  14
HETATM   14  N   UNK N   1      27.771  18.580   8.932  0.00  0.00    -0.382 N 
HETATM   15  H   UNK N   1      27.663  17.870   9.605  0.00  0.00     0.157 HD
ATOM     16  HN  UNK N   1      27.558  19.549   9.172  1.00  0.00     0.157 HD
ENDBRANCH   3  14
TORSDOF 6
ENDMDL
MODEL 8
REMARK VINA RESULT:      -4.2     21.773     24.074
REMARK  6 active torsions:
REMARK  status: ('A' for Active; 'I' for Inactive)
REMARK    1  A    between atoms: C_5  and  C_3 
REMARK    2  A    between atoms: C_6  and  C_4 
REMARK    3  A    between atoms: C_7  and  C_5 
REMARK    4  A    between atoms: C_9  and  C_6 
REMARK    5  A    between atoms: C_8  and  C_7 
REMARK    6  A    between atoms: N_11  and  C_10 
ROOT
HETATM    1  C   UNK N   1      26.588  24.619  -4.297  0.00  0.00     0.018 A 
HETATM    2  C   UNK N   1      26.228  25.942  -4.444  0.00  0.00    -0.027 A 
HETATM    3  C   UNK N   1      25.755  24.542  -6.361  0.00  0.00     0.143 A 
HETATM    4  N   UNK N   1      26.329  23.849  -5.364  0.00  0.00    -0.343 N 
HETATM    5 Se   UNK N   1      25.454  26.312  -6.053  0.00  0.00     0.000 Se
HETATM    6  H   UNK N   1      26.536  22.888  -5.411  0.00  0.00     0.167 HD
ENDROOT
BRANCH   1   7
HETATM    7  C   UNK N   1      27.220  24.062  -3.066  0.00  0.00     0.057 C 
BRANCH   7   8
HETATM    8  C   UNK N   1      28.676  23.758  -3.355  0.00  0.00     0.006 C 
BRANCH   8   9
HETATM    9  C   UNK N   1      29.295  23.030  -2.184  0.00  0.00    -0.004 C 
HETATM   10  C   UNK N   1      30.766  22.815  -2.469  0.00  0.00     0.005 C 
ENDBRANCH   8   9
ENDBRANCH   7   8
ENDBRANCH   1   7
BRANCH   2  11
HETATM   11  C   UNK N   1      26.429  26.973  -3.378  0.00  0.00     0.041 C 
BRANCH  11  12
HETATM   12  C   UNK N   1      25.686  28.263  -3.701  0.00  0.00     0.000 C 
HETATM   13  C   UNK N   1      26.618  29.459  -3.710  0.00  0.00     0.005 C 
ENDBRANCH  11  12
ENDBRANCH   2  11
BRANCH   3  14
HETATM   14  N   UNK N   1      25.438  23.981  -7.464  0.00  0.00    -0.382 N 
HETATM   15  H   UNK N   1      25.874  23.140  -7.732  0.00  0.00     0.157 HD
ATOM     16  HN  UNK N   1      24.733  24.405  -8.069  1.00  0.00     0.157 HD
ENDBRANCH   3  14
TORSDOF 6
ENDMDL
MODEL 9
REMARK VINA RESULT:      -4.2     23.556     25.537
REMARK  6 active torsions:
REMARK  status: ('A' for Active; 'I' for Inactive)
REMARK    1  A    between atoms: C_5  and  C_3 
REMARK    2  A    between atoms: C_6  and  C_4 
REMARK    3  A    between atoms: C_7  and  C_5 
REMARK    4  A    between atoms: C_9  and  C_6 
REMARK    5  A    between atoms: C_8  and  C_7 
REMARK    6  A    between atoms: N_11  and  C_10 
ROOT
HETATM    1  C   UNK N   1      25.548  25.476  -6.339  0.00  0.00     0.018 A 
HETATM    2  C   UNK N   1      25.988  24.401  -5.597  0.00  0.00    -0.027 A 
HETATM    3  C   UNK N   1      25.748  23.968  -7.965  0.00  0.00     0.143 A 
HETATM    4  N   UNK N   1      25.412  25.229  -7.650  0.00  0.00    -0.343 N 
HETATM    5 Se   UNK N   1      26.307  22.908  -6.593  0.00  0.00     0.000 Se
HETATM    6  H   UNK N   1      25.100  25.895  -8.305  0.00  0.00     0.167 HD
ENDROOT
BRANCH   1   7
HETATM    7  C   UNK N   1      25.237  26.815  -5.759  0.00  0.00     0.057 C 
BRANCH   7   8
HETATM    8  C   UNK N   1      26.407  27.744  -6.010  0.00  0.00     0.006 C 
BRANCH   8   9
HETATM    9  C   UNK N   1      26.646  28.614  -4.798  0.00  0.00    -0.004 C 
HETATM   10  C   UNK N   1      25.746  28.141  -3.676  0.00  0.00     0.005 C 
ENDBRANCH   8   9
ENDBRANCH   7   8
ENDBRANCH   1   7
BRANCH   2  11
HETATM   11  C   UNK N   1      26.207  24.457  -4.117  0.00  0.00     0.041 C 
BRANCH  11  12
HETATM   12  C   UNK N   1      27.665  24.202  -3.757  0.00  0.00     0.000 C 
HETATM   13  C   UNK N   1      28.543  25.389  -4.104  0.00  0.00     0.005 C 
ENDBRANCH  11  12
ENDBRANCH   2  11
BRANCH   3  14
HETATM   14  N   UNK N   1      25.678  23.542  -9.168  0.00  0.00    -0.382 N 
HETATM   15  H   UNK N   1      26.360  22.921  -9.511  0.00  0.00     0.157 HD
ATOM     16  HN  UNK N   1      24.914  23.845  -9.773  1.00  0.00     0.157 HD
ENDBRANCH   3  14
TORSDOF 6
ENDMDL
