MODEL 1
REMARK VINA RESULT:      -4.7      0.000      0.000
REMARK  2 active torsions:
REMARK  status: ('A' for Active; 'I' for Inactive)
REMARK    1  A    between atoms: C_5  and  C_8 
REMARK    2  A    between atoms: C_8  and  O_9 
ROOT
HETATM    1  C   UNK N   1      19.537  16.369   0.061  0.00  0.00     0.050 C 
HETATM    2  C   UNK N   1      20.058  16.954   1.357  0.00  0.00     0.068 A 
HETATM    3  C   UNK N   1      19.749  15.480   1.522  0.00  0.00     0.050 C 
HETATM    4  N   UNK N   1      20.201  18.276   0.753  0.00  0.00    -0.391 N 
HETATM    5  C   UNK N   1      20.712  19.248   1.697  0.00  0.00     0.186 A 
HETATM    6  C   UNK N   1      21.004  18.776   3.085  0.00  0.00     0.112 A 
HETATM    7  S   UNK N   1      20.589  17.027   3.113  0.00  0.00    -0.136 SA
HETATM    8  H   UNK N   1      19.968  18.488  -0.218  0.00  0.00     0.155 HD
ENDROOT
BRANCH   5   9
HETATM    9  C   UNK N   1      20.909  20.647   1.212  0.00  0.00     0.164 C 
HETATM   10  O   UNK N   1      21.002  20.879   0.017  0.00  0.00    -0.648 OA
BRANCH   9  11
HETATM   11  O   UNK N   1      20.984  21.658   2.098  0.00  0.00    -0.775 OA
HETATM   12  H   UNK N   1      21.447  21.542   2.904  0.00  0.00     0.167 HD
ENDBRANCH   9  11
ENDBRANCH   5   9
TORSDOF 2
ENDMDL
MODEL 2
REMARK VINA RESULT:      -4.7     19.016     19.926
REMARK  2 active torsions:
REMARK  status: ('A' for Active; 'I' for Inactive)
REMARK    1  A    between atoms: C_5  and  C_8 
REMARK    2  A    between atoms: C_8  and  O_9 
ROOT
HETATM    1  C   UNK N   1      37.036  14.359  15.550  0.00  0.00     0.050 C 
HETATM    2  C   UNK N   1      36.195  13.786  14.428  0.00  0.00     0.068 A 
HETATM    3  C   UNK N   1      36.193  12.857  15.625  0.00  0.00     0.050 C 
HETATM    4  N   UNK N   1      36.479  14.934  13.571  0.00  0.00    -0.391 N 
HETATM    5  C   UNK N   1      35.830  14.820  12.282  0.00  0.00     0.186 A 
HETATM    6  C   UNK N   1      35.003  13.599  12.031  0.00  0.00     0.112 A 
HETATM    7  S   UNK N   1      35.105  12.613  13.531  0.00  0.00    -0.136 SA
HETATM    8  H   UNK N   1      37.064  15.723  13.849  0.00  0.00     0.155 HD
ENDROOT
BRANCH   5   9
HETATM    9  C   UNK N   1      36.034  15.928  11.302  0.00  0.00     0.164 C 
HETATM   10  O   UNK N   1      35.156  16.754  11.113  0.00  0.00    -0.648 OA
BRANCH   9  11
HETATM   11  O   UNK N   1      37.194  16.016  10.623  0.00  0.00    -0.775 OA
HETATM   12  H   UNK N   1      37.300  16.669   9.959  0.00  0.00     0.167 HD
ENDBRANCH   9  11
ENDBRANCH   5   9
TORSDOF 2
ENDMDL
MODEL 3
REMARK VINA RESULT:      -4.6     12.574     13.503
REMARK  2 active torsions:
REMARK  status: ('A' for Active; 'I' for Inactive)
REMARK    1  A    between atoms: C_5  and  C_8 
REMARK    2  A    between atoms: C_8  and  O_9 
ROOT
HETATM    1  C   UNK N   1      29.512  18.408   9.740  0.00  0.00     0.050 C 
HETATM    2  C   UNK N   1      30.104  17.853   8.462  0.00  0.00     0.068 A 
HETATM    3  C   UNK N   1      28.591  17.807   8.413  0.00  0.00     0.050 C 
HETATM    4  N   UNK N   1      31.464  18.086   8.940  0.00  0.00    -0.391 N 
HETATM    5  C   UNK N   1      32.456  17.673   7.970  0.00  0.00     0.186 A 
HETATM    6  C   UNK N   1      31.964  17.096   6.681  0.00  0.00     0.112 A 
HETATM    7  S   UNK N   1      30.169  17.112   6.784  0.00  0.00    -0.136 SA
HETATM    8  H   UNK N   1      31.688  18.492   9.850  0.00  0.00     0.155 HD
ENDROOT
BRANCH   5   9
HETATM    9  C   UNK N   1      33.895  17.855   8.329  0.00  0.00     0.164 C 
HETATM   10  O   UNK N   1      34.678  18.324   7.519  0.00  0.00    -0.648 OA
BRANCH   9  11
HETATM   11  O   UNK N   1      34.330  17.498   9.552  0.00  0.00    -0.775 OA
HETATM   12  H   UNK N   1      34.681  16.640   9.693  0.00  0.00     0.167 HD
ENDBRANCH   9  11
ENDBRANCH   5   9
TORSDOF 2
ENDMDL
MODEL 4
REMARK VINA RESULT:      -4.4      9.290     10.273
REMARK  2 active torsions:
REMARK  status: ('A' for Active; 'I' for Inactive)
REMARK    1  A    between atoms: C_5  and  C_8 
REMARK    2  A    between atoms: C_8  and  O_9 
ROOT
HETATM    1  C   UNK N   1      26.782  21.004   6.151  0.00  0.00     0.050 C 
HETATM    2  C   UNK N   1      27.594  19.735   6.001  0.00  0.00     0.068 A 
HETATM    3  C   UNK N   1      27.319  20.355   4.647  0.00  0.00     0.050 C 
HETATM    4  N   UNK N   1      27.606  19.520   7.446  0.00  0.00    -0.391 N 
HETATM    5  C   UNK N   1      28.331  18.320   7.808  0.00  0.00     0.186 A 
HETATM    6  C   UNK N   1      28.932  17.515   6.700  0.00  0.00     0.112 A 
HETATM    7  S   UNK N   1      28.519  18.379   5.178  0.00  0.00    -0.136 SA
HETATM    8  H   UNK N   1      27.156  20.142   8.119  0.00  0.00     0.155 HD
ENDROOT
BRANCH   5   9
HETATM    9  C   UNK N   1      28.423  17.977   9.259  0.00  0.00     0.164 C 
HETATM   10  O   UNK N   1      27.715  17.103   9.732  0.00  0.00    -0.648 OA
BRANCH   9  11
HETATM   11  O   UNK N   1      29.292  18.635  10.049  0.00  0.00    -0.775 OA
HETATM   12  H   UNK N   1      29.877  19.267   9.678  0.00  0.00     0.167 HD
ENDBRANCH   9  11
ENDBRANCH   5   9
TORSDOF 2
ENDMDL
MODEL 5
REMARK VINA RESULT:      -4.3     15.686     16.601
REMARK  2 active torsions:
REMARK  status: ('A' for Active; 'I' for Inactive)
REMARK    1  A    between atoms: C_5  and  C_8 
REMARK    2  A    between atoms: C_8  and  O_9 
ROOT
HETATM    1  C   UNK N   1      33.465  18.364   8.161  0.00  0.00     0.050 C 
HETATM    2  C   UNK N   1      33.217  16.982   8.729  0.00  0.00     0.068 A 
HETATM    3  C   UNK N   1      32.129  17.358   7.745  0.00  0.00     0.050 C 
HETATM    4  N   UNK N   1      34.421  17.057   9.553  0.00  0.00    -0.391 N 
HETATM    5  C   UNK N   1      34.613  15.856  10.339  0.00  0.00     0.186 A 
HETATM    6  C   UNK N   1      33.597  14.768  10.198  0.00  0.00     0.112 A 
HETATM    7  S   UNK N   1      32.390  15.367   9.008  0.00  0.00    -0.136 SA
HETATM    8  H   UNK N   1      35.051  17.860   9.571  0.00  0.00     0.155 HD
ENDROOT
BRANCH   5   9
HETATM    9  C   UNK N   1      35.810  15.796  11.230  0.00  0.00     0.164 C 
HETATM   10  O   UNK N   1      35.713  15.356  12.365  0.00  0.00    -0.648 OA
BRANCH   9  11
HETATM   11  O   UNK N   1      37.003  16.229  10.781  0.00  0.00    -0.775 OA
HETATM   12  H   UNK N   1      37.525  16.798  11.312  0.00  0.00     0.167 HD
ENDBRANCH   9  11
ENDBRANCH   5   9
TORSDOF 2
ENDMDL
MODEL 6
REMARK VINA RESULT:      -4.3     22.151     22.797
REMARK  2 active torsions:
REMARK  status: ('A' for Active; 'I' for Inactive)
REMARK    1  A    between atoms: C_5  and  C_8 
REMARK    2  A    between atoms: C_8  and  O_9 
ROOT
HETATM    1  C   UNK N   1      41.071  23.594   1.486  0.00  0.00     0.050 C 
HETATM    2  C   UNK N   1      41.550  22.222   1.913  0.00  0.00     0.068 A 
HETATM    3  C   UNK N   1      40.459  22.106   0.870  0.00  0.00     0.050 C 
HETATM    4  N   UNK N   1      42.514  22.802   2.845  0.00  0.00    -0.391 N 
HETATM    5  C   UNK N   1      43.270  21.783   3.544  0.00  0.00     0.186 A 
HETATM    6  C   UNK N   1      42.965  20.355   3.223  0.00  0.00     0.112 A 
HETATM    7  S   UNK N   1      41.664  20.392   1.982  0.00  0.00    -0.136 SA
HETATM    8  H   UNK N   1      42.640  23.805   2.986  0.00  0.00     0.155 HD
ENDROOT
BRANCH   5   9
HETATM    9  C   UNK N   1      44.295  22.236   4.531  0.00  0.00     0.164 C 
HETATM   10  O   UNK N   1      43.953  22.716   5.600  0.00  0.00    -0.648 OA
BRANCH   9  11
HETATM   11  O   UNK N   1      45.604  22.113   4.241  0.00  0.00    -0.775 OA
HETATM   12  H   UNK N   1      46.101  21.407   4.606  0.00  0.00     0.167 HD
ENDBRANCH   9  11
ENDBRANCH   5   9
TORSDOF 2
ENDMDL
MODEL 7
REMARK VINA RESULT:      -4.2      2.026      3.060
REMARK  2 active torsions:
REMARK  status: ('A' for Active; 'I' for Inactive)
REMARK    1  A    between atoms: C_5  and  C_8 
REMARK    2  A    between atoms: C_8  and  O_9 
ROOT
HETATM    1  C   UNK N   1      22.446  17.970   5.608  0.00  0.00     0.050 C 
HETATM    2  C   UNK N   1      21.354  17.845   4.566  0.00  0.00     0.068 A 
HETATM    3  C   UNK N   1      21.281  16.702   5.556  0.00  0.00     0.050 C 
HETATM    4  N   UNK N   1      21.796  19.065   3.895  0.00  0.00    -0.391 N 
HETATM    5  C   UNK N   1      20.978  19.372   2.739  0.00  0.00     0.186 A 
HETATM    6  C   UNK N   1      19.855  18.438   2.420  0.00  0.00     0.112 A 
HETATM    7  S   UNK N   1      19.906  17.152   3.675  0.00  0.00    -0.136 SA
HETATM    8  H   UNK N   1      22.586  19.633   4.203  0.00  0.00     0.155 HD
ENDROOT
BRANCH   5   9
HETATM    9  C   UNK N   1      21.318  20.598   1.956  0.00  0.00     0.164 C 
HETATM   10  O   UNK N   1      21.355  20.559   0.736  0.00  0.00    -0.648 OA
BRANCH   9  11
HETATM   11  O   UNK N   1      21.584  21.751   2.598  0.00  0.00    -0.775 OA
HETATM   12  H   UNK N   1      22.464  21.957   2.845  0.00  0.00     0.167 HD
ENDBRANCH   9  11
ENDBRANCH   5   9
TORSDOF 2
ENDMDL
MODEL 8
REMARK VINA RESULT:      -4.1     10.444     11.245
REMARK  2 active torsions:
REMARK  status: ('A' for Active; 'I' for Inactive)
REMARK    1  A    between atoms: C_5  and  C_8 
REMARK    2  A    between atoms: C_8  and  O_9 
ROOT
HETATM    1  C   UNK N   1      23.463  10.574   7.400  0.00  0.00     0.050 C 
HETATM    2  C   UNK N   1      22.703  11.658   8.134  0.00  0.00     0.068 A 
HETATM    3  C   UNK N   1      22.253  11.575   6.691  0.00  0.00     0.050 C 
HETATM    4  N   UNK N   1      23.421  11.380   9.376  0.00  0.00    -0.391 N 
HETATM    5  C   UNK N   1      22.992  12.248  10.453  0.00  0.00     0.186 A 
HETATM    6  C   UNK N   1      21.927  13.253  10.149  0.00  0.00     0.112 A 
HETATM    7  S   UNK N   1      21.509  13.024   8.416  0.00  0.00    -0.136 SA
HETATM    8  H   UNK N   1      24.139  10.661   9.472  0.00  0.00     0.155 HD
ENDROOT
BRANCH   5   9
HETATM    9  C   UNK N   1      23.645  12.073  11.785  0.00  0.00     0.164 C 
HETATM   10  O   UNK N   1      22.974  11.826  12.774  0.00  0.00    -0.648 OA
BRANCH   9  11
HETATM   11  O   UNK N   1      24.982  12.190  11.896  0.00  0.00    -0.775 OA
HETATM   12  H   UNK N   1      25.507  12.319  11.130  0.00  0.00     0.167 HD
ENDBRANCH   9  11
ENDBRANCH   5   9
TORSDOF 2
ENDMDL
MODEL 9
REMARK VINA RESULT:      -4.0     18.731     19.484
REMARK  2 active torsions:
REMARK  status: ('A' for Active; 'I' for Inactive)
REMARK    1  A    between atoms: C_5  and  C_8 
REMARK    2  A    between atoms: C_8  and  O_9 
ROOT
HETATM    1  C   UNK N   1      33.869  10.527  13.697  0.00  0.00     0.050 C 
HETATM    2  C   UNK N   1      34.827  11.643  14.059  0.00  0.00     0.068 A 
HETATM    3  C   UNK N   1      34.868  10.545  15.101  0.00  0.00     0.050 C 
HETATM    4  N   UNK N   1      34.465  12.400  12.864  0.00  0.00    -0.391 N 
HETATM    5  C   UNK N   1      35.191  13.650  12.775  0.00  0.00     0.186 A 
HETATM    6  C   UNK N   1      36.159  13.965  13.870  0.00  0.00     0.112 A 
HETATM    7  S   UNK N   1      36.087  12.579  15.012  0.00  0.00    -0.136 SA
HETATM    8  H   UNK N   1      33.781  12.085  12.174  0.00  0.00     0.155 HD
ENDROOT
BRANCH   5   9
HETATM    9  C   UNK N   1      34.918  14.528  11.598  0.00  0.00     0.164 C 
HETATM   10  O   UNK N   1      35.835  14.918  10.893  0.00  0.00    -0.648 OA
BRANCH   9  11
HETATM   11  O   UNK N   1      33.653  14.893  11.314  0.00  0.00    -0.775 OA
HETATM   12  H   UNK N   1      33.127  14.360  10.751  0.00  0.00     0.167 HD
ENDBRANCH   9  11
ENDBRANCH   5   9
TORSDOF 2
ENDMDL
