MODEL 1
REMARK VINA RESULT:      -7.9      0.000      0.000
REMARK  16 active torsions:
REMARK  status: ('A' for Active; 'I' for Inactive)
REMARK    1  A    between atoms: C_6  and  C_4 
REMARK    2  A    between atoms: O_30  and  C_4 
REMARK    3  A    between atoms: C_5  and  O_18 
REMARK    4  A    between atoms: O_19  and  C_7 
REMARK    5  A    between atoms: C_8  and  O_20 
REMARK    6  A    between atoms: C_9  and  O_21 
REMARK    7  A    between atoms: C_10  and  O_22 
REMARK    8  A    between atoms: C_11  and  O_23 
REMARK    9  A    between atoms: C_12  and  N_17 
REMARK   10  A    between atoms: C_13  and  O_32 
REMARK   11  A    between atoms: P_34  and  O_25 
REMARK   12  A    between atoms: P_35  and  O_27 
REMARK   13  A    between atoms: P_34  and  O_30 
REMARK   14  A    between atoms: P_35  and  O_32 
REMARK   15  A    between atoms: P_34  and  O_33 
REMARK   16  A    between atoms: P_35  and  O_33 
ROOT
HETATM    1  O   UNK N   1      28.506  17.203   4.044  0.00  0.00    -0.631 OA
HETATM    2  P   UNK N   1      27.472  18.294   4.427  0.00  0.00     0.401 P 
ENDROOT
BRANCH   2   3
HETATM    3  O   UNK N   1      28.208  19.841   4.123  0.00  0.00    -0.307 OA
HETATM    4  H   UNK N   1      28.530  20.230   3.296  0.00  0.00     0.222 HD
ENDBRANCH   2   3
BRANCH   2   5
HETATM    5  O   UNK N   1      27.153  18.050   6.116  0.00  0.00    -0.294 OA
BRANCH   5   6
HETATM    6  C   UNK N   1      27.898  16.926   6.479  0.00  0.00     0.215 C 
BRANCH   6   7
HETATM    7  C   UNK N   1      28.877  17.202   7.626  0.00  0.00     0.180 C 
HETATM    8  C   UNK N   1      28.835  18.591   8.263  0.00  0.00     0.182 C 
HETATM    9  C   UNK N   1      30.068  18.480   9.115  0.00  0.00     0.198 C 
HETATM   10  C   UNK N   1      31.013  17.847   8.057  0.00  0.00     0.263 C 
HETATM   11  O   UNK N   1      30.209  17.009   7.230  0.00  0.00    -0.353 OA
BRANCH   8  12
HETATM   12  O   UNK N   1      27.674  18.815   9.008  0.00  0.00    -0.390 OA
HETATM   13  H   UNK N   1      26.939  18.208   9.187  0.00  0.00     0.210 HD
ENDBRANCH   8  12
BRANCH   9  14
HETATM   14  O   UNK N   1      29.772  17.595  10.162  0.00  0.00    -0.388 OA
HETATM   15  H   UNK N   1      29.610  16.722  10.554  0.00  0.00     0.210 HD
ENDBRANCH   9  14
BRANCH  10  16
HETATM   16  N   UNK N   1      32.180  17.057   8.521  0.00  0.00    -0.280 N 
HETATM   17  C   UNK N   1      31.903  15.757   8.838  0.00  0.00     0.103 A 
HETATM   18  C   UNK N   1      32.860  14.927   9.404  0.00  0.00     0.073 A 
HETATM   19  C   UNK N   1      34.124  15.436   9.642  0.00  0.00     0.144 A 
HETATM   20  N   UNK N   1      34.422  16.706   9.275  0.00  0.00    -0.289 N 
HETATM   21  C   UNK N   1      33.478  17.523   8.709  0.00  0.00     0.330 A 
ATOM     22  HN  UNK N   1      35.366  17.062   9.425  1.00  0.00     0.172 HD
HETATM   23  O   UNK N   1      33.807  18.644   8.371  0.00  0.00    -0.246 OA
BRANCH  19  24
HETATM   24  O   UNK N   1      35.054  14.671  10.234  0.00  0.00    -0.346 OA
HETATM   25  H   UNK N   1      35.091  14.561  11.164  0.00  0.00     0.219 HD
ENDBRANCH  19  24
ENDBRANCH  10  16
ENDBRANCH   6   7
ENDBRANCH   5   6
ENDBRANCH   2   5
BRANCH   2  26
HETATM   26  O   UNK N   1      26.073  18.055   3.428  0.00  0.00    -0.195 OA
BRANCH  26  27
HETATM   27  P   UNK N   1      24.836  19.034   4.170  0.00  0.00     0.404 P 
HETATM   28  O   UNK N   1      25.492  20.338   4.695  0.00  0.00    -0.631 OA
BRANCH  27  29
HETATM   29  O   UNK N   1      24.207  18.262   5.592  0.00  0.00    -0.307 OA
HETATM   30  H   UNK N   1      24.238  18.192   6.559  0.00  0.00     0.222 HD
ENDBRANCH  27  29
BRANCH  27  31
HETATM   31  O   UNK N   1      23.511  19.464   3.096  0.00  0.00    -0.263 OA
BRANCH  31  32
HETATM   32  C   UNK N   1      22.201  19.570   3.661  0.00  0.00     0.302 C 
HETATM   33  C   UNK N   1      21.357  20.571   2.854  0.00  0.00     0.205 C 
HETATM   34  C   UNK N   1      20.973  19.927   1.527  0.00  0.00     0.182 C 
HETATM   35  C   UNK N   1      20.188  18.645   1.820  0.00  0.00     0.173 C 
HETATM   36  C   UNK N   1      21.023  17.736   2.719  0.00  0.00     0.205 C 
HETATM   37  O   UNK N   1      21.495  18.353   3.908  0.00  0.00    -0.355 OA
BRANCH  33  38
HETATM   38  O   UNK N   1      22.079  21.749   2.641  0.00  0.00    -0.388 OA
HETATM   39  H   UNK N   1      21.981  22.542   3.189  0.00  0.00     0.210 HD
ENDBRANCH  33  38
BRANCH  34  40
HETATM   40  O   UNK N   1      20.201  20.802   0.759  0.00  0.00    -0.390 OA
HETATM   41  H   UNK N   1      19.236  20.812   0.851  0.00  0.00     0.210 HD
ENDBRANCH  34  40
BRANCH  35  42
HETATM   42  O   UNK N   1      18.975  18.936   2.451  0.00  0.00    -0.391 OA
HETATM   43  H   UNK N   1      18.231  19.423   2.837  0.00  0.00     0.210 HD
ENDBRANCH  35  42
ENDBRANCH  31  32
ENDBRANCH  27  31
ENDBRANCH  26  27
ENDBRANCH   2  26
TORSDOF 16
ENDMDL
MODEL 2
REMARK VINA RESULT:      -7.7      4.980      8.432
REMARK  16 active torsions:
REMARK  status: ('A' for Active; 'I' for Inactive)
REMARK    1  A    between atoms: C_6  and  C_4 
REMARK    2  A    between atoms: O_30  and  C_4 
REMARK    3  A    between atoms: C_5  and  O_18 
REMARK    4  A    between atoms: O_19  and  C_7 
REMARK    5  A    between atoms: C_8  and  O_20 
REMARK    6  A    between atoms: C_9  and  O_21 
REMARK    7  A    between atoms: C_10  and  O_22 
REMARK    8  A    between atoms: C_11  and  O_23 
REMARK    9  A    between atoms: C_12  and  N_17 
REMARK   10  A    between atoms: C_13  and  O_32 
REMARK   11  A    between atoms: P_34  and  O_25 
REMARK   12  A    between atoms: P_35  and  O_27 
REMARK   13  A    between atoms: P_34  and  O_30 
REMARK   14  A    between atoms: P_35  and  O_32 
REMARK   15  A    between atoms: P_34  and  O_33 
REMARK   16  A    between atoms: P_35  and  O_33 
ROOT
HETATM    1  O   UNK N   1      34.896  19.265   8.399  0.00  0.00    -0.631 OA
HETATM    2  P   UNK N   1      34.332  17.835   8.187  0.00  0.00     0.401 P 
ENDROOT
BRANCH   2   3
HETATM    3  O   UNK N   1      32.751  17.787   8.912  0.00  0.00    -0.307 OA
HETATM    4  H   UNK N   1      32.039  18.444   8.907  0.00  0.00     0.222 HD
ENDBRANCH   2   3
BRANCH   2   5
HETATM    5  O   UNK N   1      35.447  16.778   8.996  0.00  0.00    -0.294 OA
BRANCH   5   6
HETATM    6  C   UNK N   1      34.818  16.411  10.188  0.00  0.00     0.215 C 
BRANCH   6   7
HETATM    7  C   UNK N   1      35.511  15.241  10.894  0.00  0.00     0.180 C 
HETATM    8  C   UNK N   1      35.946  14.060  10.027  0.00  0.00     0.182 C 
HETATM    9  C   UNK N   1      36.326  13.107  11.126  0.00  0.00     0.198 C 
HETATM   10  C   UNK N   1      35.093  13.327  12.046  0.00  0.00     0.263 C 
HETATM   11  O   UNK N   1      34.706  14.692  11.904  0.00  0.00    -0.353 OA
BRANCH   8  12
HETATM   12  O   UNK N   1      37.013  14.367   9.179  0.00  0.00    -0.390 OA
HETATM   13  H   UNK N   1      37.022  14.939   8.395  0.00  0.00     0.210 HD
ENDBRANCH   8  12
BRANCH   9  14
HETATM   14  O   UNK N   1      37.512  13.588  11.702  0.00  0.00    -0.388 OA
HETATM   15  H   UNK N   1      38.247  14.213  11.804  0.00  0.00     0.210 HD
ENDBRANCH   9  14
BRANCH  10  16
HETATM   16  N   UNK N   1      35.219  13.032  13.494  0.00  0.00    -0.280 N 
HETATM   17  C   UNK N   1      34.518  11.938  13.920  0.00  0.00     0.103 A 
HETATM   18  C   UNK N   1      34.434  11.607  15.264  0.00  0.00     0.073 A 
HETATM   19  C   UNK N   1      35.085  12.405  16.188  0.00  0.00     0.144 A 
HETATM   20  N   UNK N   1      35.829  13.457  15.768  0.00  0.00    -0.289 N 
HETATM   21  C   UNK N   1      35.918  13.778  14.439  0.00  0.00     0.330 A 
ATOM     22  HN  UNK N   1      36.331  14.020  16.454  1.00  0.00     0.172 HD
HETATM   23  O   UNK N   1      36.624  14.714  14.113  0.00  0.00    -0.246 OA
BRANCH  19  24
HETATM   24  O   UNK N   1      34.978  12.137  17.499  0.00  0.00    -0.346 OA
HETATM   25  H   UNK N   1      34.195  12.314  17.982  0.00  0.00     0.219 HD
ENDBRANCH  19  24
ENDBRANCH  10  16
ENDBRANCH   6   7
ENDBRANCH   5   6
ENDBRANCH   2   5
BRANCH   2  26
HETATM   26  O   UNK N   1      34.250  17.560   6.476  0.00  0.00    -0.195 OA
BRANCH  26  27
HETATM   27  P   UNK N   1      32.783  16.644   6.252  0.00  0.00     0.404 P 
HETATM   28  O   UNK N   1      32.851  15.383   7.153  0.00  0.00    -0.631 OA
BRANCH  27  29
HETATM   29  O   UNK N   1      32.686  16.018   4.636  0.00  0.00    -0.307 OA
HETATM   30  H   UNK N   1      32.140  15.894   3.845  0.00  0.00     0.222 HD
ENDBRANCH  27  29
BRANCH  27  31
HETATM   31  O   UNK N   1      31.311  17.528   6.633  0.00  0.00    -0.263 OA
BRANCH  31  32
HETATM   32  C   UNK N   1      30.065  16.835   6.513  0.00  0.00     0.302 C 
HETATM   33  C   UNK N   1      29.162  17.158   7.715  0.00  0.00     0.205 C 
HETATM   34  C   UNK N   1      28.638  18.582   7.562  0.00  0.00     0.182 C 
HETATM   35  C   UNK N   1      27.865  18.673   6.243  0.00  0.00     0.173 C 
HETATM   36  C   UNK N   1      28.769  18.232   5.095  0.00  0.00     0.205 C 
HETATM   37  O   UNK N   1      29.367  16.956   5.273  0.00  0.00    -0.355 OA
BRANCH  33  38
HETATM   38  O   UNK N   1      29.880  17.023   8.907  0.00  0.00    -0.388 OA
HETATM   39  H   UNK N   1      30.682  17.529   9.108  0.00  0.00     0.210 HD
ENDBRANCH  33  38
BRANCH  34  40
HETATM   40  O   UNK N   1      27.809  18.920   8.634  0.00  0.00    -0.390 OA
HETATM   41  H   UNK N   1      27.492  18.235   9.243  0.00  0.00     0.210 HD
ENDBRANCH  34  40
BRANCH  35  42
HETATM   42  O   UNK N   1      26.726  17.864   6.276  0.00  0.00    -0.391 OA
HETATM   43  H   UNK N   1      26.116  17.139   6.482  0.00  0.00     0.210 HD
ENDBRANCH  35  42
ENDBRANCH  31  32
ENDBRANCH  27  31
ENDBRANCH  26  27
ENDBRANCH   2  26
TORSDOF 16
ENDMDL
MODEL 3
REMARK VINA RESULT:      -7.7      5.519      7.273
REMARK  16 active torsions:
REMARK  status: ('A' for Active; 'I' for Inactive)
REMARK    1  A    between atoms: C_6  and  C_4 
REMARK    2  A    between atoms: O_30  and  C_4 
REMARK    3  A    between atoms: C_5  and  O_18 
REMARK    4  A    between atoms: O_19  and  C_7 
REMARK    5  A    between atoms: C_8  and  O_20 
REMARK    6  A    between atoms: C_9  and  O_21 
REMARK    7  A    between atoms: C_10  and  O_22 
REMARK    8  A    between atoms: C_11  and  O_23 
REMARK    9  A    between atoms: C_12  and  N_17 
REMARK   10  A    between atoms: C_13  and  O_32 
REMARK   11  A    between atoms: P_34  and  O_25 
REMARK   12  A    between atoms: P_35  and  O_27 
REMARK   13  A    between atoms: P_34  and  O_30 
REMARK   14  A    between atoms: P_35  and  O_32 
REMARK   15  A    between atoms: P_34  and  O_33 
REMARK   16  A    between atoms: P_35  and  O_33 
ROOT
HETATM    1  O   UNK N   1      27.170  15.562   4.085  0.00  0.00    -0.631 OA
HETATM    2  P   UNK N   1      25.898  16.257   4.637  0.00  0.00     0.401 P 
ENDROOT
BRANCH   2   3
HETATM    3  O   UNK N   1      26.276  16.848   6.229  0.00  0.00    -0.307 OA
HETATM    4  H   UNK N   1      27.057  16.699   6.784  0.00  0.00     0.222 HD
ENDBRANCH   2   3
BRANCH   2   5
HETATM    5  O   UNK N   1      24.681  15.019   4.678  0.00  0.00    -0.294 OA
BRANCH   5   6
HETATM    6  C   UNK N   1      25.082  14.134   5.682  0.00  0.00     0.215 C 
BRANCH   6   7
HETATM    7  C   UNK N   1      23.901  13.504   6.428  0.00  0.00     0.180 C 
HETATM    8  C   UNK N   1      22.506  13.726   5.845  0.00  0.00     0.182 C 
HETATM    9  C   UNK N   1      21.699  13.170   6.985  0.00  0.00     0.198 C 
HETATM   10  C   UNK N   1      22.462  13.856   8.152  0.00  0.00     0.263 C 
HETATM   11  O   UNK N   1      23.829  13.948   7.758  0.00  0.00    -0.353 OA
BRANCH   8  12
HETATM   12  O   UNK N   1      22.299  13.040   4.645  0.00  0.00    -0.390 OA
HETATM   13  H   UNK N   1      21.912  13.365   3.817  0.00  0.00     0.210 HD
ENDBRANCH   8  12
BRANCH   9  14
HETATM   14  O   UNK N   1      21.874  11.778   6.979  0.00  0.00    -0.388 OA
HETATM   15  H   UNK N   1      22.175  10.933   6.608  0.00  0.00     0.210 HD
ENDBRANCH   9  14
BRANCH  10  16
HETATM   16  N   UNK N   1      22.410  13.241   9.501  0.00  0.00    -0.280 N 
HETATM   17  C   UNK N   1      23.624  12.874  10.011  0.00  0.00     0.103 A 
HETATM   18  C   UNK N   1      23.729  12.175  11.205  0.00  0.00     0.073 A 
HETATM   19  C   UNK N   1      22.572  11.851  11.890  0.00  0.00     0.144 A 
HETATM   20  N   UNK N   1      21.369  12.262  11.419  0.00  0.00    -0.289 N 
HETATM   21  C   UNK N   1      21.267  12.961  10.244  0.00  0.00     0.330 A 
ATOM     22  HN  UNK N   1      20.525  12.048  11.949  1.00  0.00     0.172 HD
HETATM   23  O   UNK N   1      20.167  13.332   9.883  0.00  0.00    -0.246 OA
BRANCH  19  24
HETATM   24  O   UNK N   1      22.642  11.131  13.020  0.00  0.00    -0.346 OA
HETATM   25  H   UNK N   1      22.054  11.270  13.737  0.00  0.00     0.219 HD
ENDBRANCH  19  24
ENDBRANCH  10  16
ENDBRANCH   6   7
ENDBRANCH   5   6
ENDBRANCH   2   5
BRANCH   2  26
HETATM   26  O   UNK N   1      25.510  17.559   3.558  0.00  0.00    -0.195 OA
BRANCH  26  27
HETATM   27  P   UNK N   1      24.353  18.523   4.436  0.00  0.00     0.404 P 
HETATM   28  O   UNK N   1      25.129  19.554   5.297  0.00  0.00    -0.631 OA
BRANCH  27  29
HETATM   29  O   UNK N   1      23.493  17.554   5.592  0.00  0.00    -0.307 OA
HETATM   30  H   UNK N   1      23.205  16.665   5.852  0.00  0.00     0.222 HD
ENDBRANCH  27  29
BRANCH  27  31
HETATM   31  O   UNK N   1      23.208  19.387   3.420  0.00  0.00    -0.263 OA
BRANCH  31  32
HETATM   32  C   UNK N   1      21.842  19.436   3.843  0.00  0.00     0.302 C 
HETATM   33  C   UNK N   1      21.054  20.431   2.976  0.00  0.00     0.205 C 
HETATM   34  C   UNK N   1      20.836  19.812   1.599  0.00  0.00     0.182 C 
HETATM   35  C   UNK N   1      20.070  18.498   1.776  0.00  0.00     0.173 C 
HETATM   36  C   UNK N   1      20.835  17.591   2.736  0.00  0.00     0.205 C 
HETATM   37  O   UNK N   1      21.157  18.190   3.984  0.00  0.00    -0.355 OA
BRANCH  33  38
HETATM   38  O   UNK N   1      21.754  21.637   2.869  0.00  0.00    -0.388 OA
HETATM   39  H   UNK N   1      21.978  22.193   3.631  0.00  0.00     0.210 HD
ENDBRANCH  33  38
BRANCH  34  40
HETATM   40  O   UNK N   1      20.120  20.683   0.775  0.00  0.00    -0.390 OA
HETATM   41  H   UNK N   1      20.018  20.490  -0.170  0.00  0.00     0.210 HD
ENDBRANCH  34  40
BRANCH  35  42
HETATM   42  O   UNK N   1      18.787  18.733   2.280  0.00  0.00    -0.391 OA
HETATM   43  H   UNK N   1      17.871  18.599   2.568  0.00  0.00     0.210 HD
ENDBRANCH  35  42
ENDBRANCH  31  32
ENDBRANCH  27  31
ENDBRANCH  26  27
ENDBRANCH   2  26
TORSDOF 16
ENDMDL
MODEL 4
REMARK VINA RESULT:      -7.6      3.828     11.542
REMARK  16 active torsions:
REMARK  status: ('A' for Active; 'I' for Inactive)
REMARK    1  A    between atoms: C_6  and  C_4 
REMARK    2  A    between atoms: O_30  and  C_4 
REMARK    3  A    between atoms: C_5  and  O_18 
REMARK    4  A    between atoms: O_19  and  C_7 
REMARK    5  A    between atoms: C_8  and  O_20 
REMARK    6  A    between atoms: C_9  and  O_21 
REMARK    7  A    between atoms: C_10  and  O_22 
REMARK    8  A    between atoms: C_11  and  O_23 
REMARK    9  A    between atoms: C_12  and  N_17 
REMARK   10  A    between atoms: C_13  and  O_32 
REMARK   11  A    between atoms: P_34  and  O_25 
REMARK   12  A    between atoms: P_35  and  O_27 
REMARK   13  A    between atoms: P_34  and  O_30 
REMARK   14  A    between atoms: P_35  and  O_32 
REMARK   15  A    between atoms: P_34  and  O_33 
REMARK   16  A    between atoms: P_35  and  O_33 
ROOT
HETATM    1  O   UNK N   1      33.601  15.663   4.829  0.00  0.00    -0.631 OA
HETATM    2  P   UNK N   1      33.064  16.664   5.886  0.00  0.00     0.401 P 
ENDROOT
BRANCH   2   3
HETATM    3  O   UNK N   1      32.495  15.734   7.242  0.00  0.00    -0.307 OA
HETATM    4  H   UNK N   1      32.563  14.785   7.423  0.00  0.00     0.222 HD
ENDBRANCH   2   3
BRANCH   2   5
HETATM    5  O   UNK N   1      31.773  17.515   5.097  0.00  0.00    -0.294 OA
BRANCH   5   6
HETATM    6  C   UNK N   1      30.681  16.644   5.121  0.00  0.00     0.215 C 
BRANCH   6   7
HETATM    7  C   UNK N   1      29.380  17.329   5.553  0.00  0.00     0.180 C 
HETATM    8  C   UNK N   1      28.720  16.830   6.839  0.00  0.00     0.182 C 
HETATM    9  C   UNK N   1      27.423  17.580   6.727  0.00  0.00     0.198 C 
HETATM   10  C   UNK N   1      27.131  17.296   5.227  0.00  0.00     0.263 C 
HETATM   11  O   UNK N   1      28.391  17.238   4.562  0.00  0.00    -0.353 OA
BRANCH   8  12
HETATM   12  O   UNK N   1      29.444  17.160   7.988  0.00  0.00    -0.390 OA
HETATM   13  H   UNK N   1      29.310  17.901   8.600  0.00  0.00     0.210 HD
ENDBRANCH   8  12
BRANCH   9  14
HETATM   14  O   UNK N   1      27.702  18.934   6.967  0.00  0.00    -0.388 OA
HETATM   15  H   UNK N   1      27.519  19.887   6.936  0.00  0.00     0.210 HD
ENDBRANCH   9  14
BRANCH  10  16
HETATM   16  N   UNK N   1      26.255  18.230   4.478  0.00  0.00    -0.280 N 
HETATM   17  C   UNK N   1      26.917  19.198   3.776  0.00  0.00     0.103 A 
HETATM   18  C   UNK N   1      26.236  20.219   3.128  0.00  0.00     0.073 A 
HETATM   19  C   UNK N   1      24.855  20.244   3.195  0.00  0.00     0.144 A 
HETATM   20  N   UNK N   1      24.191  19.255   3.840  0.00  0.00    -0.289 N 
HETATM   21  C   UNK N   1      24.863  18.242   4.472  0.00  0.00     0.330 A 
ATOM     22  HN  UNK N   1      23.171  19.264   3.855  1.00  0.00     0.172 HD
HETATM   23  O   UNK N   1      24.217  17.362   5.010  0.00  0.00    -0.246 OA
BRANCH  19  24
HETATM   24  O   UNK N   1      24.175  21.249   2.620  0.00  0.00    -0.346 OA
HETATM   25  H   UNK N   1      23.417  21.098   2.091  0.00  0.00     0.219 HD
ENDBRANCH  19  24
ENDBRANCH  10  16
ENDBRANCH   6   7
ENDBRANCH   5   6
ENDBRANCH   2   5
BRANCH   2  26
HETATM   26  O   UNK N   1      34.384  17.696   6.338  0.00  0.00    -0.195 OA
BRANCH  26  27
HETATM   27  P   UNK N   1      34.284  17.793   8.076  0.00  0.00     0.404 P 
HETATM   28  O   UNK N   1      32.844  18.226   8.460  0.00  0.00    -0.631 OA
BRANCH  27  29
HETATM   29  O   UNK N   1      35.296  19.067   8.682  0.00  0.00    -0.307 OA
HETATM   30  H   UNK N   1      36.053  19.308   9.238  0.00  0.00     0.222 HD
ENDBRANCH  27  29
BRANCH  27  31
HETATM   31  O   UNK N   1      34.661  16.292   8.910  0.00  0.00    -0.263 OA
BRANCH  31  32
HETATM   32  C   UNK N   1      35.046  16.370  10.285  0.00  0.00     0.302 C 
HETATM   33  C   UNK N   1      34.350  15.262  11.094  0.00  0.00     0.205 C 
HETATM   34  C   UNK N   1      35.005  13.927  10.757  0.00  0.00     0.182 C 
HETATM   35  C   UNK N   1      36.493  14.018  11.103  0.00  0.00     0.173 C 
HETATM   36  C   UNK N   1      37.113  15.203  10.366  0.00  0.00     0.205 C 
HETATM   37  O   UNK N   1      36.445  16.439  10.569  0.00  0.00    -0.355 OA
BRANCH  33  38
HETATM   38  O   UNK N   1      32.985  15.232  10.793  0.00  0.00    -0.388 OA
HETATM   39  H   UNK N   1      32.321  14.819  11.365  0.00  0.00     0.210 HD
ENDBRANCH  33  38
BRANCH  34  40
HETATM   40  O   UNK N   1      34.404  12.889  11.472  0.00  0.00    -0.390 OA
HETATM   41  H   UNK N   1      34.184  12.054  11.030  0.00  0.00     0.210 HD
ENDBRANCH  34  40
BRANCH  35  42
HETATM   42  O   UNK N   1      36.676  14.179  12.480  0.00  0.00    -0.391 OA
HETATM   43  H   UNK N   1      36.530  14.426  13.407  0.00  0.00     0.210 HD
ENDBRANCH  35  42
ENDBRANCH  31  32
ENDBRANCH  27  31
ENDBRANCH  26  27
ENDBRANCH   2  26
TORSDOF 16
ENDMDL
MODEL 5
REMARK VINA RESULT:      -7.6      6.586     10.533
REMARK  16 active torsions:
REMARK  status: ('A' for Active; 'I' for Inactive)
REMARK    1  A    between atoms: C_6  and  C_4 
REMARK    2  A    between atoms: O_30  and  C_4 
REMARK    3  A    between atoms: C_5  and  O_18 
REMARK    4  A    between atoms: O_19  and  C_7 
REMARK    5  A    between atoms: C_8  and  O_20 
REMARK    6  A    between atoms: C_9  and  O_21 
REMARK    7  A    between atoms: C_10  and  O_22 
REMARK    8  A    between atoms: C_11  and  O_23 
REMARK    9  A    between atoms: C_12  and  N_17 
REMARK   10  A    between atoms: C_13  and  O_32 
REMARK   11  A    between atoms: P_34  and  O_25 
REMARK   12  A    between atoms: P_35  and  O_27 
REMARK   13  A    between atoms: P_34  and  O_30 
REMARK   14  A    between atoms: P_35  and  O_32 
REMARK   15  A    between atoms: P_34  and  O_33 
REMARK   16  A    between atoms: P_35  and  O_33 
ROOT
HETATM    1  O   UNK N   1      37.430  14.816   9.875  0.00  0.00    -0.631 OA
HETATM    2  P   UNK N   1      35.929  15.205   9.846  0.00  0.00     0.401 P 
ENDROOT
BRANCH   2   3
HETATM    3  O   UNK N   1      35.805  16.845  10.414  0.00  0.00    -0.307 OA
HETATM    4  H   UNK N   1      35.206  17.239  11.067  0.00  0.00     0.222 HD
ENDBRANCH   2   3
BRANCH   2   5
HETATM    5  O   UNK N   1      35.145  14.088  10.919  0.00  0.00    -0.294 OA
BRANCH   5   6
HETATM    6  C   UNK N   1      35.160  14.701  12.174  0.00  0.00     0.215 C 
BRANCH   6   7
HETATM    7  C   UNK N   1      35.823  13.838  13.252  0.00  0.00     0.180 C 
HETATM    8  C   UNK N   1      36.533  12.565  12.791  0.00  0.00     0.182 C 
HETATM    9  C   UNK N   1      36.792  11.955  14.141  0.00  0.00     0.198 C 
HETATM   10  C   UNK N   1      35.391  12.199  14.767  0.00  0.00     0.263 C 
HETATM   11  O   UNK N   1      34.901  13.423  14.226  0.00  0.00    -0.353 OA
BRANCH   8  12
HETATM   12  O   UNK N   1      37.704  12.821  12.074  0.00  0.00    -0.390 OA
HETATM   13  H   UNK N   1      38.334  12.191  11.692  0.00  0.00     0.210 HD
ENDBRANCH   8  12
BRANCH   9  14
HETATM   14  O   UNK N   1      37.792  12.721  14.758  0.00  0.00    -0.388 OA
HETATM   15  H   UNK N   1      38.184  13.230  15.486  0.00  0.00     0.210 HD
ENDBRANCH   9  14
BRANCH  10  16
HETATM   16  N   UNK N   1      35.269  12.264  16.244  0.00  0.00    -0.280 N 
HETATM   17  C   UNK N   1      35.163  13.527  16.756  0.00  0.00     0.103 A 
HETATM   18  C   UNK N   1      35.167  13.760  18.123  0.00  0.00     0.073 A 
HETATM   19  C   UNK N   1      35.274  12.680  18.981  0.00  0.00     0.144 A 
HETATM   20  N   UNK N   1      35.320  11.421  18.482  0.00  0.00    -0.289 N 
HETATM   21  C   UNK N   1      35.307  11.192  17.131  0.00  0.00     0.330 A 
ATOM     22  HN  UNK N   1      35.365  10.630  19.123  1.00  0.00     0.172 HD
HETATM   23  O   UNK N   1      35.320  10.041  16.736  0.00  0.00    -0.246 OA
BRANCH  19  24
HETATM   24  O   UNK N   1      35.331  12.881  20.307  0.00  0.00    -0.346 OA
HETATM   25  H   UNK N   1      34.732  13.448  20.752  0.00  0.00     0.219 HD
ENDBRANCH  19  24
ENDBRANCH  10  16
ENDBRANCH   6   7
ENDBRANCH   5   6
ENDBRANCH   2   5
BRANCH   2  26
HETATM   26  O   UNK N   1      35.390  15.065   8.203  0.00  0.00    -0.195 OA
BRANCH  26  27
HETATM   27  P   UNK N   1      34.038  16.160   8.093  0.00  0.00     0.404 P 
HETATM   28  O   UNK N   1      34.588  17.607   7.986  0.00  0.00    -0.631 OA
BRANCH  27  29
HETATM   29  O   UNK N   1      33.117  16.153   9.564  0.00  0.00    -0.307 OA
HETATM   30  H   UNK N   1      32.581  16.666  10.189  0.00  0.00     0.222 HD
ENDBRANCH  27  29
BRANCH  27  31
HETATM   31  O   UNK N   1      32.972  15.861   6.726  0.00  0.00    -0.263 OA
BRANCH  31  32
HETATM   32  C   UNK N   1      31.931  16.809   6.471  0.00  0.00     0.302 C 
HETATM   33  C   UNK N   1      32.206  17.556   5.156  0.00  0.00     0.205 C 
HETATM   34  C   UNK N   1      31.933  16.610   3.992  0.00  0.00     0.182 C 
HETATM   35  C   UNK N   1      30.475  16.148   4.076  0.00  0.00     0.173 C 
HETATM   36  C   UNK N   1      30.222  15.518   5.444  0.00  0.00     0.205 C 
HETATM   37  O   UNK N   1      30.585  16.337   6.546  0.00  0.00    -0.355 OA
BRANCH  33  38
HETATM   38  O   UNK N   1      33.529  18.007   5.125  0.00  0.00    -0.388 OA
HETATM   39  H   UNK N   1      34.293  17.414   5.056  0.00  0.00     0.210 HD
ENDBRANCH  33  38
BRANCH  34  40
HETATM   40  O   UNK N   1      32.168  17.249   2.772  0.00  0.00    -0.390 OA
HETATM   41  H   UNK N   1      32.891  17.889   2.686  0.00  0.00     0.210 HD
ENDBRANCH  34  40
BRANCH  35  42
HETATM   42  O   UNK N   1      29.600  17.222   3.890  0.00  0.00    -0.391 OA
HETATM   43  H   UNK N   1      28.795  17.762   3.868  0.00  0.00     0.210 HD
ENDBRANCH  35  42
ENDBRANCH  31  32
ENDBRANCH  27  31
ENDBRANCH  26  27
ENDBRANCH   2  26
TORSDOF 16
ENDMDL
MODEL 6
REMARK VINA RESULT:      -7.5      5.817      8.547
REMARK  16 active torsions:
REMARK  status: ('A' for Active; 'I' for Inactive)
REMARK    1  A    between atoms: C_6  and  C_4 
REMARK    2  A    between atoms: O_30  and  C_4 
REMARK    3  A    between atoms: C_5  and  O_18 
REMARK    4  A    between atoms: O_19  and  C_7 
REMARK    5  A    between atoms: C_8  and  O_20 
REMARK    6  A    between atoms: C_9  and  O_21 
REMARK    7  A    between atoms: C_10  and  O_22 
REMARK    8  A    between atoms: C_11  and  O_23 
REMARK    9  A    between atoms: C_12  and  N_17 
REMARK   10  A    between atoms: C_13  and  O_32 
REMARK   11  A    between atoms: P_34  and  O_25 
REMARK   12  A    between atoms: P_35  and  O_27 
REMARK   13  A    between atoms: P_34  and  O_30 
REMARK   14  A    between atoms: P_35  and  O_32 
REMARK   15  A    between atoms: P_34  and  O_33 
REMARK   16  A    between atoms: P_35  and  O_33 
ROOT
HETATM    1  O   UNK N   1      33.587  13.517   5.149  0.00  0.00    -0.631 OA
HETATM    2  P   UNK N   1      34.280  14.413   6.209  0.00  0.00     0.401 P 
ENDROOT
BRANCH   2   3
HETATM    3  O   UNK N   1      35.285  15.548   5.355  0.00  0.00    -0.307 OA
HETATM    4  H   UNK N   1      36.038  16.073   5.663  0.00  0.00     0.222 HD
ENDBRANCH   2   3
BRANCH   2   5
HETATM    5  O   UNK N   1      35.217  13.325   7.185  0.00  0.00    -0.294 OA
BRANCH   5   6
HETATM    6  C   UNK N   1      36.002  14.140   8.005  0.00  0.00     0.215 C 
BRANCH   6   7
HETATM    7  C   UNK N   1      35.394  14.349   9.396  0.00  0.00     0.180 C 
HETATM    8  C   UNK N   1      35.415  15.769   9.962  0.00  0.00     0.182 C 
HETATM    9  C   UNK N   1      34.969  15.455  11.363  0.00  0.00     0.198 C 
HETATM   10  C   UNK N   1      35.877  14.220  11.613  0.00  0.00     0.263 C 
HETATM   11  O   UNK N   1      36.020  13.548  10.363  0.00  0.00    -0.353 OA
BRANCH   8  12
HETATM   12  O   UNK N   1      34.547  16.637   9.294  0.00  0.00    -0.390 OA
HETATM   13  H   UNK N   1      34.738  17.498   8.891  0.00  0.00     0.210 HD
ENDBRANCH   8  12
BRANCH   9  14
HETATM   14  O   UNK N   1      33.610  15.113  11.300  0.00  0.00    -0.388 OA
HETATM   15  H   UNK N   1      32.660  15.262  11.435  0.00  0.00     0.210 HD
ENDBRANCH   9  14
BRANCH  10  16
HETATM   16  N   UNK N   1      35.464  13.221  12.629  0.00  0.00    -0.280 N 
HETATM   17  C   UNK N   1      34.899  12.085  12.121  0.00  0.00     0.103 A 
HETATM   18  C   UNK N   1      34.349  11.115  12.945  0.00  0.00     0.073 A 
HETATM   19  C   UNK N   1      34.385  11.308  14.315  0.00  0.00     0.144 A 
HETATM   20  N   UNK N   1      34.996  12.404  14.827  0.00  0.00    -0.289 N 
HETATM   21  C   UNK N   1      35.546  13.358  14.012  0.00  0.00     0.330 A 
ATOM     22  HN  UNK N   1      35.046  12.521  15.839  1.00  0.00     0.172 HD
HETATM   23  O   UNK N   1      36.109  14.306  14.525  0.00  0.00    -0.246 OA
BRANCH  19  24
HETATM   24  O   UNK N   1      33.815  10.410  15.134  0.00  0.00    -0.346 OA
HETATM   25  H   UNK N   1      33.385   9.644  14.810  0.00  0.00     0.219 HD
ENDBRANCH  19  24
ENDBRANCH  10  16
ENDBRANCH   6   7
ENDBRANCH   5   6
ENDBRANCH   2   5
BRANCH   2  26
HETATM   26  O   UNK N   1      33.030  15.223   7.099  0.00  0.00    -0.195 OA
BRANCH  26  27
HETATM   27  P   UNK N   1      32.805  16.733   6.258  0.00  0.00     0.404 P 
HETATM   28  O   UNK N   1      32.743  16.440   4.735  0.00  0.00    -0.631 OA
BRANCH  27  29
HETATM   29  O   UNK N   1      34.194  17.757   6.446  0.00  0.00    -0.307 OA
HETATM   30  H   UNK N   1      34.802  18.385   6.026  0.00  0.00     0.222 HD
ENDBRANCH  27  29
BRANCH  27  31
HETATM   31  O   UNK N   1      31.354  17.612   6.721  0.00  0.00    -0.263 OA
BRANCH  31  32
HETATM   32  C   UNK N   1      30.299  16.877   7.347  0.00  0.00     0.302 C 
HETATM   33  C   UNK N   1      30.327  17.103   8.868  0.00  0.00     0.205 C 
HETATM   34  C   UNK N   1      29.820  18.511   9.162  0.00  0.00     0.182 C 
HETATM   35  C   UNK N   1      28.399  18.638   8.606  0.00  0.00     0.173 C 
HETATM   36  C   UNK N   1      28.404  18.291   7.119  0.00  0.00     0.205 C 
HETATM   37  O   UNK N   1      28.985  17.032   6.809  0.00  0.00    -0.355 OA
BRANCH  33  38
HETATM   38  O   UNK N   1      31.627  16.935   9.356  0.00  0.00    -0.388 OA
HETATM   39  H   UNK N   1      32.012  16.070   9.563  0.00  0.00     0.210 HD
ENDBRANCH  33  38
BRANCH  34  40
HETATM   40  O   UNK N   1      29.826  18.761  10.536  0.00  0.00    -0.390 OA
HETATM   41  H   UNK N   1      30.550  19.265  10.938  0.00  0.00     0.210 HD
ENDBRANCH  34  40
BRANCH  35  42
HETATM   42  O   UNK N   1      27.521  17.784   9.280  0.00  0.00    -0.391 OA
HETATM   43  H   UNK N   1      27.163  17.017   9.754  0.00  0.00     0.210 HD
ENDBRANCH  35  42
ENDBRANCH  31  32
ENDBRANCH  27  31
ENDBRANCH  26  27
ENDBRANCH   2  26
TORSDOF 16
ENDMDL
MODEL 7
REMARK VINA RESULT:      -7.4      6.089      8.570
REMARK  16 active torsions:
REMARK  status: ('A' for Active; 'I' for Inactive)
REMARK    1  A    between atoms: C_6  and  C_4 
REMARK    2  A    between atoms: O_30  and  C_4 
REMARK    3  A    between atoms: C_5  and  O_18 
REMARK    4  A    between atoms: O_19  and  C_7 
REMARK    5  A    between atoms: C_8  and  O_20 
REMARK    6  A    between atoms: C_9  and  O_21 
REMARK    7  A    between atoms: C_10  and  O_22 
REMARK    8  A    between atoms: C_11  and  O_23 
REMARK    9  A    between atoms: C_12  and  N_17 
REMARK   10  A    between atoms: C_13  and  O_32 
REMARK   11  A    between atoms: P_34  and  O_25 
REMARK   12  A    between atoms: P_35  and  O_27 
REMARK   13  A    between atoms: P_34  and  O_30 
REMARK   14  A    between atoms: P_35  and  O_32 
REMARK   15  A    between atoms: P_34  and  O_33 
REMARK   16  A    between atoms: P_35  and  O_33 
ROOT
HETATM    1  O   UNK N   1      26.827  15.318   4.058  0.00  0.00    -0.631 OA
HETATM    2  P   UNK N   1      25.543  16.045   4.536  0.00  0.00     0.401 P 
ENDROOT
BRANCH   2   3
HETATM    3  O   UNK N   1      25.826  16.583   6.167  0.00  0.00    -0.307 OA
HETATM    4  H   UNK N   1      26.558  16.392   6.772  0.00  0.00     0.222 HD
ENDBRANCH   2   3
BRANCH   2   5
HETATM    5  O   UNK N   1      24.285  14.852   4.457  0.00  0.00    -0.294 OA
BRANCH   5   6
HETATM    6  C   UNK N   1      24.222  14.290   5.735  0.00  0.00     0.215 C 
BRANCH   6   7
HETATM    7  C   UNK N   1      22.787  14.154   6.257  0.00  0.00     0.180 C 
HETATM    8  C   UNK N   1      21.911  13.073   5.624  0.00  0.00     0.182 C 
HETATM    9  C   UNK N   1      20.598  13.463   6.241  0.00  0.00     0.198 C 
HETATM   10  C   UNK N   1      20.691  14.997   6.010  0.00  0.00     0.263 C 
HETATM   11  O   UNK N   1      22.068  15.351   6.119  0.00  0.00    -0.353 OA
BRANCH   8  12
HETATM   12  O   UNK N   1      22.310  11.777   5.963  0.00  0.00    -0.390 OA
HETATM   13  H   UNK N   1      22.428  11.006   5.387  0.00  0.00     0.210 HD
ENDBRANCH   8  12
BRANCH   9  14
HETATM   14  O   UNK N   1      20.660  13.124   7.601  0.00  0.00    -0.388 OA
HETATM   15  H   UNK N   1      20.765  12.516   8.350  0.00  0.00     0.210 HD
ENDBRANCH   9  14
BRANCH  10  16
HETATM   16  N   UNK N   1      19.910  15.902   6.888  0.00  0.00    -0.280 N 
HETATM   17  C   UNK N   1      20.614  16.438   7.930  0.00  0.00     0.103 A 
HETATM   18  C   UNK N   1      19.995  17.203   8.909  0.00  0.00     0.073 A 
HETATM   19  C   UNK N   1      18.633  17.427   8.814  0.00  0.00     0.144 A 
HETATM   20  N   UNK N   1      17.940  16.947   7.753  0.00  0.00    -0.289 N 
HETATM   21  C   UNK N   1      18.555  16.199   6.782  0.00  0.00     0.330 A 
ATOM     22  HN  UNK N   1      16.943  17.146   7.675  1.00  0.00     0.172 HD
HETATM   23  O   UNK N   1      17.892  15.819   5.836  0.00  0.00    -0.246 OA
BRANCH  19  24
HETATM   24  O   UNK N   1      18.000  18.120   9.774  0.00  0.00    -0.346 OA
HETATM   25  H   UNK N   1      17.280  18.689   9.585  0.00  0.00     0.219 HD
ENDBRANCH  19  24
ENDBRANCH  10  16
ENDBRANCH   6   7
ENDBRANCH   5   6
ENDBRANCH   2   5
BRANCH   2  26
HETATM   26  O   UNK N   1      25.279  17.386   3.467  0.00  0.00    -0.195 OA
BRANCH  26  27
HETATM   27  P   UNK N   1      24.297  18.492   4.389  0.00  0.00     0.404 P 
HETATM   28  O   UNK N   1      25.237  19.441   5.178  0.00  0.00    -0.631 OA
BRANCH  27  29
HETATM   29  O   UNK N   1      23.404  17.648   5.617  0.00  0.00    -0.307 OA
HETATM   30  H   UNK N   1      23.034  16.803   5.915  0.00  0.00     0.222 HD
ENDBRANCH  27  29
BRANCH  27  31
HETATM   31  O   UNK N   1      23.197  19.465   3.422  0.00  0.00    -0.263 OA
BRANCH  31  32
HETATM   32  C   UNK N   1      21.819  19.497   3.806  0.00  0.00     0.302 C 
HETATM   33  C   UNK N   1      21.042  20.472   2.906  0.00  0.00     0.205 C 
HETATM   34  C   UNK N   1      20.873  19.837   1.530  0.00  0.00     0.182 C 
HETATM   35  C   UNK N   1      20.122  18.513   1.698  0.00  0.00     0.173 C 
HETATM   36  C   UNK N   1      20.872  17.627   2.689  0.00  0.00     0.205 C 
HETATM   37  O   UNK N   1      21.149  18.243   3.939  0.00  0.00    -0.355 OA
BRANCH  33  38
HETATM   38  O   UNK N   1      21.727  21.687   2.807  0.00  0.00    -0.388 OA
HETATM   39  H   UNK N   1      21.862  22.286   3.558  0.00  0.00     0.210 HD
ENDBRANCH  33  38
BRANCH  34  40
HETATM   40  O   UNK N   1      20.169  20.688   0.677  0.00  0.00    -0.390 OA
HETATM   41  H   UNK N   1      19.754  20.341  -0.128  0.00  0.00     0.210 HD
ENDBRANCH  34  40
BRANCH  35  42
HETATM   42  O   UNK N   1      18.822  18.733   2.162  0.00  0.00    -0.391 OA
HETATM   43  H   UNK N   1      17.877  18.617   2.347  0.00  0.00     0.210 HD
ENDBRANCH  35  42
ENDBRANCH  31  32
ENDBRANCH  27  31
ENDBRANCH  26  27
ENDBRANCH   2  26
TORSDOF 16
ENDMDL
MODEL 8
REMARK VINA RESULT:      -7.3      8.833     12.786
REMARK  16 active torsions:
REMARK  status: ('A' for Active; 'I' for Inactive)
REMARK    1  A    between atoms: C_6  and  C_4 
REMARK    2  A    between atoms: O_30  and  C_4 
REMARK    3  A    between atoms: C_5  and  O_18 
REMARK    4  A    between atoms: O_19  and  C_7 
REMARK    5  A    between atoms: C_8  and  O_20 
REMARK    6  A    between atoms: C_9  and  O_21 
REMARK    7  A    between atoms: C_10  and  O_22 
REMARK    8  A    between atoms: C_11  and  O_23 
REMARK    9  A    between atoms: C_12  and  N_17 
REMARK   10  A    between atoms: C_13  and  O_32 
REMARK   11  A    between atoms: P_34  and  O_25 
REMARK   12  A    between atoms: P_35  and  O_27 
REMARK   13  A    between atoms: P_34  and  O_30 
REMARK   14  A    between atoms: P_35  and  O_32 
REMARK   15  A    between atoms: P_34  and  O_33 
REMARK   16  A    between atoms: P_35  and  O_33 
ROOT
HETATM    1  O   UNK N   1      37.128  10.217  10.971  0.00  0.00    -0.631 OA
HETATM    2  P   UNK N   1      37.531  11.698  10.747  0.00  0.00     0.401 P 
ENDROOT
BRANCH   2   3
HETATM    3  O   UNK N   1      38.996  11.703   9.808  0.00  0.00    -0.307 OA
HETATM    4  H   UNK N   1      39.209  12.163   8.982  0.00  0.00     0.222 HD
ENDBRANCH   2   3
BRANCH   2   5
HETATM    5  O   UNK N   1      37.778  12.351  12.336  0.00  0.00    -0.294 OA
BRANCH   5   6
HETATM    6  C   UNK N   1      37.381  11.344  13.220  0.00  0.00     0.215 C 
BRANCH   6   7
HETATM    7  C   UNK N   1      36.288  11.800  14.192  0.00  0.00     0.180 C 
HETATM    8  C   UNK N   1      35.461  13.022  13.792  0.00  0.00     0.182 C 
HETATM    9  C   UNK N   1      34.731  13.230  15.089  0.00  0.00     0.198 C 
HETATM   10  C   UNK N   1      35.938  13.058  16.053  0.00  0.00     0.263 C 
HETATM   11  O   UNK N   1      36.809  12.097  15.460  0.00  0.00    -0.353 OA
BRANCH   8  12
HETATM   12  O   UNK N   1      34.603  12.774  12.717  0.00  0.00    -0.390 OA
HETATM   13  H   UNK N   1      34.010  13.389  12.257  0.00  0.00     0.210 HD
ENDBRANCH   8  12
BRANCH   9  14
HETATM   14  O   UNK N   1      33.798  12.190  15.213  0.00  0.00    -0.388 OA
HETATM   15  H   UNK N   1      33.428  11.315  15.014  0.00  0.00     0.210 HD
ENDBRANCH   9  14
BRANCH  10  16
HETATM   16  N   UNK N   1      35.683  12.648  17.455  0.00  0.00    -0.280 N 
HETATM   17  C   UNK N   1      35.737  11.301  17.678  0.00  0.00     0.103 A 
HETATM   18  C   UNK N   1      35.399  10.753  18.906  0.00  0.00     0.073 A 
HETATM   19  C   UNK N   1      35.004  11.600  19.926  0.00  0.00     0.144 A 
HETATM   20  N   UNK N   1      35.004  12.941  19.730  0.00  0.00    -0.289 N 
HETATM   21  C   UNK N   1      35.347  13.482  18.518  0.00  0.00     0.330 A 
ATOM     22  HN  UNK N   1      34.744  13.559  20.498  1.00  0.00     0.172 HD
HETATM   23  O   UNK N   1      35.360  14.693  18.405  0.00  0.00    -0.246 OA
BRANCH  19  24
HETATM   24  O   UNK N   1      34.622  11.093  21.109  0.00  0.00    -0.346 OA
HETATM   25  H   UNK N   1      35.236  10.728  21.715  0.00  0.00     0.219 HD
ENDBRANCH  19  24
ENDBRANCH  10  16
ENDBRANCH   6   7
ENDBRANCH   5   6
ENDBRANCH   2   5
BRANCH   2  26
HETATM   26  O   UNK N   1      36.231  12.464   9.890  0.00  0.00    -0.195 OA
BRANCH  26  27
HETATM   27  P   UNK N   1      36.672  14.150   9.845  0.00  0.00     0.404 P 
HETATM   28  O   UNK N   1      38.162  14.255   9.427  0.00  0.00    -0.631 OA
BRANCH  27  29
HETATM   29  O   UNK N   1      36.619  14.845  11.436  0.00  0.00    -0.307 OA
HETATM   30  H   UNK N   1      36.838  14.741  12.374  0.00  0.00     0.222 HD
ENDBRANCH  27  29
BRANCH  27  31
HETATM   31  O   UNK N   1      35.709  15.123   8.742  0.00  0.00    -0.263 OA
BRANCH  31  32
HETATM   32  C   UNK N   1      34.471  15.654   9.226  0.00  0.00     0.302 C 
HETATM   33  C   UNK N   1      34.620  17.155   9.525  0.00  0.00     0.205 C 
HETATM   34  C   UNK N   1      34.683  17.911   8.202  0.00  0.00     0.182 C 
HETATM   35  C   UNK N   1      33.398  17.623   7.419  0.00  0.00     0.173 C 
HETATM   36  C   UNK N   1      33.236  16.115   7.250  0.00  0.00     0.205 C 
HETATM   37  O   UNK N   1      33.297  15.375   8.462  0.00  0.00    -0.355 OA
BRANCH  33  38
HETATM   38  O   UNK N   1      35.775  17.384  10.278  0.00  0.00    -0.388 OA
HETATM   39  H   UNK N   1      36.626  17.638   9.888  0.00  0.00     0.210 HD
ENDBRANCH  33  38
BRANCH  34  40
HETATM   40  O   UNK N   1      34.816  19.284   8.424  0.00  0.00    -0.390 OA
HETATM   41  H   UNK N   1      34.634  19.658   9.300  0.00  0.00     0.210 HD
ENDBRANCH  34  40
BRANCH  35  42
HETATM   42  O   UNK N   1      32.283  18.139   8.085  0.00  0.00    -0.391 OA
HETATM   43  H   UNK N   1      31.427  18.561   8.260  0.00  0.00     0.210 HD
ENDBRANCH  35  42
ENDBRANCH  31  32
ENDBRANCH  27  31
ENDBRANCH  26  27
ENDBRANCH   2  26
TORSDOF 16
ENDMDL
MODEL 9
REMARK VINA RESULT:      -7.2      3.574     11.842
REMARK  16 active torsions:
REMARK  status: ('A' for Active; 'I' for Inactive)
REMARK    1  A    between atoms: C_6  and  C_4 
REMARK    2  A    between atoms: O_30  and  C_4 
REMARK    3  A    between atoms: C_5  and  O_18 
REMARK    4  A    between atoms: O_19  and  C_7 
REMARK    5  A    between atoms: C_8  and  O_20 
REMARK    6  A    between atoms: C_9  and  O_21 
REMARK    7  A    between atoms: C_10  and  O_22 
REMARK    8  A    between atoms: C_11  and  O_23 
REMARK    9  A    between atoms: C_12  and  N_17 
REMARK   10  A    between atoms: C_13  and  O_32 
REMARK   11  A    between atoms: P_34  and  O_25 
REMARK   12  A    between atoms: P_35  and  O_27 
REMARK   13  A    between atoms: P_34  and  O_30 
REMARK   14  A    between atoms: P_35  and  O_32 
REMARK   15  A    between atoms: P_34  and  O_33 
REMARK   16  A    between atoms: P_35  and  O_33 
ROOT
HETATM    1  O   UNK N   1      31.435  15.880   8.978  0.00  0.00    -0.631 OA
HETATM    2  P   UNK N   1      31.617  17.276   8.327  0.00  0.00     0.401 P 
ENDROOT
BRANCH   2   3
HETATM    3  O   UNK N   1      30.815  18.436   9.347  0.00  0.00    -0.307 OA
HETATM    4  H   UNK N   1      31.182  19.128   9.917  0.00  0.00     0.222 HD
ENDBRANCH   2   3
BRANCH   2   5
HETATM    5  O   UNK N   1      30.863  17.156   6.768  0.00  0.00    -0.294 OA
BRANCH   5   6
HETATM    6  C   UNK N   1      29.488  17.180   7.014  0.00  0.00     0.215 C 
BRANCH   6   7
HETATM    7  C   UNK N   1      28.651  17.120   5.732  0.00  0.00     0.180 C 
HETATM    8  C   UNK N   1      29.391  16.835   4.425  0.00  0.00     0.182 C 
HETATM    9  C   UNK N   1      28.264  17.108   3.469  0.00  0.00     0.198 C 
HETATM   10  C   UNK N   1      27.745  18.426   4.107  0.00  0.00     0.263 C 
HETATM   11  O   UNK N   1      27.947  18.315   5.514  0.00  0.00    -0.353 OA
BRANCH   8  12
HETATM   12  O   UNK N   1      29.871  15.526   4.344  0.00  0.00    -0.390 OA
HETATM   13  H   UNK N   1      30.667  15.196   3.897  0.00  0.00     0.210 HD
ENDBRANCH   8  12
BRANCH   9  14
HETATM   14  O   UNK N   1      27.345  16.056   3.598  0.00  0.00    -0.388 OA
HETATM   15  H   UNK N   1      27.077  15.143   3.793  0.00  0.00     0.210 HD
ENDBRANCH   9  14
BRANCH  10  16
HETATM   16  N   UNK N   1      26.337  18.829   3.873  0.00  0.00    -0.280 N 
HETATM   17  C   UNK N   1      26.178  19.906   3.046  0.00  0.00     0.103 A 
HETATM   18  C   UNK N   1      24.933  20.479   2.830  0.00  0.00     0.073 A 
HETATM   19  C   UNK N   1      23.832  19.936   3.466  0.00  0.00     0.144 A 
HETATM   20  N   UNK N   1      23.974  18.833   4.240  0.00  0.00    -0.289 N 
HETATM   21  C   UNK N   1      25.203  18.262   4.446  0.00  0.00     0.330 A 
ATOM     22  HN  UNK N   1      23.151  18.420   4.679  1.00  0.00     0.172 HD
HETATM   23  O   UNK N   1      25.269  17.255   5.126  0.00  0.00    -0.246 OA
BRANCH  19  24
HETATM   24  O   UNK N   1      22.624  20.501   3.315  0.00  0.00    -0.346 OA
HETATM   25  H   UNK N   1      22.227  21.016   3.989  0.00  0.00     0.219 HD
ENDBRANCH  19  24
ENDBRANCH  10  16
ENDBRANCH   6   7
ENDBRANCH   5   6
ENDBRANCH   2   5
BRANCH   2  26
HETATM   26  O   UNK N   1      33.322  17.588   8.238  0.00  0.00    -0.195 OA
BRANCH  26  27
HETATM   27  P   UNK N   1      34.000  16.117   7.593  0.00  0.00     0.404 P 
HETATM   28  O   UNK N   1      35.103  16.495   6.569  0.00  0.00    -0.631 OA
BRANCH  27  29
HETATM   29  O   UNK N   1      32.820  15.251   6.659  0.00  0.00    -0.307 OA
HETATM   30  H   UNK N   1      32.468  14.386   6.397  0.00  0.00     0.222 HD
ENDBRANCH  27  29
BRANCH  27  31
HETATM   31  O   UNK N   1      34.697  15.048   8.803  0.00  0.00    -0.263 OA
BRANCH  31  32
HETATM   32  C   UNK N   1      35.219  15.640   9.996  0.00  0.00     0.302 C 
HETATM   33  C   UNK N   1      34.516  15.049  11.230  0.00  0.00     0.205 C 
HETATM   34  C   UNK N   1      35.025  13.628  11.448  0.00  0.00     0.182 C 
HETATM   35  C   UNK N   1      36.543  13.684  11.644  0.00  0.00     0.173 C 
HETATM   36  C   UNK N   1      37.182  14.382  10.446  0.00  0.00     0.205 C 
HETATM   37  O   UNK N   1      36.639  15.660  10.149  0.00  0.00    -0.355 OA
BRANCH  33  38
HETATM   38  O   UNK N   1      33.130  15.054  11.044  0.00  0.00    -0.388 OA
HETATM   39  H   UNK N   1      32.709  15.025  10.171  0.00  0.00     0.210 HD
ENDBRANCH  33  38
BRANCH  34  40
HETATM   40  O   UNK N   1      34.414  13.051  12.563  0.00  0.00    -0.390 OA
HETATM   41  H   UNK N   1      34.881  13.013  13.412  0.00  0.00     0.210 HD
ENDBRANCH  34  40
BRANCH  35  42
HETATM   42  O   UNK N   1      36.869  14.374  12.814  0.00  0.00    -0.391 OA
HETATM   43  H   UNK N   1      37.084  15.089  13.434  0.00  0.00     0.210 HD
ENDBRANCH  35  42
ENDBRANCH  31  32
ENDBRANCH  27  31
ENDBRANCH  26  27
ENDBRANCH   2  26
TORSDOF 16
ENDMDL
