REMARK WARNING: 32 MAX_TORS EXCEEDED!!!
REMARK  33 active torsions:
REMARK  status: ('A' for Active; 'I' for Inactive)
REMARK    1  A    between atoms: C_8  and  C_5 
REMARK    2  A    between atoms: C_14  and  C_5 
REMARK    3  A    between atoms: C_9  and  C_6 
REMARK    4  A    between atoms: C_15  and  C_6 
REMARK    5  A    between atoms: C_10  and  C_7 
REMARK    6  A    between atoms: C_16  and  C_7 
REMARK    7  A    between atoms: C_27  and  C_8 
REMARK    8  A    between atoms: C_28  and  C_9 
REMARK    9  A    between atoms: C_29  and  C_10 
REMARK   10  A    between atoms: C_17  and  C_11 
REMARK   11  A    between atoms: C_23  and  C_11 
REMARK   12  A    between atoms: C_18  and  C_12 
REMARK   13  A    between atoms: C_24  and  C_12 
REMARK   14  A    between atoms: C_19  and  C_13 
REMARK   15  A    between atoms: C_25  and  C_13 
REMARK   16  A    between atoms: N_42  and  C_14 
REMARK   17  A    between atoms: N_43  and  C_15 
REMARK   18  A    between atoms: N_44  and  C_16 
REMARK   19  A    between atoms: O_45  and  C_17 
REMARK   20  A    between atoms: O_46  and  C_18 
REMARK   21  A    between atoms: O_60  and  C_19 
REMARK   22  A    between atoms: C_30  and  C_20 
REMARK   23  A    between atoms: C_31  and  C_21 
REMARK   24  A    between atoms: C_32  and  C_22 
REMARK   25  A    between atoms: C_35  and  C_29 
REMARK   26  A    between atoms: C_29  and  N_36 
REMARK       I    between atoms: N_42  and  C_30 
REMARK       I    between atoms: N_44  and  C_31 
REMARK       I    between atoms: N_43  and  C_32 
REMARK   27  A    between atoms: O_51  and  C_33 
REMARK   28  A    between atoms: O_52  and  C_34 
REMARK   29  A    between atoms: O_60  and  C_35 
REMARK   30  A    between atoms: O_54  and  N_42 
REMARK   31  A    between atoms: O_56  and  N_43 
REMARK   32  A    between atoms: O_58  and  N_44 
REMARK   33  A    between atoms: Fe_61  and  Fe_61 
ROOT
HETATM    1  C   UNK N   1       4.900   2.717   0.046  0.00  0.00     0.097 C 
HETATM    2  C   UNK N   1       5.160   1.400  -0.595  0.00  0.00     0.107 C 
HETATM    3  N   UNK N   1       5.379   0.363   0.153  0.00  0.00    -0.361 N 
ATOM      4  HN  UNK N   1       5.365   0.512   1.162  1.00  0.00     0.162 HD
HETATM    5  O   UNK N   1       5.109   1.300  -1.940  0.00  0.00    -0.350 OA
HETATM    6  H   UNK N   1       5.032   1.296  -2.873  0.00  0.00     0.219 HD
ENDROOT
BRANCH   3   7
HETATM    7  C   UNK N   1       5.643  -1.003  -0.311  0.00  0.00     0.183 C 
BRANCH   7   8
HETATM    8  C   UNK N   1       6.468  -1.056  -1.613  0.00  0.00     0.037 C 
BRANCH   8   9
HETATM    9  C   UNK N   1       7.808  -0.308  -1.583  0.00  0.00     0.025 C 
BRANCH   9  10
HETATM   10  C   UNK N   1       8.019   0.471  -0.287  0.00  0.00     0.159 C 
BRANCH  10  11
HETATM   11  N   UNK N   1       9.392   0.543   0.091  0.00  0.00    -0.225 N 
HETATM   12  C   UNK N   1      10.138  -0.585   0.246  0.00  0.00     0.267 C 
HETATM   13  O   UNK N   1       9.637  -1.687   0.061  0.00  0.00    -0.266 OA
BRANCH  12  14
HETATM   14  C   UNK N   1      11.567  -0.459   0.587  0.00  0.00     0.079 C 
HETATM   15  C   UNK N   1      12.475  -1.446   0.482  0.00  0.00    -0.076 C 
HETATM   16  C   UNK N   1      12.125  -2.826   0.019  0.00  0.00     0.043 C 
BRANCH  15  17
HETATM   17  C   UNK N   1      13.906  -1.133   0.770  0.00  0.00     0.059 C 
BRANCH  17  18
HETATM   18  C   UNK N   1      14.385  -0.060  -0.199  0.00  0.00     0.168 C 
BRANCH  18  19
HETATM   19  O   UNK N   1      15.661   0.367   0.156  0.00  0.00    -0.401 OA
HETATM   20  H   UNK N   1      16.363  -0.254   0.404  0.00  0.00     0.209 HD
ENDBRANCH  18  19
ENDBRANCH  17  18
ENDBRANCH  15  17
ENDBRANCH  12  14
BRANCH  11  21
HETATM   21  O   UNK N   1       9.933   1.754   0.282  0.00  0.00    -0.285 OA
ATOM     22  HO  UNK N   1      10.848   1.802   0.534  1.00  0.00     0.245 HD
ENDBRANCH  11  21
ENDBRANCH  10  11
ENDBRANCH   9  10
ENDBRANCH   8   9
ENDBRANCH   7   8
BRANCH   7  23
HETATM   23  C   UNK N   1       4.400  -1.848  -0.453  0.00  0.00     0.281 C 
HETATM   24  O   UNK N   1       4.531  -3.051  -0.625  0.00  0.00    -0.263 OA
BRANCH  23  25
HETATM   25  O   UNK N   1       3.149  -1.344  -0.368  0.00  0.00    -0.320 OA
BRANCH  25  26
HETATM   26  C   UNK N   1       2.809  -0.005  -0.457  0.00  0.00     0.183 C 
BRANCH  26  27
HETATM   27  C   UNK N   1       1.739   0.214  -1.516  0.00  0.00     0.060 C 
BRANCH  27  28
HETATM   28  C   UNK N   1       0.734  -0.796  -1.160  0.00  0.00    -0.076 C 
HETATM   29  C   UNK N   1       0.624  -1.997  -2.052  0.00  0.00     0.043 C 
HETATM   30  C   UNK N   1       0.120  -0.682   0.036  0.00  0.00     0.079 C 
BRANCH  30  31
HETATM   31  C   UNK N   1      -0.621  -1.801   0.626  0.00  0.00     0.267 C 
HETATM   32  N   UNK N   1      -1.541  -1.600   1.601  0.00  0.00    -0.225 N 
HETATM   33  O   UNK N   1      -0.420  -2.932   0.208  0.00  0.00    -0.266 OA
BRANCH  32  34
HETATM   34  C   UNK N   1      -2.452  -2.677   1.951  0.00  0.00     0.159 C 
BRANCH  34  35
HETATM   35  C   UNK N   1      -3.067  -3.426   0.710  0.00  0.00     0.025 C 
BRANCH  35  36
HETATM   36  C   UNK N   1      -3.093  -2.726  -0.692  0.00  0.00     0.035 C 
BRANCH  36  37
HETATM   37  C   UNK N   1      -3.679  -1.339  -0.555  0.00  0.00     0.158 C 
HETATM   38  C   UNK N   1      -3.735  -0.298  -1.654  0.00  0.00     0.135 C 
HETATM   39  N   UNK N   1      -4.315   0.830  -1.355  0.00  0.00    -0.361 N 
HETATM   40  C   UNK N   1      -4.838   1.003   0.007  0.00  0.00     0.158 C 
ATOM     41  HN  UNK N   1      -4.404   1.573  -2.049  1.00  0.00     0.162 HD
HETATM   42  C   UNK N   1      -5.548  -0.300   0.397  0.00  0.00     0.135 C 
HETATM   43  N   UNK N   1      -4.968  -1.403   0.090  0.00  0.00    -0.361 N 
ATOM     44  HN  UNK N   1      -5.407  -2.301   0.295  1.00  0.00     0.162 HD
BRANCH  38  45
HETATM   45  O   UNK N   1      -3.215  -0.507  -2.879  0.00  0.00    -0.348 OA
HETATM   46  H   UNK N   1      -3.160  -0.893  -3.731  0.00  0.00     0.219 HD
ENDBRANCH  38  45
BRANCH  40  47
HETATM   47  C   UNK N   1      -5.590   2.312   0.199  0.00  0.00     0.035 C 
BRANCH  47  48
HETATM   48  C   UNK N   1      -6.948   2.315  -0.460  0.00  0.00     0.025 C 
BRANCH  48  49
HETATM   49  C   UNK N   1      -7.962   2.064   0.633  0.00  0.00     0.159 C 
BRANCH  49  50
HETATM   50  N   UNK N   1      -9.084   1.319   0.126  0.00  0.00    -0.225 N 
HETATM   51  C   UNK N   1     -10.344   1.795   0.287  0.00  0.00     0.267 C 
HETATM   52  O   UNK N   1     -10.512   2.876   0.838  0.00  0.00    -0.266 OA
BRANCH  51  53
HETATM   53  C   UNK N   1     -11.512   1.001  -0.193  0.00  0.00     0.079 C 
HETATM   54  C   UNK N   1     -12.801   1.409  -0.117  0.00  0.00    -0.076 C 
HETATM   55  C   UNK N   1     -13.173   2.744   0.449  0.00  0.00     0.043 C 
BRANCH  54  56
HETATM   56  C   UNK N   1     -13.937   0.562  -0.637  0.00  0.00     0.059 C 
BRANCH  56  57
HETATM   57  C   UNK N   1     -13.655  -0.933  -0.719  0.00  0.00     0.168 C 
BRANCH  57  58
HETATM   58  O   UNK N   1     -14.321  -1.593   0.312  0.00  0.00    -0.401 OA
HETATM   59  H   UNK N   1     -14.951  -1.421   1.029  0.00  0.00     0.209 HD
ENDBRANCH  57  58
ENDBRANCH  56  57
ENDBRANCH  54  56
ENDBRANCH  51  53
BRANCH  50  60
HETATM   60  O   UNK N   1      -8.878   0.135  -0.476  0.00  0.00    -0.285 OA
ATOM     61  HO  UNK N   1      -9.619  -0.357  -0.811  1.00  0.00     0.245 HD
ENDBRANCH  50  60
ENDBRANCH  49  50
ENDBRANCH  48  49
ENDBRANCH  47  48
ENDBRANCH  40  47
BRANCH  42  62
HETATM   62  O   UNK N   1      -6.735  -0.336   1.018  0.00  0.00    -0.348 OA
HETATM   63  H   UNK N   1      -7.173   0.370   1.451  0.00  0.00     0.219 HD
ENDBRANCH  42  62
ENDBRANCH  36  37
ENDBRANCH  35  36
ENDBRANCH  34  35
ENDBRANCH  32  34
BRANCH  32  64
HETATM   64  O   UNK N   1      -1.763  -0.365   2.086  0.00  0.00    -0.285 OA
ATOM     65  HO  UNK N   1      -1.167   0.339   1.857  1.00  0.00     0.245 HD
ENDBRANCH  32  64
ENDBRANCH  30  31
ENDBRANCH  27  28
ENDBRANCH  26  27
ENDBRANCH  25  26
ENDBRANCH  23  25
ENDBRANCH   7  23
ENDBRANCH   3   7
TORSDOF 33
