MODEL 1
REMARK VINA RESULT:      -7.4      0.000      0.000
REMARK  8 active torsions:
REMARK  status: ('A' for Active; 'I' for Inactive)
REMARK    1  A    between atoms: C_11  and  C_6 
REMARK    2  A    between atoms: C_13  and  C_6 
REMARK    3  A    between atoms: C_12  and  C_10 
REMARK    4  A    between atoms: C_18  and  C_13 
REMARK    5  A    between atoms: N_19  and  C_13 
REMARK    6  A    between atoms: N_20  and  C_14 
REMARK    7  A    between atoms: O_23  and  C_17 
REMARK    8  A    between atoms: O_25  and  C_18 
ROOT
HETATM    1  C   UNK N   1      30.973  16.967   6.264  0.00  0.00     0.072 C 
HETATM    2  C   UNK N   1      33.199  17.571   4.468  0.00  0.00     0.089 C 
HETATM    3  C   UNK N   1      32.403  16.693   6.743  0.00  0.00     0.068 C 
HETATM    4  C   UNK N   1      30.853  16.865   4.770  0.00  0.00     0.039 C 
HETATM    5  C   UNK N   1      33.394  17.488   5.921  0.00  0.00     0.156 C 
HETATM    6  C   UNK N   1      32.021  17.244   3.920  0.00  0.00     0.091 C 
HETATM    7  N   UNK N   1      29.750  16.562   4.161  0.00  0.00    -0.386 N 
ATOM      8  HN  UNK N   1      29.860  16.566   3.147  1.00  0.00     0.160 HD
HETATM    9  O   UNK N   1      34.346  18.055   6.433  0.00  0.00    -0.293 OA
ENDROOT
BRANCH   6  10
HETATM   10  O   UNK N   1      31.886  17.301   2.582  0.00  0.00    -0.359 OA
HETATM   11  H   UNK N   1      31.166  16.887   2.149  0.00  0.00     0.217 HD
ENDBRANCH   6  10
BRANCH   7  12
HETATM   12  C   UNK N   1      28.386  16.217   4.559  0.00  0.00     0.090 A 
HETATM   13  C   UNK N   1      27.459  16.733   3.456  0.00  0.00     0.037 A 
HETATM   14  C   UNK N   1      27.110  17.019   4.893  0.00  0.00     0.043 A 
BRANCH  14  15
HETATM   15  C   UNK N   1      27.000  18.471   5.270  0.00  0.00    -0.052 A 
HETATM   16  C   UNK N   1      27.616  19.008   6.412  0.00  0.00     0.007 A 
HETATM   17  C   UNK N   1      27.615  20.390   6.630  0.00  0.00     0.001 A 
HETATM   18  C   UNK N   1      27.040  21.246   5.687  0.00  0.00     0.000 A 
HETATM   19  C   UNK N   1      26.465  20.724   4.529  0.00  0.00     0.001 A 
HETATM   20  C   UNK N   1      26.455  19.342   4.318  0.00  0.00     0.007 A 
ENDBRANCH  14  15
ENDBRANCH   7  12
BRANCH   3  21
HETATM   21  C   UNK N   1      32.495  16.961   8.244  0.00  0.00     0.048 C 
BRANCH  21  22
HETATM   22  C   UNK N   1      33.602  16.172   8.936  0.00  0.00     0.174 C 
BRANCH  22  23
HETATM   23  C   UNK N   1      32.992  15.003   9.657  0.00  0.00     0.163 C 
HETATM   24  O   UNK N   1      32.623  14.013   9.046  0.00  0.00    -0.648 OA
BRANCH  23  25
HETATM   25  O   UNK N   1      32.848  15.049  10.995  0.00  0.00    -0.775 OA
HETATM   26  H   UNK N   1      32.021  15.277  11.371  0.00  0.00     0.167 HD
ENDBRANCH  23  25
ENDBRANCH  22  23
BRANCH  22  27
HETATM   27  N   UNK N   1      34.337  17.021   9.861  0.00  0.00    -0.418 N 
HETATM   28  H   UNK N   1      34.476  16.726  10.828  0.00  0.00     0.150 HD
HETATM   29  H   UNK N   1      34.716  17.913   9.543  0.00  0.00     0.150 HD
ENDBRANCH  22  27
ENDBRANCH  21  22
ENDBRANCH   3  21
TORSDOF 8
ENDMDL
MODEL 2
REMARK VINA RESULT:      -7.2      1.949      4.682
REMARK  8 active torsions:
REMARK  status: ('A' for Active; 'I' for Inactive)
REMARK    1  A    between atoms: C_11  and  C_6 
REMARK    2  A    between atoms: C_13  and  C_6 
REMARK    3  A    between atoms: C_12  and  C_10 
REMARK    4  A    between atoms: C_18  and  C_13 
REMARK    5  A    between atoms: N_19  and  C_13 
REMARK    6  A    between atoms: N_20  and  C_14 
REMARK    7  A    between atoms: O_23  and  C_17 
REMARK    8  A    between atoms: O_25  and  C_18 
ROOT
HETATM    1  C   UNK N   1      31.712  17.283   7.250  0.00  0.00     0.072 C 
HETATM    2  C   UNK N   1      33.164  15.067   8.486  0.00  0.00     0.089 C 
HETATM    3  C   UNK N   1      33.177  17.052   6.862  0.00  0.00     0.068 C 
HETATM    4  C   UNK N   1      31.421  16.808   8.645  0.00  0.00     0.039 C 
HETATM    5  C   UNK N   1      33.596  15.639   7.204  0.00  0.00     0.156 C 
HETATM    6  C   UNK N   1      32.170  15.634   9.184  0.00  0.00     0.091 C 
HETATM    7  N   UNK N   1      30.474  17.297   9.384  0.00  0.00    -0.386 N 
ATOM      8  HN  UNK N   1      30.417  16.830  10.288  1.00  0.00     0.160 HD
HETATM    9  O   UNK N   1      34.280  14.969   6.447  0.00  0.00    -0.293 OA
ENDROOT
BRANCH   6  10
HETATM   10  O   UNK N   1      31.822  15.102  10.371  0.00  0.00    -0.359 OA
HETATM   11  H   UNK N   1      32.047  15.526  11.176  0.00  0.00     0.217 HD
ENDBRANCH   6  10
BRANCH   7  12
HETATM   12  C   UNK N   1      29.467  18.347   9.246  0.00  0.00     0.090 A 
HETATM   13  C   UNK N   1      28.102  17.654   9.245  0.00  0.00     0.037 A 
HETATM   14  C   UNK N   1      28.390  18.698   8.197  0.00  0.00     0.043 A 
BRANCH  14  15
HETATM   15  C   UNK N   1      28.306  18.239   6.768  0.00  0.00    -0.052 A 
HETATM   16  C   UNK N   1      28.146  16.890   6.412  0.00  0.00     0.007 A 
HETATM   17  C   UNK N   1      27.915  16.537   5.077  0.00  0.00     0.001 A 
HETATM   18  C   UNK N   1      27.797  17.529   4.100  0.00  0.00     0.000 A 
HETATM   19  C   UNK N   1      27.911  18.873   4.454  0.00  0.00     0.001 A 
HETATM   20  C   UNK N   1      28.154  19.225   5.785  0.00  0.00     0.007 A 
ENDBRANCH  14  15
ENDBRANCH   7  12
BRANCH   3  21
HETATM   21  C   UNK N   1      33.373  17.411   5.390  0.00  0.00     0.048 C 
BRANCH  21  22
HETATM   22  C   UNK N   1      32.249  16.914   4.487  0.00  0.00     0.174 C 
BRANCH  22  23
HETATM   23  C   UNK N   1      32.809  15.915   3.513  0.00  0.00     0.163 C 
HETATM   24  O   UNK N   1      33.215  16.269   2.417  0.00  0.00    -0.648 OA
BRANCH  23  25
HETATM   25  O   UNK N   1      32.859  14.613   3.850  0.00  0.00    -0.775 OA
HETATM   26  H   UNK N   1      32.146  14.044   3.639  0.00  0.00     0.167 HD
ENDBRANCH  23  25
ENDBRANCH  22  23
BRANCH  22  27
HETATM   27  N   UNK N   1      31.623  18.024   3.784  0.00  0.00    -0.418 N 
HETATM   28  H   UNK N   1      30.717  18.379   4.089  0.00  0.00     0.150 HD
HETATM   29  H   UNK N   1      32.093  18.448   2.985  0.00  0.00     0.150 HD
ENDBRANCH  22  27
ENDBRANCH  21  22
ENDBRANCH   3  21
TORSDOF 8
ENDMDL
MODEL 3
REMARK VINA RESULT:      -7.2     11.617     14.449
REMARK  8 active torsions:
REMARK  status: ('A' for Active; 'I' for Inactive)
REMARK    1  A    between atoms: C_11  and  C_6 
REMARK    2  A    between atoms: C_13  and  C_6 
REMARK    3  A    between atoms: C_12  and  C_10 
REMARK    4  A    between atoms: C_18  and  C_13 
REMARK    5  A    between atoms: N_19  and  C_13 
REMARK    6  A    between atoms: N_20  and  C_14 
REMARK    7  A    between atoms: O_23  and  C_17 
REMARK    8  A    between atoms: O_25  and  C_18 
ROOT
HETATM    1  C   UNK N   1      27.849  24.204  -5.285  0.00  0.00     0.072 C 
HETATM    2  C   UNK N   1      27.334  22.336  -7.474  0.00  0.00     0.089 C 
HETATM    3  C   UNK N   1      28.515  22.824  -5.249  0.00  0.00     0.068 C 
HETATM    4  C   UNK N   1      26.546  24.179  -6.032  0.00  0.00     0.039 C 
HETATM    5  C   UNK N   1      28.532  22.213  -6.633  0.00  0.00     0.156 C 
HETATM    6  C   UNK N   1      26.382  23.231  -7.174  0.00  0.00     0.091 C 
HETATM    7  N   UNK N   1      25.578  25.012  -5.810  0.00  0.00    -0.386 N 
ATOM      8  HN  UNK N   1      24.786  24.852  -6.433  1.00  0.00     0.160 HD
HETATM    9  O   UNK N   1      29.510  21.622  -7.064  0.00  0.00    -0.293 OA
ENDROOT
BRANCH   6  10
HETATM   10  O   UNK N   1      25.282  23.295  -7.948  0.00  0.00    -0.359 OA
HETATM   11  H   UNK N   1      24.787  24.087  -8.021  0.00  0.00     0.217 HD
ENDBRANCH   6  10
BRANCH   7  12
HETATM   12  C   UNK N   1      25.335  26.125  -4.893  0.00  0.00     0.090 A 
HETATM   13  C   UNK N   1      24.602  27.205  -5.693  0.00  0.00     0.037 A 
HETATM   14  C   UNK N   1      25.771  27.604  -4.831  0.00  0.00     0.043 A 
BRANCH  14  15
HETATM   15  C   UNK N   1      26.921  28.261  -5.542  0.00  0.00    -0.052 A 
HETATM   16  C   UNK N   1      27.387  27.828  -6.794  0.00  0.00     0.007 A 
HETATM   17  C   UNK N   1      28.354  28.571  -7.482  0.00  0.00     0.001 A 
HETATM   18  C   UNK N   1      28.827  29.771  -6.945  0.00  0.00     0.000 A 
HETATM   19  C   UNK N   1      28.337  30.229  -5.722  0.00  0.00     0.001 A 
HETATM   20  C   UNK N   1      27.381  29.481  -5.030  0.00  0.00     0.007 A 
ENDBRANCH  14  15
ENDBRANCH   7  12
BRANCH   3  21
HETATM   21  C   UNK N   1      29.899  22.946  -4.614  0.00  0.00     0.048 C 
BRANCH  21  22
HETATM   22  C   UNK N   1      30.303  21.721  -3.800  0.00  0.00     0.174 C 
BRANCH  22  23
HETATM   23  C   UNK N   1      31.071  22.171  -2.588  0.00  0.00     0.163 C 
HETATM   24  O   UNK N   1      30.661  23.087  -1.891  0.00  0.00    -0.648 OA
BRANCH  23  25
HETATM   25  O   UNK N   1      32.226  21.560  -2.268  0.00  0.00    -0.775 OA
HETATM   26  H   UNK N   1      32.373  20.669  -2.520  0.00  0.00     0.167 HD
ENDBRANCH  23  25
ENDBRANCH  22  23
BRANCH  22  27
HETATM   27  N   UNK N   1      31.102  20.809  -4.604  0.00  0.00    -0.418 N 
HETATM   28  H   UNK N   1      32.117  20.789  -4.502  0.00  0.00     0.150 HD
HETATM   29  H   UNK N   1      30.646  20.187  -5.271  0.00  0.00     0.150 HD
ENDBRANCH  22  27
ENDBRANCH  21  22
ENDBRANCH   3  21
TORSDOF 8
ENDMDL
MODEL 4
REMARK VINA RESULT:      -7.1      8.394     10.156
REMARK  8 active torsions:
REMARK  status: ('A' for Active; 'I' for Inactive)
REMARK    1  A    between atoms: C_11  and  C_6 
REMARK    2  A    between atoms: C_13  and  C_6 
REMARK    3  A    between atoms: C_12  and  C_10 
REMARK    4  A    between atoms: C_18  and  C_13 
REMARK    5  A    between atoms: N_19  and  C_13 
REMARK    6  A    between atoms: N_20  and  C_14 
REMARK    7  A    between atoms: O_23  and  C_17 
REMARK    8  A    between atoms: O_25  and  C_18 
ROOT
HETATM    1  C   UNK N   1      22.335  13.876   8.015  0.00  0.00     0.072 C 
HETATM    2  C   UNK N   1      20.015  14.983   9.407  0.00  0.00     0.089 C 
HETATM    3  C   UNK N   1      22.110  13.504   9.485  0.00  0.00     0.068 C 
HETATM    4  C   UNK N   1      21.768  15.227   7.685  0.00  0.00     0.039 C 
HETATM    5  C   UNK N   1      20.670  13.755   9.876  0.00  0.00     0.156 C 
HETATM    6  C   UNK N   1      20.547  15.697   8.405  0.00  0.00     0.091 C 
HETATM    7  N   UNK N   1      22.218  15.977   6.728  0.00  0.00    -0.386 N 
ATOM      8  HN  UNK N   1      21.689  16.845   6.643  1.00  0.00     0.160 HD
HETATM    9  O   UNK N   1      20.044  12.967  10.568  0.00  0.00    -0.293 OA
ENDROOT
BRANCH   6  10
HETATM   10  O   UNK N   1      19.939  16.835   8.022  0.00  0.00    -0.359 OA
HETATM   11  H   UNK N   1      19.803  17.031   7.115  0.00  0.00     0.217 HD
ENDBRANCH   6  10
BRANCH   7  12
HETATM   12  C   UNK N   1      23.291  15.892   5.740  0.00  0.00     0.090 A 
HETATM   13  C   UNK N   1      23.407  17.275   5.093  0.00  0.00     0.037 A 
HETATM   14  C   UNK N   1      23.381  16.057   4.207  0.00  0.00     0.043 A 
BRANCH  14  15
HETATM   15  C   UNK N   1      22.264  15.996   3.203  0.00  0.00    -0.052 A 
HETATM   16  C   UNK N   1      21.333  17.034   3.039  0.00  0.00     0.007 A 
HETATM   17  C   UNK N   1      20.412  16.995   1.985  0.00  0.00     0.001 A 
HETATM   18  C   UNK N   1      20.446  15.945   1.065  0.00  0.00     0.000 A 
HETATM   19  C   UNK N   1      21.396  14.932   1.196  0.00  0.00     0.001 A 
HETATM   20  C   UNK N   1      22.307  14.965   2.256  0.00  0.00     0.007 A 
ENDBRANCH  14  15
ENDBRANCH   7  12
BRANCH   3  21
HETATM   21  C   UNK N   1      22.569  12.066   9.721  0.00  0.00     0.048 C 
BRANCH  21  22
HETATM   22  C   UNK N   1      23.713  11.950  10.722  0.00  0.00     0.174 C 
BRANCH  22  23
HETATM   23  C   UNK N   1      23.143  11.901  12.113  0.00  0.00     0.163 C 
HETATM   24  O   UNK N   1      23.828  12.187  13.081  0.00  0.00    -0.648 OA
BRANCH  23  25
HETATM   25  O   UNK N   1      21.861  11.532  12.292  0.00  0.00    -0.775 OA
HETATM   26  H   UNK N   1      21.491  11.521  13.153  0.00  0.00     0.167 HD
ENDBRANCH  23  25
ENDBRANCH  22  23
BRANCH  22  27
HETATM   27  N   UNK N   1      24.635  13.068  10.584  0.00  0.00    -0.418 N 
HETATM   28  H   UNK N   1      24.345  13.914  10.094  0.00  0.00     0.150 HD
HETATM   29  H   UNK N   1      25.573  13.005  10.978  0.00  0.00     0.150 HD
ENDBRANCH  22  27
ENDBRANCH  21  22
ENDBRANCH   3  21
TORSDOF 8
ENDMDL
MODEL 5
REMARK VINA RESULT:      -7.0      6.077     10.149
REMARK  8 active torsions:
REMARK  status: ('A' for Active; 'I' for Inactive)
REMARK    1  A    between atoms: C_11  and  C_6 
REMARK    2  A    between atoms: C_13  and  C_6 
REMARK    3  A    between atoms: C_12  and  C_10 
REMARK    4  A    between atoms: C_18  and  C_13 
REMARK    5  A    between atoms: N_19  and  C_13 
REMARK    6  A    between atoms: N_20  and  C_14 
REMARK    7  A    between atoms: O_23  and  C_17 
REMARK    8  A    between atoms: O_25  and  C_18 
ROOT
HETATM    1  C   UNK N   1      23.218  18.642   4.578  0.00  0.00     0.072 C 
HETATM    2  C   UNK N   1      22.244  15.964   5.229  0.00  0.00     0.089 C 
HETATM    3  C   UNK N   1      22.007  18.092   3.816  0.00  0.00     0.068 C 
HETATM    4  C   UNK N   1      24.131  17.545   5.047  0.00  0.00     0.039 C 
HETATM    5  C   UNK N   1      21.371  16.957   4.589  0.00  0.00     0.156 C 
HETATM    6  C   UNK N   1      23.547  16.220   5.411  0.00  0.00     0.091 C 
HETATM    7  N   UNK N   1      25.400  17.711   5.255  0.00  0.00    -0.386 N 
ATOM      8  HN  UNK N   1      25.846  16.859   5.593  1.00  0.00     0.160 HD
HETATM    9  O   UNK N   1      20.160  16.846   4.690  0.00  0.00    -0.293 OA
ENDROOT
BRANCH   6  10
HETATM   10  O   UNK N   1      24.324  15.275   5.972  0.00  0.00    -0.359 OA
HETATM   11  H   UNK N   1      24.027  14.390   6.056  0.00  0.00     0.217 HD
ENDBRANCH   6  10
BRANCH   7  12
HETATM   12  C   UNK N   1      26.353  18.813   5.130  0.00  0.00     0.090 A 
HETATM   13  C   UNK N   1      27.586  18.251   4.417  0.00  0.00     0.037 A 
HETATM   14  C   UNK N   1      27.778  19.090   5.654  0.00  0.00     0.043 A 
BRANCH  14  15
HETATM   15  C   UNK N   1      28.489  18.423   6.799  0.00  0.00    -0.052 A 
HETATM   16  C   UNK N   1      29.538  17.509   6.612  0.00  0.00     0.007 A 
HETATM   17  C   UNK N   1      30.268  17.040   7.711  0.00  0.00     0.001 A 
HETATM   18  C   UNK N   1      29.985  17.515   8.994  0.00  0.00     0.000 A 
HETATM   19  C   UNK N   1      28.973  18.456   9.181  0.00  0.00     0.001 A 
HETATM   20  C   UNK N   1      28.235  18.915   8.086  0.00  0.00     0.007 A 
ENDBRANCH  14  15
ENDBRANCH   7  12
BRANCH   3  21
HETATM   21  C   UNK N   1      21.044  19.235   3.502  0.00  0.00     0.048 C 
BRANCH  21  22
HETATM   22  C   UNK N   1      20.432  19.148   2.107  0.00  0.00     0.174 C 
BRANCH  22  23
HETATM   23  C   UNK N   1      20.842  20.360   1.317  0.00  0.00     0.163 C 
HETATM   24  O   UNK N   1      21.380  21.311   1.861  0.00  0.00    -0.648 OA
BRANCH  23  25
HETATM   25  O   UNK N   1      20.610  20.398  -0.009  0.00  0.00    -0.775 OA
HETATM   26  H   UNK N   1      21.303  20.610  -0.602  0.00  0.00     0.167 HD
ENDBRANCH  23  25
ENDBRANCH  22  23
BRANCH  22  27
HETATM   27  N   UNK N   1      18.982  19.053   2.186  0.00  0.00    -0.418 N 
HETATM   28  H   UNK N   1      18.478  19.520   2.939  0.00  0.00     0.150 HD
HETATM   29  H   UNK N   1      18.469  18.517   1.486  0.00  0.00     0.150 HD
ENDBRANCH  22  27
ENDBRANCH  21  22
ENDBRANCH   3  21
TORSDOF 8
ENDMDL
MODEL 6
REMARK VINA RESULT:      -6.8      5.314     10.735
REMARK  8 active torsions:
REMARK  status: ('A' for Active; 'I' for Inactive)
REMARK    1  A    between atoms: C_11  and  C_6 
REMARK    2  A    between atoms: C_13  and  C_6 
REMARK    3  A    between atoms: C_12  and  C_10 
REMARK    4  A    between atoms: C_18  and  C_13 
REMARK    5  A    between atoms: N_19  and  C_13 
REMARK    6  A    between atoms: N_20  and  C_14 
REMARK    7  A    between atoms: O_23  and  C_17 
REMARK    8  A    between atoms: O_25  and  C_18 
ROOT
HETATM    1  C   UNK N   1      35.246  14.724  11.024  0.00  0.00     0.072 C 
HETATM    2  C   UNK N   1      37.331  13.654   9.278  0.00  0.00     0.089 C 
HETATM    3  C   UNK N   1      35.370  15.275   9.599  0.00  0.00     0.068 C 
HETATM    4  C   UNK N   1      36.563  14.232  11.552  0.00  0.00     0.039 C 
HETATM    5  C   UNK N   1      36.137  14.306   8.726  0.00  0.00     0.156 C 
HETATM    6  C   UNK N   1      37.555  13.649  10.600  0.00  0.00     0.091 C 
HETATM    7  N   UNK N   1      36.856  14.188  12.814  0.00  0.00    -0.386 N 
ATOM      8  HN  UNK N   1      37.786  13.802  12.976  1.00  0.00     0.160 HD
HETATM    9  O   UNK N   1      35.792  14.058   7.582  0.00  0.00    -0.293 OA
ENDROOT
BRANCH   6  10
HETATM   10  O   UNK N   1      38.676  13.070  11.069  0.00  0.00    -0.359 OA
HETATM   11  H   UNK N   1      38.708  12.150  11.246  0.00  0.00     0.217 HD
ENDBRANCH   6  10
BRANCH   7  12
HETATM   12  C   UNK N   1      36.189  14.550  14.063  0.00  0.00     0.090 A 
HETATM   13  C   UNK N   1      37.120  14.122  15.201  0.00  0.00     0.037 A 
HETATM   14  C   UNK N   1      35.658  13.768  15.284  0.00  0.00     0.043 A 
BRANCH  14  15
HETATM   15  C   UNK N   1      35.338  12.302  15.377  0.00  0.00    -0.052 A 
HETATM   16  C   UNK N   1      34.199  11.735  14.785  0.00  0.00     0.007 A 
HETATM   17  C   UNK N   1      34.032  10.345  14.767  0.00  0.00     0.001 A 
HETATM   18  C   UNK N   1      35.021   9.514  15.299  0.00  0.00     0.000 A 
HETATM   19  C   UNK N   1      36.176  10.069  15.850  0.00  0.00     0.001 A 
HETATM   20  C   UNK N   1      36.337  11.458  15.879  0.00  0.00     0.007 A 
ENDBRANCH  14  15
ENDBRANCH   7  12
BRANCH   3  21
HETATM   21  C   UNK N   1      33.979  15.615   9.064  0.00  0.00     0.048 C 
BRANCH  21  22
HETATM   22  C   UNK N   1      33.857  17.048   8.556  0.00  0.00     0.174 C 
BRANCH  22  23
HETATM   23  C   UNK N   1      34.014  17.051   7.061  0.00  0.00     0.163 C 
HETATM   24  O   UNK N   1      34.292  18.078   6.462  0.00  0.00    -0.648 OA
BRANCH  23  25
HETATM   25  O   UNK N   1      33.842  15.908   6.372  0.00  0.00    -0.775 OA
HETATM   26  H   UNK N   1      33.372  15.194   6.755  0.00  0.00     0.167 HD
ENDBRANCH  23  25
ENDBRANCH  22  23
BRANCH  22  27
HETATM   27  N   UNK N   1      34.857  17.902   9.180  0.00  0.00    -0.418 N 
HETATM   28  H   UNK N   1      35.156  17.726  10.138  0.00  0.00     0.150 HD
HETATM   29  H   UNK N   1      35.259  18.680   8.656  0.00  0.00     0.150 HD
ENDBRANCH  22  27
ENDBRANCH  21  22
ENDBRANCH   3  21
TORSDOF 8
ENDMDL
MODEL 7
REMARK VINA RESULT:      -6.5      4.621      9.265
REMARK  8 active torsions:
REMARK  status: ('A' for Active; 'I' for Inactive)
REMARK    1  A    between atoms: C_11  and  C_6 
REMARK    2  A    between atoms: C_13  and  C_6 
REMARK    3  A    between atoms: C_12  and  C_10 
REMARK    4  A    between atoms: C_18  and  C_13 
REMARK    5  A    between atoms: N_19  and  C_13 
REMARK    6  A    between atoms: N_20  and  C_14 
REMARK    7  A    between atoms: O_23  and  C_17 
REMARK    8  A    between atoms: O_25  and  C_18 
ROOT
HETATM    1  C   UNK N   1      35.268  14.851   7.874  0.00  0.00     0.072 C 
HETATM    2  C   UNK N   1      34.495  17.528   8.759  0.00  0.00     0.089 C 
HETATM    3  C   UNK N   1      34.282  15.655   7.019  0.00  0.00     0.068 C 
HETATM    4  C   UNK N   1      35.187  15.227   9.326  0.00  0.00     0.039 C 
HETATM    5  C   UNK N   1      34.379  17.128   7.350  0.00  0.00     0.156 C 
HETATM    6  C   UNK N   1      34.837  16.631   9.694  0.00  0.00     0.091 C 
HETATM    7  N   UNK N   1      35.506  14.423  10.292  0.00  0.00    -0.386 N 
ATOM      8  HN  UNK N   1      35.408  14.866  11.205  1.00  0.00     0.160 HD
HETATM    9  O   UNK N   1      34.359  17.986   6.482  0.00  0.00    -0.293 OA
ENDROOT
BRANCH   6  10
HETATM   10  O   UNK N   1      34.904  17.025  10.980  0.00  0.00    -0.359 OA
HETATM   11  H   UNK N   1      34.705  17.906  11.228  0.00  0.00     0.217 HD
ENDBRANCH   6  10
BRANCH   7  12
HETATM   12  C   UNK N   1      35.972  13.042  10.402  0.00  0.00     0.090 A 
HETATM   13  C   UNK N   1      34.744  12.145  10.228  0.00  0.00     0.037 A 
HETATM   14  C   UNK N   1      35.693  11.868  11.365  0.00  0.00     0.043 A 
BRANCH  14  15
HETATM   15  C   UNK N   1      35.103  11.924  12.746  0.00  0.00    -0.052 A 
HETATM   16  C   UNK N   1      34.198  10.962  13.225  0.00  0.00     0.007 A 
HETATM   17  C   UNK N   1      33.803  10.974  14.567  0.00  0.00     0.001 A 
HETATM   18  C   UNK N   1      34.342  11.915  15.448  0.00  0.00     0.000 A 
HETATM   19  C   UNK N   1      35.274  12.846  14.989  0.00  0.00     0.001 A 
HETATM   20  C   UNK N   1      35.659  12.842  13.645  0.00  0.00     0.007 A 
ENDBRANCH  14  15
ENDBRANCH   7  12
BRANCH   3  21
HETATM   21  C   UNK N   1      34.518  15.341   5.543  0.00  0.00     0.048 C 
BRANCH  21  22
HETATM   22  C   UNK N   1      33.230  15.156   4.747  0.00  0.00     0.174 C 
BRANCH  22  23
HETATM   23  C   UNK N   1      33.123  16.254   3.726  0.00  0.00     0.163 C 
HETATM   24  O   UNK N   1      33.434  16.060   2.562  0.00  0.00    -0.648 OA
BRANCH  23  25
HETATM   25  O   UNK N   1      32.683  17.470   4.102  0.00  0.00    -0.775 OA
HETATM   26  H   UNK N   1      32.134  17.559   4.855  0.00  0.00     0.167 HD
ENDBRANCH  23  25
ENDBRANCH  22  23
BRANCH  22  27
HETATM   27  N   UNK N   1      32.074  15.161   5.631  0.00  0.00    -0.418 N 
HETATM   28  H   UNK N   1      31.510  14.319   5.744  0.00  0.00     0.150 HD
HETATM   29  H   UNK N   1      31.826  16.010   6.139  0.00  0.00     0.150 HD
ENDBRANCH  22  27
ENDBRANCH  21  22
ENDBRANCH   3  21
TORSDOF 8
ENDMDL
MODEL 8
REMARK VINA RESULT:      -6.5      5.758      9.309
REMARK  8 active torsions:
REMARK  status: ('A' for Active; 'I' for Inactive)
REMARK    1  A    between atoms: C_11  and  C_6 
REMARK    2  A    between atoms: C_13  and  C_6 
REMARK    3  A    between atoms: C_12  and  C_10 
REMARK    4  A    between atoms: C_18  and  C_13 
REMARK    5  A    between atoms: N_19  and  C_13 
REMARK    6  A    between atoms: N_20  and  C_14 
REMARK    7  A    between atoms: O_23  and  C_17 
REMARK    8  A    between atoms: O_25  and  C_18 
ROOT
HETATM    1  C   UNK N   1      23.576  17.462   4.946  0.00  0.00     0.072 C 
HETATM    2  C   UNK N   1      22.095  15.840   6.876  0.00  0.00     0.089 C 
HETATM    3  C   UNK N   1      22.045  17.529   4.946  0.00  0.00     0.068 C 
HETATM    4  C   UNK N   1      24.078  16.133   5.434  0.00  0.00     0.039 C 
HETATM    5  C   UNK N   1      21.496  17.035   6.267  0.00  0.00     0.156 C 
HETATM    6  C   UNK N   1      23.289  15.391   6.462  0.00  0.00     0.091 C 
HETATM    7  N   UNK N   1      25.222  15.631   5.089  0.00  0.00    -0.386 N 
ATOM      8  HN  UNK N   1      25.397  14.734   5.542  1.00  0.00     0.160 HD
HETATM    9  O   UNK N   1      20.574  17.600   6.833  0.00  0.00    -0.293 OA
ENDROOT
BRANCH   6  10
HETATM   10  O   UNK N   1      23.793  14.275   7.019  0.00  0.00    -0.359 OA
HETATM   11  H   UNK N   1      24.598  13.903   6.715  0.00  0.00     0.217 HD
ENDBRANCH   6  10
BRANCH   7  12
HETATM   12  C   UNK N   1      26.326  16.026   4.217  0.00  0.00     0.090 A 
HETATM   13  C   UNK N   1      27.591  16.035   5.080  0.00  0.00     0.037 A 
HETATM   14  C   UNK N   1      27.318  17.209   4.177  0.00  0.00     0.043 A 
BRANCH  14  15
HETATM   15  C   UNK N   1      27.191  18.546   4.853  0.00  0.00    -0.052 A 
HETATM   16  C   UNK N   1      27.702  18.799   6.136  0.00  0.00     0.007 A 
HETATM   17  C   UNK N   1      27.697  20.100   6.653  0.00  0.00     0.001 A 
HETATM   18  C   UNK N   1      27.226  21.160   5.875  0.00  0.00     0.000 A 
HETATM   19  C   UNK N   1      26.757  20.923   4.583  0.00  0.00     0.001 A 
HETATM   20  C   UNK N   1      26.750  19.622   4.072  0.00  0.00     0.007 A 
ENDBRANCH  14  15
ENDBRANCH   7  12
BRANCH   3  21
HETATM   21  C   UNK N   1      21.600  18.947   4.589  0.00  0.00     0.048 C 
BRANCH  21  22
HETATM   22  C   UNK N   1      21.524  19.200   3.087  0.00  0.00     0.174 C 
BRANCH  22  23
HETATM   23  C   UNK N   1      22.198  20.507   2.776  0.00  0.00     0.163 C 
HETATM   24  O   UNK N   1      23.406  20.566   2.610  0.00  0.00    -0.648 OA
BRANCH  23  25
HETATM   25  O   UNK N   1      21.461  21.630   2.685  0.00  0.00    -0.775 OA
HETATM   26  H   UNK N   1      21.615  22.239   1.990  0.00  0.00     0.167 HD
ENDBRANCH  23  25
ENDBRANCH  22  23
BRANCH  22  27
HETATM   27  N   UNK N   1      20.141  19.215   2.636  0.00  0.00    -0.418 N 
HETATM   28  H   UNK N   1      19.401  18.855   3.238  0.00  0.00     0.150 HD
HETATM   29  H   UNK N   1      19.910  19.588   1.715  0.00  0.00     0.150 HD
ENDBRANCH  22  27
ENDBRANCH  21  22
ENDBRANCH   3  21
TORSDOF 8
ENDMDL
MODEL 9
REMARK VINA RESULT:      -6.4     10.705     13.185
REMARK  8 active torsions:
REMARK  status: ('A' for Active; 'I' for Inactive)
REMARK    1  A    between atoms: C_11  and  C_6 
REMARK    2  A    between atoms: C_13  and  C_6 
REMARK    3  A    between atoms: C_12  and  C_10 
REMARK    4  A    between atoms: C_18  and  C_13 
REMARK    5  A    between atoms: N_19  and  C_13 
REMARK    6  A    between atoms: N_20  and  C_14 
REMARK    7  A    between atoms: O_23  and  C_17 
REMARK    8  A    between atoms: O_25  and  C_18 
ROOT
HETATM    1  C   UNK N   1      29.808  23.524  -4.861  0.00  0.00     0.072 C 
HETATM    2  C   UNK N   1      28.489  23.494  -2.253  0.00  0.00     0.089 C 
HETATM    3  C   UNK N   1      30.618  23.915  -3.621  0.00  0.00     0.068 C 
HETATM    4  C   UNK N   1      28.346  23.826  -4.695  0.00  0.00     0.039 C 
HETATM    5  C   UNK N   1      29.950  23.389  -2.369  0.00  0.00     0.156 C 
HETATM    6  C   UNK N   1      27.737  23.736  -3.335  0.00  0.00     0.091 C 
HETATM    7  N   UNK N   1      27.548  24.063  -5.688  0.00  0.00    -0.386 N 
ATOM      8  HN  UNK N   1      26.590  24.222  -5.378  1.00  0.00     0.160 HD
HETATM    9  O   UNK N   1      30.590  22.887  -1.460  0.00  0.00    -0.293 OA
ENDROOT
BRANCH   6  10
HETATM   10  O   UNK N   1      26.404  23.857  -3.188  0.00  0.00    -0.359 OA
HETATM   11  H   UNK N   1      26.028  24.095  -2.363  0.00  0.00     0.217 HD
ENDBRANCH   6  10
BRANCH   7  12
HETATM   12  C   UNK N   1      27.674  24.159  -7.142  0.00  0.00     0.090 A 
HETATM   13  C   UNK N   1      26.593  23.255  -7.740  0.00  0.00     0.037 A 
HETATM   14  C   UNK N   1      27.998  23.165  -8.278  0.00  0.00     0.043 A 
BRANCH  14  15
HETATM   15  C   UNK N   1      28.661  21.821  -8.171  0.00  0.00    -0.052 A 
HETATM   16  C   UNK N   1      30.041  21.670  -7.962  0.00  0.00     0.007 A 
HETATM   17  C   UNK N   1      30.582  20.403  -7.713  0.00  0.00     0.001 A 
HETATM   18  C   UNK N   1      29.743  19.289  -7.625  0.00  0.00     0.000 A 
HETATM   19  C   UNK N   1      28.366  19.438  -7.788  0.00  0.00     0.001 A 
HETATM   20  C   UNK N   1      27.828  20.701  -8.050  0.00  0.00     0.007 A 
ENDBRANCH  14  15
ENDBRANCH   7  12
BRANCH   3  21
HETATM   21  C   UNK N   1      32.062  23.446  -3.789  0.00  0.00     0.048 C 
BRANCH  21  22
HETATM   22  C   UNK N   1      32.180  22.022  -4.324  0.00  0.00     0.174 C 
BRANCH  22  23
HETATM   23  C   UNK N   1      32.982  21.200  -3.355  0.00  0.00     0.163 C 
HETATM   24  O   UNK N   1      33.940  20.544  -3.732  0.00  0.00    -0.648 OA
BRANCH  23  25
HETATM   25  O   UNK N   1      32.638  21.183  -2.054  0.00  0.00    -0.775 OA
HETATM   26  H   UNK N   1      32.010  21.796  -1.725  0.00  0.00     0.167 HD
ENDBRANCH  23  25
ENDBRANCH  22  23
BRANCH  22  27
HETATM   27  N   UNK N   1      32.802  22.017  -5.640  0.00  0.00    -0.418 N 
HETATM   28  H   UNK N   1      32.239  21.846  -6.473  0.00  0.00     0.150 HD
HETATM   29  H   UNK N   1      33.804  22.186  -5.730  0.00  0.00     0.150 HD
ENDBRANCH  22  27
ENDBRANCH  21  22
ENDBRANCH   3  21
TORSDOF 8
ENDMDL
