MODEL 1
REMARK VINA RESULT:      -6.8      0.000      0.000
REMARK  15 active torsions:
REMARK  status: ('A' for Active; 'I' for Inactive)
REMARK    1  A    between atoms: C_4  and  C_1 
REMARK    2  A    between atoms: O_28  and  C_1 
REMARK    3  A    between atoms: C_6  and  O_19 
REMARK    4  A    between atoms: C_7  and  O_30 
REMARK    5  A    between atoms: N_11  and  C_8 
REMARK    6  A    between atoms: C_10  and  N_18 
REMARK    7  A    between atoms: P_32  and  O_20 
REMARK    8  A    between atoms: P_32  and  O_21 
REMARK    9  A    between atoms: P_33  and  O_23 
REMARK   10  A    between atoms: P_33  and  O_24 
REMARK   11  A    between atoms: P_34  and  O_26 
REMARK   12  A    between atoms: P_34  and  O_28 
REMARK   13  A    between atoms: P_32  and  O_30 
REMARK   14  A    between atoms: P_33  and  O_31 
REMARK   15  A    between atoms: P_34  and  O_31 
ROOT
HETATM    1  C   UNK N   1      21.592  16.020   6.576  0.00  0.00     0.180 C 
HETATM    2  C   UNK N   1      20.983  13.823   6.826  0.00  0.00     0.199 C 
HETATM    3  C   UNK N   1      20.725  14.961   5.887  0.00  0.00     0.197 C 
HETATM    4  C   UNK N   1      20.709  14.606   8.111  0.00  0.00     0.262 C 
HETATM    5  O   UNK N   1      21.443  15.816   7.983  0.00  0.00    -0.353 OA
ENDROOT
BRANCH   4   6
HETATM    6  N   UNK N   1      20.993  13.864   9.344  0.00  0.00    -0.297 N 
HETATM    7  C   UNK N   1      20.123  13.335  10.243  0.00  0.00     0.188 A 
HETATM    8  N   UNK N   1      20.780  12.603  11.194  0.00  0.00    -0.346 N 
HETATM    9  C   UNK N   1      22.078  12.691  10.847  0.00  0.00     0.122 A 
ATOM     10  HN  UNK N   1      20.377  12.103  11.987  1.00  0.00     0.167 HD
HETATM   11  C   UNK N   1      23.204  12.107  11.416  0.00  0.00     0.131 A 
HETATM   12  C   UNK N   1      22.204  13.454   9.746  0.00  0.00     0.142 A 
HETATM   13  N   UNK N   1      24.417  12.349  10.833  0.00  0.00    -0.337 N 
HETATM   14  C   UNK N   1      24.518  13.139   9.714  0.00  0.00     0.183 A 
ATOM     15  HN  UNK N   1      25.259  11.937  11.235  1.00  0.00     0.168 HD
HETATM   16  N   UNK N   1      23.399  13.689   9.155  0.00  0.00    -0.336 N 
ATOM     17  HN  UNK N   1      23.461  14.261   8.312  1.00  0.00     0.168 HD
BRANCH  11  18
HETATM   18  N   UNK N   1      23.107  11.266  12.542  0.00  0.00    -0.383 N 
HETATM   19  H   UNK N   1      23.314  11.614  13.440  0.00  0.00     0.157 HD
HETATM   20  H   UNK N   1      22.831  10.328  12.431  0.00  0.00     0.157 HD
ENDBRANCH  11  18
ENDBRANCH   4   6
BRANCH   2  21
HETATM   21  O   UNK N   1      20.107  12.759   6.611  0.00  0.00    -0.388 OA
HETATM   22  H   UNK N   1      20.067  12.320   5.747  0.00  0.00     0.210 HD
ENDBRANCH   2  21
BRANCH   3  23
HETATM   23  O   UNK N   1      21.099  14.685   4.557  0.00  0.00    -0.286 OA
BRANCH  23  24
HETATM   24  P   UNK N   1      19.653  14.381   3.604  0.00  0.00     0.391 P 
HETATM   25  O   UNK N   1      19.928  13.096   2.788  0.00  0.00    -0.632 OA
BRANCH  24  26
HETATM   26  O   UNK N   1      19.280  15.626   2.445  0.00  0.00    -0.307 OA
HETATM   27  H   UNK N   1      19.407  16.426   1.912  0.00  0.00     0.222 HD
ENDBRANCH  24  26
BRANCH  24  28
HETATM   28  O   UNK N   1      18.271  14.041   4.595  0.00  0.00    -0.307 OA
HETATM   29  H   UNK N   1      17.379  14.227   4.265  0.00  0.00     0.222 HD
ENDBRANCH  24  28
ENDBRANCH  23  24
ENDBRANCH   3  23
BRANCH   1  30
HETATM   30  C   UNK N   1      21.171  17.424   6.139  0.00  0.00     0.215 C 
BRANCH  30  31
HETATM   31  O   UNK N   1      22.283  18.237   5.912  0.00  0.00    -0.294 OA
BRANCH  31  32
HETATM   32  P   UNK N   1      22.561  18.265   4.186  0.00  0.00     0.401 P 
HETATM   33  O   UNK N   1      22.995  19.706   3.800  0.00  0.00    -0.631 OA
BRANCH  32  34
HETATM   34  O   UNK N   1      23.936  17.264   3.841  0.00  0.00    -0.307 OA
HETATM   35  H   UNK N   1      24.883  17.323   4.039  0.00  0.00     0.222 HD
ENDBRANCH  32  34
BRANCH  32  36
HETATM   36  O   UNK N   1      21.209  17.727   3.199  0.00  0.00    -0.195 OA
BRANCH  36  37
HETATM   37  P   UNK N   1      20.222  19.102   2.749  0.00  0.00     0.399 P 
HETATM   38  O   UNK N   1      20.769  19.683   1.419  0.00  0.00    -0.631 OA
BRANCH  37  39
HETATM   39  O   UNK N   1      20.374  20.365   3.934  0.00  0.00    -0.307 OA
HETATM   40  H   UNK N   1      21.179  20.817   4.231  0.00  0.00     0.222 HD
ENDBRANCH  37  39
BRANCH  37  41
HETATM   41  O   UNK N   1      18.543  18.726   2.522  0.00  0.00    -0.307 OA
HETATM   42  H   UNK N   1      18.249  17.963   1.998  0.00  0.00     0.222 HD
ENDBRANCH  37  41
ENDBRANCH  36  37
ENDBRANCH  32  36
ENDBRANCH  31  32
ENDBRANCH  30  31
ENDBRANCH   1  30
TORSDOF 15
ENDMDL
MODEL 2
REMARK VINA RESULT:      -6.8     11.514     14.321
REMARK  15 active torsions:
REMARK  status: ('A' for Active; 'I' for Inactive)
REMARK    1  A    between atoms: C_4  and  C_1 
REMARK    2  A    between atoms: O_28  and  C_1 
REMARK    3  A    between atoms: C_6  and  O_19 
REMARK    4  A    between atoms: C_7  and  O_30 
REMARK    5  A    between atoms: N_11  and  C_8 
REMARK    6  A    between atoms: C_10  and  N_18 
REMARK    7  A    between atoms: P_32  and  O_20 
REMARK    8  A    between atoms: P_32  and  O_21 
REMARK    9  A    between atoms: P_33  and  O_23 
REMARK   10  A    between atoms: P_33  and  O_24 
REMARK   11  A    between atoms: P_34  and  O_26 
REMARK   12  A    between atoms: P_34  and  O_28 
REMARK   13  A    between atoms: P_32  and  O_30 
REMARK   14  A    between atoms: P_33  and  O_31 
REMARK   15  A    between atoms: P_34  and  O_31 
ROOT
HETATM    1  C   UNK N   1      33.428  14.142   7.647  0.00  0.00     0.180 C 
HETATM    2  C   UNK N   1      33.016  16.378   7.948  0.00  0.00     0.199 C 
HETATM    3  C   UNK N   1      33.805  15.283   8.598  0.00  0.00     0.197 C 
HETATM    4  C   UNK N   1      31.704  15.599   7.849  0.00  0.00     0.262 C 
HETATM    5  O   UNK N   1      32.053  14.333   7.305  0.00  0.00    -0.353 OA
ENDROOT
BRANCH   4   6
HETATM    6  N   UNK N   1      30.643  16.292   7.112  0.00  0.00    -0.297 N 
HETATM    7  C   UNK N   1      30.239  16.117   5.827  0.00  0.00     0.188 A 
HETATM    8  N   UNK N   1      29.128  16.865   5.551  0.00  0.00    -0.346 N 
HETATM    9  C   UNK N   1      28.855  17.499   6.707  0.00  0.00     0.122 A 
ATOM     10  HN  UNK N   1      28.620  16.929   4.668  1.00  0.00     0.167 HD
HETATM   11  C   UNK N   1      27.812  18.355   7.042  0.00  0.00     0.131 A 
HETATM   12  C   UNK N   1      29.769  17.163   7.637  0.00  0.00     0.142 A 
HETATM   13  N   UNK N   1      27.765  18.841   8.319  0.00  0.00    -0.337 N 
HETATM   14  C   UNK N   1      28.715  18.488   9.245  0.00  0.00     0.183 A 
ATOM     15  HN  UNK N   1      27.012  19.475   8.587  1.00  0.00     0.168 HD
HETATM   16  N   UNK N   1      29.722  17.628   8.907  0.00  0.00    -0.336 N 
ATOM     17  HN  UNK N   1      30.421  17.345   9.593  1.00  0.00     0.168 HD
BRANCH  11  18
HETATM   18  N   UNK N   1      26.812  18.695   6.110  0.00  0.00    -0.383 N 
HETATM   19  H   UNK N   1      26.841  18.328   5.196  0.00  0.00     0.157 HD
HETATM   20  H   UNK N   1      26.082  19.300   6.372  0.00  0.00     0.157 HD
ENDBRANCH  11  18
ENDBRANCH   4   6
BRANCH   2  21
HETATM   21  O   UNK N   1      32.942  17.516   8.751  0.00  0.00    -0.388 OA
HETATM   22  H   UNK N   1      32.192  18.126   8.674  0.00  0.00     0.210 HD
ENDBRANCH   2  21
BRANCH   3  23
HETATM   23  O   UNK N   1      35.186  15.549   8.662  0.00  0.00    -0.286 OA
BRANCH  23  24
HETATM   24  P   UNK N   1      35.589  16.124  10.274  0.00  0.00     0.391 P 
HETATM   25  O   UNK N   1      35.575  17.669  10.205  0.00  0.00    -0.632 OA
BRANCH  24  26
HETATM   26  O   UNK N   1      37.178  15.672  10.822  0.00  0.00    -0.307 OA
HETATM   27  H   UNK N   1      37.888  15.462  11.448  0.00  0.00     0.222 HD
ENDBRANCH  24  26
BRANCH  24  28
HETATM   28  O   UNK N   1      34.392  15.679  11.448  0.00  0.00    -0.307 OA
HETATM   29  H   UNK N   1      33.862  16.364  11.883  0.00  0.00     0.222 HD
ENDBRANCH  24  28
ENDBRANCH  23  24
ENDBRANCH   3  23
BRANCH   1  30
HETATM   30  C   UNK N   1      33.686  12.786   8.307  0.00  0.00     0.215 C 
BRANCH  30  31
HETATM   31  O   UNK N   1      33.878  12.923   9.682  0.00  0.00    -0.294 OA
BRANCH  31  32
HETATM   32  P   UNK N   1      35.166  11.831  10.136  0.00  0.00     0.401 P 
HETATM   33  O   UNK N   1      34.542  10.694  10.992  0.00  0.00    -0.631 OA
BRANCH  32  34
HETATM   34  O   UNK N   1      35.751  11.055   8.699  0.00  0.00    -0.307 OA
HETATM   35  H   UNK N   1      35.460  11.034   7.775  0.00  0.00     0.222 HD
ENDBRANCH  32  34
BRANCH  32  36
HETATM   36  O   UNK N   1      36.523  12.576  10.970  0.00  0.00    -0.195 OA
BRANCH  36  37
HETATM   37  P   UNK N   1      36.140  12.772  12.667  0.00  0.00     0.399 P 
HETATM   38  O   UNK N   1      36.556  11.479  13.416  0.00  0.00    -0.631 OA
BRANCH  37  39
HETATM   39  O   UNK N   1      34.422  12.930  12.881  0.00  0.00    -0.307 OA
HETATM   40  H   UNK N   1      33.876  12.607  13.615  0.00  0.00     0.222 HD
ENDBRANCH  37  39
BRANCH  37  41
HETATM   41  O   UNK N   1      36.940  14.114  13.424  0.00  0.00    -0.307 OA
HETATM   42  H   UNK N   1      37.792  14.454  13.109  0.00  0.00     0.222 HD
ENDBRANCH  37  41
ENDBRANCH  36  37
ENDBRANCH  32  36
ENDBRANCH  31  32
ENDBRANCH  30  31
ENDBRANCH   1  30
TORSDOF 15
ENDMDL
MODEL 3
REMARK VINA RESULT:      -6.6      1.522      2.139
REMARK  15 active torsions:
REMARK  status: ('A' for Active; 'I' for Inactive)
REMARK    1  A    between atoms: C_4  and  C_1 
REMARK    2  A    between atoms: O_28  and  C_1 
REMARK    3  A    between atoms: C_6  and  O_19 
REMARK    4  A    between atoms: C_7  and  O_30 
REMARK    5  A    between atoms: N_11  and  C_8 
REMARK    6  A    between atoms: C_10  and  N_18 
REMARK    7  A    between atoms: P_32  and  O_20 
REMARK    8  A    between atoms: P_32  and  O_21 
REMARK    9  A    between atoms: P_33  and  O_23 
REMARK   10  A    between atoms: P_33  and  O_24 
REMARK   11  A    between atoms: P_34  and  O_26 
REMARK   12  A    between atoms: P_34  and  O_28 
REMARK   13  A    between atoms: P_32  and  O_30 
REMARK   14  A    between atoms: P_33  and  O_31 
REMARK   15  A    between atoms: P_34  and  O_31 
ROOT
HETATM    1  C   UNK N   1      22.697  14.686   4.743  0.00  0.00     0.180 C 
HETATM    2  C   UNK N   1      20.802  13.661   5.528  0.00  0.00     0.199 C 
HETATM    3  C   UNK N   1      21.257  14.398   4.306  0.00  0.00     0.197 C 
HETATM    4  C   UNK N   1      21.316  14.687   6.539  0.00  0.00     0.262 C 
HETATM    5  O   UNK N   1      22.649  14.979   6.141  0.00  0.00    -0.353 OA
ENDROOT
BRANCH   4   6
HETATM    6  N   UNK N   1      21.190  14.273   7.940  0.00  0.00    -0.297 N 
HETATM    7  C   UNK N   1      20.279  14.663   8.869  0.00  0.00     0.188 A 
HETATM    8  N   UNK N   1      20.417  13.948  10.027  0.00  0.00    -0.346 N 
HETATM    9  C   UNK N   1      21.434  13.102   9.780  0.00  0.00     0.122 A 
ATOM     10  HN  UNK N   1      19.872  14.037  10.885  1.00  0.00     0.167 HD
HETATM   11  C   UNK N   1      21.987  12.102  10.571  0.00  0.00     0.131 A 
HETATM   12  C   UNK N   1      21.902  13.305   8.534  0.00  0.00     0.142 A 
HETATM   13  N   UNK N   1      23.013  11.363  10.049  0.00  0.00    -0.337 N 
HETATM   14  C   UNK N   1      23.477  11.598   8.778  0.00  0.00     0.183 A 
ATOM     15  HN  UNK N   1      23.440  10.628  10.613  1.00  0.00     0.168 HD
HETATM   16  N   UNK N   1      22.908  12.570   8.004  0.00  0.00    -0.336 N 
ATOM     17  HN  UNK N   1      23.232  12.738   7.052  1.00  0.00     0.168 HD
BRANCH  11  18
HETATM   18  N   UNK N   1      21.495  11.830  11.863  0.00  0.00    -0.383 N 
HETATM   19  H   UNK N   1      21.426  12.552  12.529  0.00  0.00     0.157 HD
HETATM   20  H   UNK N   1      21.220  10.916  12.100  0.00  0.00     0.157 HD
ENDBRANCH  11  18
ENDBRANCH   4   6
BRANCH   2  21
HETATM   21  O   UNK N   1      19.419  13.486   5.549  0.00  0.00    -0.388 OA
HETATM   22  H   UNK N   1      18.824  14.253   5.528  0.00  0.00     0.210 HD
ENDBRANCH   2  21
BRANCH   3  23
HETATM   23  O   UNK N   1      21.152  13.639   3.124  0.00  0.00    -0.286 OA
BRANCH  23  24
HETATM   24  P   UNK N   1      19.802  14.240   2.171  0.00  0.00     0.391 P 
HETATM   25  O   UNK N   1      18.537  13.534   2.711  0.00  0.00    -0.632 OA
BRANCH  24  26
HETATM   26  O   UNK N   1      19.892  13.856   0.475  0.00  0.00    -0.307 OA
HETATM   27  H   UNK N   1      20.255  13.832  -0.424  0.00  0.00     0.222 HD
ENDBRANCH  24  26
BRANCH  24  28
HETATM   28  O   UNK N   1      19.544  15.940   2.396  0.00  0.00    -0.307 OA
HETATM   29  H   UNK N   1      19.535  16.535   1.631  0.00  0.00     0.222 HD
ENDBRANCH  24  28
ENDBRANCH  23  24
ENDBRANCH   3  23
BRANCH   1  30
HETATM   30  C   UNK N   1      23.286  15.835   3.922  0.00  0.00     0.215 C 
BRANCH  30  31
HETATM   31  O   UNK N   1      22.290  16.717   3.501  0.00  0.00    -0.294 OA
BRANCH  31  32
HETATM   32  P   UNK N   1      22.384  18.131   4.524  0.00  0.00     0.401 P 
HETATM   33  O   UNK N   1      21.119  18.148   5.426  0.00  0.00    -0.631 OA
BRANCH  32  34
HETATM   34  O   UNK N   1      23.719  17.926   5.613  0.00  0.00    -0.307 OA
HETATM   35  H   UNK N   1      24.437  18.501   5.920  0.00  0.00     0.222 HD
ENDBRANCH  32  34
BRANCH  32  36
HETATM   36  O   UNK N   1      22.575  19.660   3.677  0.00  0.00    -0.195 OA
BRANCH  36  37
HETATM   37  P   UNK N   1      21.091  20.062   2.840  0.00  0.00     0.399 P 
HETATM   38  O   UNK N   1      20.210  20.918   3.788  0.00  0.00    -0.631 OA
BRANCH  37  39
HETATM   39  O   UNK N   1      20.184  18.620   2.499  0.00  0.00    -0.307 OA
HETATM   40  H   UNK N   1      20.517  17.747   2.240  0.00  0.00     0.222 HD
ENDBRANCH  37  39
BRANCH  37  41
HETATM   41  O   UNK N   1      21.325  20.956   1.370  0.00  0.00    -0.307 OA
HETATM   42  H   UNK N   1      20.812  20.777   0.567  0.00  0.00     0.222 HD
ENDBRANCH  37  41
ENDBRANCH  36  37
ENDBRANCH  32  36
ENDBRANCH  31  32
ENDBRANCH  30  31
ENDBRANCH   1  30
TORSDOF 15
ENDMDL
MODEL 4
REMARK VINA RESULT:      -6.6      5.368      7.341
REMARK  15 active torsions:
REMARK  status: ('A' for Active; 'I' for Inactive)
REMARK    1  A    between atoms: C_4  and  C_1 
REMARK    2  A    between atoms: O_28  and  C_1 
REMARK    3  A    between atoms: C_6  and  O_19 
REMARK    4  A    between atoms: C_7  and  O_30 
REMARK    5  A    between atoms: N_11  and  C_8 
REMARK    6  A    between atoms: C_10  and  N_18 
REMARK    7  A    between atoms: P_32  and  O_20 
REMARK    8  A    between atoms: P_32  and  O_21 
REMARK    9  A    between atoms: P_33  and  O_23 
REMARK   10  A    between atoms: P_33  and  O_24 
REMARK   11  A    between atoms: P_34  and  O_26 
REMARK   12  A    between atoms: P_34  and  O_28 
REMARK   13  A    between atoms: P_32  and  O_30 
REMARK   14  A    between atoms: P_33  and  O_31 
REMARK   15  A    between atoms: P_34  and  O_31 
ROOT
HETATM    1  C   UNK N   1      22.836  18.955   4.336  0.00  0.00     0.180 C 
HETATM    2  C   UNK N   1      24.312  20.304   3.213  0.00  0.00     0.199 C 
HETATM    3  C   UNK N   1      22.888  19.853   3.095  0.00  0.00     0.197 C 
HETATM    4  C   UNK N   1      24.909  18.911   3.421  0.00  0.00     0.262 C 
HETATM    5  O   UNK N   1      24.102  18.296   4.417  0.00  0.00    -0.353 OA
ENDROOT
BRANCH   4   6
HETATM    6  N   UNK N   1      26.342  18.907   3.729  0.00  0.00    -0.297 N 
HETATM    7  C   UNK N   1      27.158  19.953   4.023  0.00  0.00     0.188 A 
HETATM    8  N   UNK N   1      28.405  19.522   4.380  0.00  0.00    -0.346 N 
HETATM    9  C   UNK N   1      28.331  18.180   4.305  0.00  0.00     0.122 A 
ATOM     10  HN  UNK N   1      29.211  20.090   4.644  1.00  0.00     0.167 HD
HETATM   11  C   UNK N   1      29.278  17.207   4.603  0.00  0.00     0.131 A 
HETATM   12  C   UNK N   1      27.099  17.814   3.906  0.00  0.00     0.142 A 
HETATM   13  N   UNK N   1      28.918  15.895   4.459  0.00  0.00    -0.337 N 
HETATM   14  C   UNK N   1      27.656  15.551   4.041  0.00  0.00     0.183 A 
ATOM     15  HN  UNK N   1      29.597  15.163   4.666  1.00  0.00     0.168 HD
HETATM   16  N   UNK N   1      26.730  16.519   3.773  0.00  0.00    -0.336 N 
ATOM     17  HN  UNK N   1      25.784  16.272   3.482  1.00  0.00     0.168 HD
BRANCH  11  18
HETATM   18  N   UNK N   1      30.563  17.549   5.066  0.00  0.00    -0.383 N 
HETATM   19  H   UNK N   1      30.786  18.488   5.261  0.00  0.00     0.157 HD
HETATM   20  H   UNK N   1      31.241  16.847   5.197  0.00  0.00     0.157 HD
ENDBRANCH  11  18
ENDBRANCH   4   6
BRANCH   2  21
HETATM   21  O   UNK N   1      24.755  20.945   2.057  0.00  0.00    -0.388 OA
HETATM   22  H   UNK N   1      25.659  21.291   2.000  0.00  0.00     0.210 HD
ENDBRANCH   2  21
BRANCH   3  23
HETATM   23  O   UNK N   1      21.962  20.913   3.111  0.00  0.00    -0.286 OA
BRANCH  23  24
HETATM   24  P   UNK N   1      21.071  20.922   1.595  0.00  0.00     0.391 P 
HETATM   25  O   UNK N   1      22.085  20.548   0.488  0.00  0.00    -0.632 OA
BRANCH  24  26
HETATM   26  O   UNK N   1      20.415  22.473   1.155  0.00  0.00    -0.307 OA
HETATM   27  H   UNK N   1      20.410  23.411   0.907  0.00  0.00     0.222 HD
ENDBRANCH  24  26
BRANCH  24  28
HETATM   28  O   UNK N   1      19.835  19.706   1.553  0.00  0.00    -0.307 OA
HETATM   29  H   UNK N   1      19.618  19.206   2.355  0.00  0.00     0.222 HD
ENDBRANCH  24  28
ENDBRANCH  23  24
ENDBRANCH   3  23
BRANCH   1  30
HETATM   30  C   UNK N   1      21.668  17.971   4.236  0.00  0.00     0.215 C 
BRANCH  30  31
HETATM   31  O   UNK N   1      21.420  17.615   2.910  0.00  0.00    -0.294 OA
BRANCH  31  32
HETATM   32  P   UNK N   1      21.627  15.883   2.791  0.00  0.00     0.401 P 
HETATM   33  O   UNK N   1      23.149  15.582   2.863  0.00  0.00    -0.631 OA
BRANCH  32  34
HETATM   34  O   UNK N   1      20.949  15.157   4.214  0.00  0.00    -0.307 OA
HETATM   35  H   UNK N   1      20.055  15.101   4.585  0.00  0.00     0.222 HD
ENDBRANCH  32  34
BRANCH  32  36
HETATM   36  O   UNK N   1      20.901  15.136   1.374  0.00  0.00    -0.195 OA
BRANCH  36  37
HETATM   37  P   UNK N   1      19.688  16.202   0.699  0.00  0.00     0.399 P 
HETATM   38  O   UNK N   1      20.389  17.190  -0.270  0.00  0.00    -0.631 OA
BRANCH  37  39
HETATM   39  O   UNK N   1      18.974  17.171   1.953  0.00  0.00    -0.307 OA
HETATM   40  H   UNK N   1      19.388  17.503   2.765  0.00  0.00     0.222 HD
ENDBRANCH  37  39
BRANCH  37  41
HETATM   41  O   UNK N   1      18.435  15.384  -0.180  0.00  0.00    -0.307 OA
HETATM   42  H   UNK N   1      18.282  15.535  -1.126  0.00  0.00     0.222 HD
ENDBRANCH  37  41
ENDBRANCH  36  37
ENDBRANCH  32  36
ENDBRANCH  31  32
ENDBRANCH  30  31
ENDBRANCH   1  30
TORSDOF 15
ENDMDL
MODEL 5
REMARK VINA RESULT:      -6.5      1.379      2.481
REMARK  15 active torsions:
REMARK  status: ('A' for Active; 'I' for Inactive)
REMARK    1  A    between atoms: C_4  and  C_1 
REMARK    2  A    between atoms: O_28  and  C_1 
REMARK    3  A    between atoms: C_6  and  O_19 
REMARK    4  A    between atoms: C_7  and  O_30 
REMARK    5  A    between atoms: N_11  and  C_8 
REMARK    6  A    between atoms: C_10  and  N_18 
REMARK    7  A    between atoms: P_32  and  O_20 
REMARK    8  A    between atoms: P_32  and  O_21 
REMARK    9  A    between atoms: P_33  and  O_23 
REMARK   10  A    between atoms: P_33  and  O_24 
REMARK   11  A    between atoms: P_34  and  O_26 
REMARK   12  A    between atoms: P_34  and  O_28 
REMARK   13  A    between atoms: P_32  and  O_30 
REMARK   14  A    between atoms: P_33  and  O_31 
REMARK   15  A    between atoms: P_34  and  O_31 
ROOT
HETATM    1  C   UNK N   1      22.940  14.567   5.309  0.00  0.00     0.180 C 
HETATM    2  C   UNK N   1      21.809  12.974   6.507  0.00  0.00     0.199 C 
HETATM    3  C   UNK N   1      21.540  13.953   5.407  0.00  0.00     0.197 C 
HETATM    4  C   UNK N   1      22.494  13.966   7.447  0.00  0.00     0.262 C 
HETATM    5  O   UNK N   1      23.441  14.659   6.644  0.00  0.00    -0.353 OA
ENDROOT
BRANCH   4   6
HETATM    6  N   UNK N   1      23.067  13.362   8.654  0.00  0.00    -0.297 N 
HETATM    7  C   UNK N   1      24.370  13.254   9.021  0.00  0.00     0.188 A 
HETATM    8  N   UNK N   1      24.488  12.741  10.283  0.00  0.00    -0.346 N 
HETATM    9  C   UNK N   1      23.218  12.544  10.685  0.00  0.00     0.122 A 
ATOM     10  HN  UNK N   1      25.344  12.549  10.803  1.00  0.00     0.167 HD
HETATM   11  C   UNK N   1      22.716  12.088  11.898  0.00  0.00     0.131 A 
HETATM   12  C   UNK N   1      22.369  12.906   9.705  0.00  0.00     0.142 A 
HETATM   13  N   UNK N   1      21.359  12.011  12.044  0.00  0.00    -0.337 N 
HETATM   14  C   UNK N   1      20.517  12.379  11.024  0.00  0.00     0.183 A 
ATOM     15  HN  UNK N   1      20.967  11.674  12.924  1.00  0.00     0.168 HD
HETATM   16  N   UNK N   1      21.025  12.845   9.844  0.00  0.00    -0.336 N 
ATOM     17  HN  UNK N   1      20.407  13.140   9.089  1.00  0.00     0.168 HD
BRANCH  11  18
HETATM   18  N   UNK N   1      23.571  11.742  12.963  0.00  0.00    -0.383 N 
HETATM   19  H   UNK N   1      23.916  10.823  13.043  0.00  0.00     0.157 HD
HETATM   20  H   UNK N   1      23.824  12.420  13.630  0.00  0.00     0.157 HD
ENDBRANCH  11  18
ENDBRANCH   4   6
BRANCH   2  21
HETATM   21  O   UNK N   1      20.633  12.426   7.019  0.00  0.00    -0.388 OA
HETATM   22  H   UNK N   1      20.354  12.618   7.928  0.00  0.00     0.210 HD
ENDBRANCH   2  21
BRANCH   3  23
HETATM   23  O   UNK N   1      21.089  13.349   4.217  0.00  0.00    -0.286 OA
BRANCH  23  24
HETATM   24  P   UNK N   1      19.441  13.870   3.895  0.00  0.00     0.391 P 
HETATM   25  O   UNK N   1      18.821  14.237   5.264  0.00  0.00    -0.632 OA
BRANCH  24  26
HETATM   26  O   UNK N   1      18.419  12.640   3.208  0.00  0.00    -0.307 OA
HETATM   27  H   UNK N   1      18.074  12.025   2.542  0.00  0.00     0.222 HD
ENDBRANCH  24  26
BRANCH  24  28
HETATM   28  O   UNK N   1      19.385  15.313   2.934  0.00  0.00    -0.307 OA
HETATM   29  H   UNK N   1      19.574  16.173   3.338  0.00  0.00     0.222 HD
ENDBRANCH  24  28
ENDBRANCH  23  24
ENDBRANCH   3  23
BRANCH   1  30
HETATM   30  C   UNK N   1      22.880  15.927   4.609  0.00  0.00     0.215 C 
BRANCH  30  31
HETATM   31  O   UNK N   1      22.476  16.931   5.490  0.00  0.00    -0.294 OA
BRANCH  31  32
HETATM   32  P   UNK N   1      21.289  17.906   4.656  0.00  0.00     0.401 P 
HETATM   33  O   UNK N   1      19.902  17.236   4.855  0.00  0.00    -0.631 OA
BRANCH  32  34
HETATM   34  O   UNK N   1      21.179  19.437   5.465  0.00  0.00    -0.307 OA
HETATM   35  H   UNK N   1      21.728  20.236   5.480  0.00  0.00     0.222 HD
ENDBRANCH  32  34
BRANCH  32  36
HETATM   36  O   UNK N   1      21.615  18.189   2.951  0.00  0.00    -0.195 OA
BRANCH  36  37
HETATM   37  P   UNK N   1      20.342  19.175   2.263  0.00  0.00     0.399 P 
HETATM   38  O   UNK N   1      20.209  20.467   3.112  0.00  0.00    -0.631 OA
BRANCH  37  39
HETATM   39  O   UNK N   1      18.815  18.354   2.379  0.00  0.00    -0.307 OA
HETATM   40  H   UNK N   1      17.950  18.642   2.048  0.00  0.00     0.222 HD
ENDBRANCH  37  39
BRANCH  37  41
HETATM   41  O   UNK N   1      20.620  19.642   0.614  0.00  0.00    -0.307 OA
HETATM   42  H   UNK N   1      19.991  19.438  -0.096  0.00  0.00     0.222 HD
ENDBRANCH  37  41
ENDBRANCH  36  37
ENDBRANCH  32  36
ENDBRANCH  31  32
ENDBRANCH  30  31
ENDBRANCH   1  30
TORSDOF 15
ENDMDL
MODEL 6
REMARK VINA RESULT:      -6.5     11.508     14.066
REMARK  15 active torsions:
REMARK  status: ('A' for Active; 'I' for Inactive)
REMARK    1  A    between atoms: C_4  and  C_1 
REMARK    2  A    between atoms: O_28  and  C_1 
REMARK    3  A    between atoms: C_6  and  O_19 
REMARK    4  A    between atoms: C_7  and  O_30 
REMARK    5  A    between atoms: N_11  and  C_8 
REMARK    6  A    between atoms: C_10  and  N_18 
REMARK    7  A    between atoms: P_32  and  O_20 
REMARK    8  A    between atoms: P_32  and  O_21 
REMARK    9  A    between atoms: P_33  and  O_23 
REMARK   10  A    between atoms: P_33  and  O_24 
REMARK   11  A    between atoms: P_34  and  O_26 
REMARK   12  A    between atoms: P_34  and  O_28 
REMARK   13  A    between atoms: P_32  and  O_30 
REMARK   14  A    between atoms: P_33  and  O_31 
REMARK   15  A    between atoms: P_34  and  O_31 
ROOT
HETATM    1  C   UNK N   1      33.718  14.658   9.688  0.00  0.00     0.180 C 
HETATM    2  C   UNK N   1      35.638  15.354  10.731  0.00  0.00     0.199 C 
HETATM    3  C   UNK N   1      34.744  15.793   9.613  0.00  0.00     0.197 C 
HETATM    4  C   UNK N   1      35.772  13.901  10.273  0.00  0.00     0.262 C 
HETATM    5  O   UNK N   1      34.448  13.467   9.991  0.00  0.00    -0.353 OA
ENDROOT
BRANCH   4   6
HETATM    6  N   UNK N   1      36.496  13.035  11.210  0.00  0.00    -0.297 N 
HETATM    7  C   UNK N   1      37.827  12.773  11.278  0.00  0.00     0.188 A 
HETATM    8  N   UNK N   1      38.126  12.015  12.376  0.00  0.00    -0.346 N 
HETATM    9  C   UNK N   1      36.941  11.826  12.986  0.00  0.00     0.122 A 
ATOM     10  HN  UNK N   1      39.041  11.670  12.668  1.00  0.00     0.167 HD
HETATM   11  C   UNK N   1      36.632  11.174  14.174  0.00  0.00     0.131 A 
HETATM   12  C   UNK N   1      35.965  12.428  12.281  0.00  0.00     0.142 A 
HETATM   13  N   UNK N   1      35.325  11.158  14.577  0.00  0.00    -0.337 N 
HETATM   14  C   UNK N   1      34.349  11.773  13.833  0.00  0.00     0.183 A 
ATOM     15  HN  UNK N   1      35.073  10.680  15.443  1.00  0.00     0.168 HD
HETATM   16  N   UNK N   1      34.671  12.428  12.678  0.00  0.00    -0.336 N 
ATOM     17  HN  UNK N   1      33.956  12.906  12.130  1.00  0.00     0.168 HD
BRANCH  11  18
HETATM   18  N   UNK N   1      37.631  10.571  14.963  0.00  0.00    -0.383 N 
HETATM   19  H   UNK N   1      37.386   9.917  15.657  0.00  0.00     0.157 HD
HETATM   20  H   UNK N   1      38.576  10.803  14.819  0.00  0.00     0.157 HD
ENDBRANCH  11  18
ENDBRANCH   4   6
BRANCH   2  21
HETATM   21  O   UNK N   1      36.841  16.058  10.747  0.00  0.00    -0.388 OA
HETATM   22  H   UNK N   1      37.046  16.669  11.472  0.00  0.00     0.210 HD
ENDBRANCH   2  21
BRANCH   3  23
HETATM   23  O   UNK N   1      34.199  17.078   9.803  0.00  0.00    -0.286 OA
BRANCH  23  24
HETATM   24  P   UNK N   1      34.357  17.998   8.313  0.00  0.00     0.391 P 
HETATM   25  O   UNK N   1      32.947  18.540   7.981  0.00  0.00    -0.632 OA
BRANCH  24  26
HETATM   26  O   UNK N   1      34.856  17.056   6.936  0.00  0.00    -0.307 OA
HETATM   27  H   UNK N   1      34.771  16.468   6.169  0.00  0.00     0.222 HD
ENDBRANCH  24  26
BRANCH  24  28
HETATM   28  O   UNK N   1      35.380  19.385   8.502  0.00  0.00    -0.307 OA
HETATM   29  H   UNK N   1      36.007  19.429   9.240  0.00  0.00     0.222 HD
ENDBRANCH  24  28
ENDBRANCH  23  24
ENDBRANCH   3  23
BRANCH   1  30
HETATM   30  C   UNK N   1      32.939  14.551   8.375  0.00  0.00     0.215 C 
BRANCH  30  31
HETATM   31  O   UNK N   1      33.783  14.225   7.313  0.00  0.00    -0.294 OA
BRANCH  31  32
HETATM   32  P   UNK N   1      32.851  14.382   5.843  0.00  0.00     0.401 P 
HETATM   33  O   UNK N   1      33.262  13.222   4.895  0.00  0.00    -0.631 OA
BRANCH  32  34
HETATM   34  O   UNK N   1      31.183  14.093   6.225  0.00  0.00    -0.307 OA
HETATM   35  H   UNK N   1      30.562  13.371   6.042  0.00  0.00     0.222 HD
ENDBRANCH  32  34
BRANCH  32  36
HETATM   36  O   UNK N   1      32.983  15.937   5.032  0.00  0.00    -0.195 OA
BRANCH  36  37
HETATM   37  P   UNK N   1      32.380  15.803   3.394  0.00  0.00     0.399 P 
HETATM   38  O   UNK N   1      33.583  15.550   2.448  0.00  0.00    -0.631 OA
BRANCH  37  39
HETATM   39  O   UNK N   1      31.669  17.307   2.890  0.00  0.00    -0.307 OA
HETATM   40  H   UNK N   1      31.994  17.930   2.222  0.00  0.00     0.222 HD
ENDBRANCH  37  39
BRANCH  37  41
HETATM   41  O   UNK N   1      31.235  14.519   3.163  0.00  0.00    -0.307 OA
HETATM   42  H   UNK N   1      30.281  14.645   3.291  0.00  0.00     0.222 HD
ENDBRANCH  37  41
ENDBRANCH  36  37
ENDBRANCH  32  36
ENDBRANCH  31  32
ENDBRANCH  30  31
ENDBRANCH   1  30
TORSDOF 15
ENDMDL
MODEL 7
REMARK VINA RESULT:      -6.4      9.327     11.743
REMARK  15 active torsions:
REMARK  status: ('A' for Active; 'I' for Inactive)
REMARK    1  A    between atoms: C_4  and  C_1 
REMARK    2  A    between atoms: O_28  and  C_1 
REMARK    3  A    between atoms: C_6  and  O_19 
REMARK    4  A    between atoms: C_7  and  O_30 
REMARK    5  A    between atoms: N_11  and  C_8 
REMARK    6  A    between atoms: C_10  and  N_18 
REMARK    7  A    between atoms: P_32  and  O_20 
REMARK    8  A    between atoms: P_32  and  O_21 
REMARK    9  A    between atoms: P_33  and  O_23 
REMARK   10  A    between atoms: P_33  and  O_24 
REMARK   11  A    between atoms: P_34  and  O_26 
REMARK   12  A    between atoms: P_34  and  O_28 
REMARK   13  A    between atoms: P_32  and  O_30 
REMARK   14  A    between atoms: P_33  and  O_31 
REMARK   15  A    between atoms: P_34  and  O_31 
ROOT
HETATM    1  C   UNK N   1      32.359  17.507   7.525  0.00  0.00     0.180 C 
HETATM    2  C   UNK N   1      34.399  16.538   7.129  0.00  0.00     0.199 C 
HETATM    3  C   UNK N   1      33.105  16.768   6.410  0.00  0.00     0.197 C 
HETATM    4  C   UNK N   1      33.778  15.977   8.409  0.00  0.00     0.262 C 
HETATM    5  O   UNK N   1      32.735  16.880   8.754  0.00  0.00    -0.353 OA
ENDROOT
BRANCH   4   6
HETATM    6  N   UNK N   1      34.737  15.734   9.491  0.00  0.00    -0.297 N 
HETATM    7  C   UNK N   1      35.405  16.632  10.261  0.00  0.00     0.188 A 
HETATM    8  N   UNK N   1      36.110  16.007  11.251  0.00  0.00    -0.346 N 
HETATM    9  C   UNK N   1      35.849  14.698  11.074  0.00  0.00     0.122 A 
ATOM     10  HN  UNK N   1      36.701  16.436  11.964  1.00  0.00     0.167 HD
HETATM   11  C   UNK N   1      36.251  13.591  11.812  0.00  0.00     0.131 A 
HETATM   12  C   UNK N   1      35.036  14.536  10.014  0.00  0.00     0.142 A 
HETATM   13  N   UNK N   1      35.809  12.359  11.414  0.00  0.00    -0.337 N 
HETATM   14  C   UNK N   1      34.986  12.222  10.324  0.00  0.00     0.183 A 
ATOM     15  HN  UNK N   1      36.095  11.531  11.937  1.00  0.00     0.168 HD
HETATM   16  N   UNK N   1      34.583  13.323   9.621  0.00  0.00    -0.336 N 
ATOM     17  HN  UNK N   1      33.956  13.233   8.822  1.00  0.00     0.168 HD
BRANCH  11  18
HETATM   18  N   UNK N   1      37.066  13.724  12.953  0.00  0.00    -0.383 N 
HETATM   19  H   UNK N   1      36.755  14.253  13.724  0.00  0.00     0.157 HD
HETATM   20  H   UNK N   1      37.947  13.288  12.981  0.00  0.00     0.157 HD
ENDBRANCH  11  18
ENDBRANCH   4   6
BRANCH   2  21
HETATM   21  O   UNK N   1      35.220  15.636   6.453  0.00  0.00    -0.388 OA
HETATM   22  H   UNK N   1      35.077  14.680   6.538  0.00  0.00     0.210 HD
ENDBRANCH   2  21
BRANCH   3  23
HETATM   23  O   UNK N   1      33.249  17.509   5.221  0.00  0.00    -0.286 OA
BRANCH  23  24
HETATM   24  P   UNK N   1      32.447  16.657   3.909  0.00  0.00     0.391 P 
HETATM   25  O   UNK N   1      31.991  15.296   4.485  0.00  0.00    -0.632 OA
BRANCH  24  26
HETATM   26  O   UNK N   1      33.476  16.295   2.552  0.00  0.00    -0.307 OA
HETATM   27  H   UNK N   1      33.780  15.847   1.748  0.00  0.00     0.222 HD
ENDBRANCH  24  26
BRANCH  24  28
HETATM   28  O   UNK N   1      31.008  17.468   3.381  0.00  0.00    -0.307 OA
HETATM   29  H   UNK N   1      30.172  16.982   3.320  0.00  0.00     0.222 HD
ENDBRANCH  24  28
ENDBRANCH  23  24
ENDBRANCH   3  23
BRANCH   1  30
HETATM   30  C   UNK N   1      30.849  17.460   7.282  0.00  0.00     0.215 C 
BRANCH  30  31
HETATM   31  O   UNK N   1      30.140  17.758   8.446  0.00  0.00    -0.294 OA
BRANCH  31  32
HETATM   32  P   UNK N   1      28.485  18.072   7.979  0.00  0.00     0.401 P 
HETATM   33  O   UNK N   1      28.034  16.924   7.034  0.00  0.00    -0.631 OA
BRANCH  32  34
HETATM   34  O   UNK N   1      27.485  17.922   9.390  0.00  0.00    -0.307 OA
HETATM   35  H   UNK N   1      27.210  17.179   9.949  0.00  0.00     0.222 HD
ENDBRANCH  32  34
BRANCH  32  36
HETATM   36  O   UNK N   1      28.196  19.644   7.246  0.00  0.00    -0.195 OA
BRANCH  36  37
HETATM   37  P   UNK N   1      27.584  19.434   5.619  0.00  0.00     0.399 P 
HETATM   38  O   UNK N   1      27.236  20.831   5.043  0.00  0.00    -0.631 OA
BRANCH  37  39
HETATM   39  O   UNK N   1      26.098  18.532   5.647  0.00  0.00    -0.307 OA
HETATM   40  H   UNK N   1      25.205  18.839   5.429  0.00  0.00     0.222 HD
ENDBRANCH  37  39
BRANCH  37  41
HETATM   41  O   UNK N   1      28.702  18.668   4.534  0.00  0.00    -0.307 OA
HETATM   42  H   UNK N   1      28.452  18.402   3.635  0.00  0.00     0.222 HD
ENDBRANCH  37  41
ENDBRANCH  36  37
ENDBRANCH  32  36
ENDBRANCH  31  32
ENDBRANCH  30  31
ENDBRANCH   1  30
TORSDOF 15
ENDMDL
MODEL 8
REMARK VINA RESULT:      -6.4      4.274      6.119
REMARK  15 active torsions:
REMARK  status: ('A' for Active; 'I' for Inactive)
REMARK    1  A    between atoms: C_4  and  C_1 
REMARK    2  A    between atoms: O_28  and  C_1 
REMARK    3  A    between atoms: C_6  and  O_19 
REMARK    4  A    between atoms: C_7  and  O_30 
REMARK    5  A    between atoms: N_11  and  C_8 
REMARK    6  A    between atoms: C_10  and  N_18 
REMARK    7  A    between atoms: P_32  and  O_20 
REMARK    8  A    between atoms: P_32  and  O_21 
REMARK    9  A    between atoms: P_33  and  O_23 
REMARK   10  A    between atoms: P_33  and  O_24 
REMARK   11  A    between atoms: P_34  and  O_26 
REMARK   12  A    between atoms: P_34  and  O_28 
REMARK   13  A    between atoms: P_32  and  O_30 
REMARK   14  A    between atoms: P_33  and  O_31 
REMARK   15  A    between atoms: P_34  and  O_31 
ROOT
HETATM    1  C   UNK N   1      21.523  14.890   4.004  0.00  0.00     0.180 C 
HETATM    2  C   UNK N   1      23.140  15.119   5.613  0.00  0.00     0.199 C 
HETATM    3  C   UNK N   1      21.654  15.257   5.486  0.00  0.00     0.197 C 
HETATM    4  C   UNK N   1      23.489  15.952   4.379  0.00  0.00     0.262 C 
HETATM    5  O   UNK N   1      22.652  15.461   3.340  0.00  0.00    -0.353 OA
ENDROOT
BRANCH   4   6
HETATM    6  N   UNK N   1      24.915  15.964   4.040  0.00  0.00    -0.297 N 
HETATM    7  C   UNK N   1      25.614  15.108   3.249  0.00  0.00     0.188 A 
HETATM    8  N   UNK N   1      26.901  15.534   3.075  0.00  0.00    -0.346 N 
HETATM    9  C   UNK N   1      26.972  16.682   3.776  0.00  0.00     0.122 A 
ATOM     10  HN  UNK N   1      27.642  15.084   2.537  1.00  0.00     0.167 HD
HETATM   11  C   UNK N   1      28.019  17.584   3.924  0.00  0.00     0.131 A 
HETATM   12  C   UNK N   1      25.786  16.932   4.360  0.00  0.00     0.142 A 
HETATM   13  N   UNK N   1      27.802  18.700   4.685  0.00  0.00    -0.337 N 
HETATM   14  C   UNK N   1      26.584  18.926   5.277  0.00  0.00     0.183 A 
ATOM     15  HN  UNK N   1      28.557  19.374   4.813  1.00  0.00     0.168 HD
HETATM   16  N   UNK N   1      25.558  18.040   5.103  0.00  0.00    -0.336 N 
ATOM     17  HN  UNK N   1      24.643  18.209   5.523  1.00  0.00     0.168 HD
BRANCH  11  18
HETATM   18  N   UNK N   1      29.261  17.380   3.292  0.00  0.00    -0.383 N 
HETATM   19  H   UNK N   1      29.322  16.808   2.492  0.00  0.00     0.157 HD
HETATM   20  H   UNK N   1      30.070  17.811   3.650  0.00  0.00     0.157 HD
ENDBRANCH  11  18
ENDBRANCH   4   6
BRANCH   2  21
HETATM   21  O   UNK N   1      23.615  15.652   6.812  0.00  0.00    -0.388 OA
HETATM   22  H   UNK N   1      24.351  15.231   7.282  0.00  0.00     0.210 HD
ENDBRANCH   2  21
BRANCH   3  23
HETATM   23  O   UNK N   1      20.937  14.412   6.356  0.00  0.00    -0.286 OA
BRANCH  23  24
HETATM   24  P   UNK N   1      20.166  15.388   7.599  0.00  0.00     0.391 P 
HETATM   25  O   UNK N   1      18.837  15.898   6.994  0.00  0.00    -0.632 OA
BRANCH  24  26
HETATM   26  O   UNK N   1      21.066  16.803   8.065  0.00  0.00    -0.307 OA
HETATM   27  H   UNK N   1      21.831  17.392   8.160  0.00  0.00     0.222 HD
ENDBRANCH  24  26
BRANCH  24  28
HETATM   28  O   UNK N   1      19.737  14.453   8.996  0.00  0.00    -0.307 OA
HETATM   29  H   UNK N   1      18.983  14.719   9.545  0.00  0.00     0.222 HD
ENDBRANCH  24  28
ENDBRANCH  23  24
ENDBRANCH   3  23
BRANCH   1  30
HETATM   30  C   UNK N   1      20.193  15.397   3.443  0.00  0.00     0.215 C 
BRANCH  30  31
HETATM   31  O   UNK N   1      19.897  16.674   3.921  0.00  0.00    -0.294 OA
BRANCH  31  32
HETATM   32  P   UNK N   1      20.159  17.794   2.604  0.00  0.00     0.401 P 
HETATM   33  O   UNK N   1      20.226  16.970   1.288  0.00  0.00    -0.631 OA
BRANCH  32  34
HETATM   34  O   UNK N   1      18.746  18.790   2.449  0.00  0.00    -0.307 OA
HETATM   35  H   UNK N   1      18.445  19.607   2.874  0.00  0.00     0.222 HD
ENDBRANCH  32  34
BRANCH  32  36
HETATM   36  O   UNK N   1      21.568  18.833   2.770  0.00  0.00    -0.195 OA
BRANCH  36  37
HETATM   37  P   UNK N   1      21.083  20.511   2.648  0.00  0.00     0.399 P 
HETATM   38  O   UNK N   1      20.078  20.814   3.791  0.00  0.00    -0.631 OA
BRANCH  37  39
HETATM   39  O   UNK N   1      20.227  20.783   1.160  0.00  0.00    -0.307 OA
HETATM   40  H   UNK N   1      20.573  20.755   0.255  0.00  0.00     0.222 HD
ENDBRANCH  37  39
BRANCH  37  41
HETATM   41  O   UNK N   1      22.396  21.639   2.773  0.00  0.00    -0.307 OA
HETATM   42  H   UNK N   1      23.152  21.491   3.362  0.00  0.00     0.222 HD
ENDBRANCH  37  41
ENDBRANCH  36  37
ENDBRANCH  32  36
ENDBRANCH  31  32
ENDBRANCH  30  31
ENDBRANCH   1  30
TORSDOF 15
ENDMDL
MODEL 9
REMARK VINA RESULT:      -6.4      8.903     11.187
REMARK  15 active torsions:
REMARK  status: ('A' for Active; 'I' for Inactive)
REMARK    1  A    between atoms: C_4  and  C_1 
REMARK    2  A    between atoms: O_28  and  C_1 
REMARK    3  A    between atoms: C_6  and  O_19 
REMARK    4  A    between atoms: C_7  and  O_30 
REMARK    5  A    between atoms: N_11  and  C_8 
REMARK    6  A    between atoms: C_10  and  N_18 
REMARK    7  A    between atoms: P_32  and  O_20 
REMARK    8  A    between atoms: P_32  and  O_21 
REMARK    9  A    between atoms: P_33  and  O_23 
REMARK   10  A    between atoms: P_33  and  O_24 
REMARK   11  A    between atoms: P_34  and  O_26 
REMARK   12  A    between atoms: P_34  and  O_28 
REMARK   13  A    between atoms: P_32  and  O_30 
REMARK   14  A    between atoms: P_33  and  O_31 
REMARK   15  A    between atoms: P_34  and  O_31 
ROOT
HETATM    1  C   UNK N   1      32.012  17.108   7.902  0.00  0.00     0.180 C 
HETATM    2  C   UNK N   1      33.393  15.506   7.016  0.00  0.00     0.199 C 
HETATM    3  C   UNK N   1      32.215  16.330   6.598  0.00  0.00     0.197 C 
HETATM    4  C   UNK N   1      32.796  15.028   8.341  0.00  0.00     0.262 C 
HETATM    5  O   UNK N   1      32.279  16.194   8.968  0.00  0.00    -0.353 OA
ENDROOT
BRANCH   4   6
HETATM    6  N   UNK N   1      33.722  14.261   9.180  0.00  0.00    -0.297 N 
HETATM    7  C   UNK N   1      34.022  12.937   9.133  0.00  0.00     0.188 A 
HETATM    8  N   UNK N   1      35.034  12.628  10.000  0.00  0.00    -0.346 N 
HETATM    9  C   UNK N   1      35.353  13.803  10.575  0.00  0.00     0.122 A 
ATOM     10  HN  UNK N   1      35.452  11.714  10.173  1.00  0.00     0.167 HD
HETATM   11  C   UNK N   1      36.343  14.115  11.499  0.00  0.00     0.131 A 
HETATM   12  C   UNK N   1      34.561  14.777  10.090  0.00  0.00     0.142 A 
HETATM   13  N   UNK N   1      36.463  15.418  11.897  0.00  0.00    -0.337 N 
HETATM   14  C   UNK N   1      35.635  16.390  11.393  0.00  0.00     0.183 A 
ATOM     15  HN  UNK N   1      37.179  15.670  12.579  1.00  0.00     0.168 HD
HETATM   16  N   UNK N   1      34.680  16.071  10.468  0.00  0.00    -0.336 N 
ATOM     17  HN  UNK N   1      34.074  16.789  10.073  1.00  0.00     0.168 HD
BRANCH  11  18
HETATM   18  N   UNK N   1      37.221  13.132  11.996  0.00  0.00    -0.383 N 
HETATM   19  H   UNK N   1      37.221  12.905  12.954  0.00  0.00     0.157 HD
HETATM   20  H   UNK N   1      37.838  12.669  11.383  0.00  0.00     0.157 HD
ENDBRANCH  11  18
ENDBRANCH   4   6
BRANCH   2  21
HETATM   21  O   UNK N   1      33.661  14.480   6.111  0.00  0.00    -0.388 OA
HETATM   22  H   UNK N   1      33.264  13.602   6.227  0.00  0.00     0.210 HD
ENDBRANCH   2  21
BRANCH   3  23
HETATM   23  O   UNK N   1      32.470  17.142   5.475  0.00  0.00    -0.286 OA
BRANCH  23  24
HETATM   24  P   UNK N   1      31.444  16.623   4.144  0.00  0.00     0.391 P 
HETATM   25  O   UNK N   1      31.675  15.103   3.980  0.00  0.00    -0.632 OA
BRANCH  24  26
HETATM   26  O   UNK N   1      31.836  17.347   2.610  0.00  0.00    -0.307 OA
HETATM   27  H   UNK N   1      32.230  17.428   1.728  0.00  0.00     0.222 HD
ENDBRANCH  24  26
BRANCH  24  28
HETATM   28  O   UNK N   1      29.758  16.824   4.497  0.00  0.00    -0.307 OA
HETATM   29  H   UNK N   1      29.415  16.590   5.373  0.00  0.00     0.222 HD
ENDBRANCH  24  28
ENDBRANCH  23  24
ENDBRANCH   3  23
BRANCH   1  30
HETATM   30  C   UNK N   1      30.598  17.687   7.967  0.00  0.00     0.215 C 
BRANCH  30  31
HETATM   31  O   UNK N   1      29.665  16.804   7.423  0.00  0.00    -0.294 OA
BRANCH  31  32
HETATM   32  P   UNK N   1      28.100  17.578   7.518  0.00  0.00     0.401 P 
HETATM   33  O   UNK N   1      27.225  17.020   6.362  0.00  0.00    -0.631 OA
BRANCH  32  34
HETATM   34  O   UNK N   1      27.322  17.053   8.977  0.00  0.00    -0.307 OA
HETATM   35  H   UNK N   1      26.673  17.448   9.578  0.00  0.00     0.222 HD
ENDBRANCH  32  34
BRANCH  32  36
HETATM   36  O   UNK N   1      28.130  19.336   7.495  0.00  0.00    -0.195 OA
BRANCH  36  37
HETATM   37  P   UNK N   1      27.491  19.918   5.972  0.00  0.00     0.399 P 
HETATM   38  O   UNK N   1      27.559  21.468   5.973  0.00  0.00    -0.631 OA
BRANCH  37  39
HETATM   39  O   UNK N   1      25.810  19.503   5.827  0.00  0.00    -0.307 OA
HETATM   40  H   UNK N   1      25.377  18.985   5.131  0.00  0.00     0.222 HD
ENDBRANCH  37  39
BRANCH  37  41
HETATM   41  O   UNK N   1      28.349  19.343   4.577  0.00  0.00    -0.307 OA
HETATM   42  H   UNK N   1      29.310  19.440   4.482  0.00  0.00     0.222 HD
ENDBRANCH  37  41
ENDBRANCH  36  37
ENDBRANCH  32  36
ENDBRANCH  31  32
ENDBRANCH  30  31
ENDBRANCH   1  30
TORSDOF 15
ENDMDL
