MODEL 1
REMARK VINA RESULT:      -5.6      0.000      0.000
REMARK  2 active torsions:
REMARK  status: ('A' for Active; 'I' for Inactive)
REMARK    1  A    between atoms: N_2  and  C_3 
REMARK    2  A    between atoms: C_3  and  C_11 
ROOT
HETATM    1  C   UNK N   1      32.017  16.439   7.517  0.00  0.00     0.193 C 
HETATM    2  C   UNK N   1      31.693  15.150   6.729  0.00  0.00     0.047 C 
HETATM    3  C   UNK N   1      32.589  17.493   6.531  0.00  0.00     0.047 C 
HETATM    4  C   UNK N   1      32.896  14.630   5.947  0.00  0.00     0.003 C 
HETATM    5  C   UNK N   1      33.768  16.957   5.712  0.00  0.00     0.003 C 
HETATM    6  C   UNK N   1      33.368  15.691   4.962  0.00  0.00     0.000 C 
ENDROOT
BRANCH   1   7
HETATM    7  N   UNK N   1      30.766  16.933   8.144  0.00  0.00     0.103 N 
HETATM    8  C   UNK N   1      29.641  17.011   7.203  0.00  0.00     0.274 C 
HETATM    9  C   UNK N   1      28.348  17.261   7.978  0.00  0.00     0.030 C 
HETATM   10  C   UNK N   1      28.465  18.545   8.801  0.00  0.00     0.003 C 
HETATM   11  C   UNK N   1      29.721  18.524   9.666  0.00  0.00     0.030 C 
HETATM   12  C   UNK N   1      30.933  18.243   8.785  0.00  0.00     0.274 C 
ENDBRANCH   1   7
BRANCH   1  13
HETATM   13  C   UNK N   1      32.999  16.096   8.626  0.00  0.00     0.021 A 
HETATM   14  S   UNK N   1      34.358  16.930   9.082  0.00  0.00    -0.104 SA
HETATM   15  C   UNK N   1      34.844  16.014  10.375  0.00  0.00     0.050 A 
HETATM   16  C   UNK N   1      33.903  14.981  10.490  0.00  0.00     0.008 A 
HETATM   17  C   UNK N   1      32.867  15.026   9.514  0.00  0.00     0.018 A 
ENDBRANCH   1  13
TORSDOF 2
ENDMDL
MODEL 2
REMARK VINA RESULT:      -5.5      3.330      6.156
REMARK  2 active torsions:
REMARK  status: ('A' for Active; 'I' for Inactive)
REMARK    1  A    between atoms: N_2  and  C_3 
REMARK    2  A    between atoms: C_3  and  C_11 
ROOT
HETATM    1  C   UNK N   1      29.142  17.262   5.122  0.00  0.00     0.193 C 
HETATM    2  C   UNK N   1      28.811  16.950   3.646  0.00  0.00     0.047 C 
HETATM    3  C   UNK N   1      28.717  16.049   5.993  0.00  0.00     0.047 C 
HETATM    4  C   UNK N   1      27.345  16.569   3.448  0.00  0.00     0.003 C 
HETATM    5  C   UNK N   1      27.260  15.638   5.762  0.00  0.00     0.003 C 
HETATM    6  C   UNK N   1      27.014  15.342   4.286  0.00  0.00     0.000 C 
ENDROOT
BRANCH   1   7
HETATM    7  N   UNK N   1      30.602  17.502   5.234  0.00  0.00     0.103 N 
HETATM    8  C   UNK N   1      31.350  17.073   4.045  0.00  0.00     0.274 C 
HETATM    9  C   UNK N   1      32.783  17.599   4.130  0.00  0.00     0.030 C 
HETATM   10  C   UNK N   1      33.454  17.099   5.410  0.00  0.00     0.003 C 
HETATM   11  C   UNK N   1      32.596  17.413   6.633  0.00  0.00     0.030 C 
HETATM   12  C   UNK N   1      31.192  16.861   6.416  0.00  0.00     0.274 C 
ENDBRANCH   1   7
BRANCH   1  13
HETATM   13  C   UNK N   1      28.420  18.539   5.522  0.00  0.00     0.021 A 
HETATM   14  S   UNK N   1      27.967  19.023   7.042  0.00  0.00    -0.104 SA
HETATM   15  C   UNK N   1      27.327  20.512   6.696  0.00  0.00     0.050 A 
HETATM   16  C   UNK N   1      27.463  20.678   5.311  0.00  0.00     0.008 A 
HETATM   17  C   UNK N   1      28.077  19.576   4.651  0.00  0.00     0.018 A 
ENDBRANCH   1  13
TORSDOF 2
ENDMDL
MODEL 3
REMARK VINA RESULT:      -5.4      1.522      3.771
REMARK  2 active torsions:
REMARK  status: ('A' for Active; 'I' for Inactive)
REMARK    1  A    between atoms: N_2  and  C_3 
REMARK    2  A    between atoms: C_3  and  C_11 
ROOT
HETATM    1  C   UNK N   1      32.279  17.083   7.599  0.00  0.00     0.193 C 
HETATM    2  C   UNK N   1      33.125  18.295   8.048  0.00  0.00     0.047 C 
HETATM    3  C   UNK N   1      32.485  15.929   8.617  0.00  0.00     0.047 C 
HETATM    4  C   UNK N   1      34.597  17.937   8.239  0.00  0.00     0.003 C 
HETATM    5  C   UNK N   1      33.964  15.599   8.844  0.00  0.00     0.003 C 
HETATM    6  C   UNK N   1      34.728  16.841   9.289  0.00  0.00     0.000 C 
ENDROOT
BRANCH   1   7
HETATM    7  N   UNK N   1      30.854  17.496   7.557  0.00  0.00     0.103 N 
HETATM    8  C   UNK N   1      30.337  17.922   8.864  0.00  0.00     0.274 C 
HETATM    9  C   UNK N   1      28.970  18.579   8.680  0.00  0.00     0.030 C 
HETATM   10  C   UNK N   1      28.005  17.607   7.999  0.00  0.00     0.003 C 
HETATM   11  C   UNK N   1      28.611  17.048   6.715  0.00  0.00     0.030 C 
HETATM   12  C   UNK N   1      29.976  16.446   7.025  0.00  0.00     0.274 C 
ENDBRANCH   1   7
BRANCH   1  13
HETATM   13  C   UNK N   1      32.700  16.692   6.192  0.00  0.00     0.021 A 
HETATM   14  S   UNK N   1      33.075  15.180   5.621  0.00  0.00    -0.104 SA
HETATM   15  C   UNK N   1      33.347  15.530   4.024  0.00  0.00     0.050 A 
HETATM   16  C   UNK N   1      33.136  16.910   3.890  0.00  0.00     0.008 A 
HETATM   17  C   UNK N   1      32.772  17.562   5.102  0.00  0.00     0.018 A 
ENDBRANCH   1  13
TORSDOF 2
ENDMDL
MODEL 4
REMARK VINA RESULT:      -5.3     15.395     16.981
REMARK  2 active torsions:
REMARK  status: ('A' for Active; 'I' for Inactive)
REMARK    1  A    between atoms: N_2  and  C_3 
REMARK    2  A    between atoms: C_3  and  C_11 
ROOT
HETATM    1  C   UNK N   1      27.309  26.270  -4.748  0.00  0.00     0.193 C 
HETATM    2  C   UNK N   1      27.974  26.278  -6.142  0.00  0.00     0.047 C 
HETATM    3  C   UNK N   1      25.859  25.736  -4.892  0.00  0.00     0.047 C 
HETATM    4  C   UNK N   1      27.158  27.062  -7.169  0.00  0.00     0.003 C 
HETATM    5  C   UNK N   1      25.054  26.491  -5.954  0.00  0.00     0.003 C 
HETATM    6  C   UNK N   1      25.770  26.449  -7.299  0.00  0.00     0.000 C 
ENDROOT
BRANCH   1   7
HETATM    7  N   UNK N   1      28.105  25.392  -3.854  0.00  0.00     0.103 N 
HETATM    8  C   UNK N   1      29.416  25.038  -4.412  0.00  0.00     0.274 C 
HETATM    9  C   UNK N   1      30.265  24.371  -3.331  0.00  0.00     0.030 C 
HETATM   10  C   UNK N   1      29.549  23.135  -2.784  0.00  0.00     0.003 C 
HETATM   11  C   UNK N   1      28.129  23.478  -2.345  0.00  0.00     0.030 C 
HETATM   12  C   UNK N   1      27.397  24.156  -3.498  0.00  0.00     0.274 C 
ENDBRANCH   1   7
BRANCH   1  13
HETATM   13  C   UNK N   1      27.350  27.681  -4.183  0.00  0.00     0.021 A 
HETATM   14  S   UNK N   1      28.658  28.693  -4.054  0.00  0.00    -0.104 SA
HETATM   15  C   UNK N   1      27.922  30.045  -3.437  0.00  0.00     0.050 A 
HETATM   16  C   UNK N   1      26.564  29.722  -3.314  0.00  0.00     0.008 A 
HETATM   17  C   UNK N   1      26.240  28.400  -3.734  0.00  0.00     0.018 A 
ENDBRANCH   1  13
TORSDOF 2
ENDMDL
MODEL 5
REMARK VINA RESULT:      -5.3     15.838     17.560
REMARK  2 active torsions:
REMARK  status: ('A' for Active; 'I' for Inactive)
REMARK    1  A    between atoms: N_2  and  C_3 
REMARK    2  A    between atoms: C_3  and  C_11 
ROOT
HETATM    1  C   UNK N   1      27.669  26.796  -4.835  0.00  0.00     0.193 C 
HETATM    2  C   UNK N   1      26.528  26.721  -3.797  0.00  0.00     0.047 C 
HETATM    3  C   UNK N   1      28.324  28.201  -4.752  0.00  0.00     0.047 C 
HETATM    4  C   UNK N   1      25.515  27.852  -3.964  0.00  0.00     0.003 C 
HETATM    5  C   UNK N   1      27.303  29.336  -4.874  0.00  0.00     0.003 C 
HETATM    6  C   UNK N   1      26.216  29.196  -3.815  0.00  0.00     0.000 C 
ENDROOT
BRANCH   1   7
HETATM    7  N   UNK N   1      28.660  25.736  -4.521  0.00  0.00     0.103 N 
HETATM    8  C   UNK N   1      28.110  24.664  -3.681  0.00  0.00     0.274 C 
HETATM    9  C   UNK N   1      29.098  23.499  -3.635  0.00  0.00     0.030 C 
HETATM   10  C   UNK N   1      30.451  23.974  -3.103  0.00  0.00     0.003 C 
HETATM   11  C   UNK N   1      30.947  25.187  -3.884  0.00  0.00     0.030 C 
HETATM   12  C   UNK N   1      29.868  26.264  -3.877  0.00  0.00     0.274 C 
ENDBRANCH   1   7
BRANCH   1  13
HETATM   13  C   UNK N   1      27.091  26.510  -6.212  0.00  0.00     0.021 A 
HETATM   14  S   UNK N   1      27.623  27.071  -7.680  0.00  0.00    -0.104 SA
HETATM   15  C   UNK N   1      26.573  26.284  -8.692  0.00  0.00     0.050 A 
HETATM   16  C   UNK N   1      25.739  25.520  -7.864  0.00  0.00     0.008 A 
HETATM   17  C   UNK N   1      26.028  25.643  -6.475  0.00  0.00     0.018 A 
ENDBRANCH   1  13
TORSDOF 2
ENDMDL
MODEL 6
REMARK VINA RESULT:      -5.1      1.863      4.642
REMARK  2 active torsions:
REMARK  status: ('A' for Active; 'I' for Inactive)
REMARK    1  A    between atoms: N_2  and  C_3 
REMARK    2  A    between atoms: C_3  and  C_11 
ROOT
HETATM    1  C   UNK N   1      32.630  16.395   7.204  0.00  0.00     0.193 C 
HETATM    2  C   UNK N   1      32.584  14.973   7.806  0.00  0.00     0.047 C 
HETATM    3  C   UNK N   1      33.968  17.065   7.616  0.00  0.00     0.047 C 
HETATM    4  C   UNK N   1      32.798  14.976   9.318  0.00  0.00     0.003 C 
HETATM    5  C   UNK N   1      34.206  17.028   9.129  0.00  0.00     0.003 C 
HETATM    6  C   UNK N   1      34.151  15.595   9.645  0.00  0.00     0.000 C 
ENDROOT
BRANCH   1   7
HETATM    7  N   UNK N   1      32.533  16.282   5.727  0.00  0.00     0.103 N 
HETATM    8  C   UNK N   1      33.205  15.090   5.194  0.00  0.00     0.274 C 
HETATM    9  C   UNK N   1      32.828  14.909   3.725  0.00  0.00     0.030 C 
HETATM   10  C   UNK N   1      33.207  16.156   2.925  0.00  0.00     0.003 C 
HETATM   11  C   UNK N   1      32.632  17.413   3.571  0.00  0.00     0.030 C 
HETATM   12  C   UNK N   1      33.057  17.465   5.034  0.00  0.00     0.274 C 
ENDBRANCH   1   7
BRANCH   1  13
HETATM   13  C   UNK N   1      31.420  17.171   7.700  0.00  0.00     0.021 A 
HETATM   14  S   UNK N   1      29.830  16.967   7.273  0.00  0.00    -0.104 SA
HETATM   15  C   UNK N   1      29.116  18.089   8.262  0.00  0.00     0.050 A 
HETATM   16  C   UNK N   1      30.157  18.679   8.992  0.00  0.00     0.008 A 
HETATM   17  C   UNK N   1      31.449  18.165   8.681  0.00  0.00     0.018 A 
ENDBRANCH   1  13
TORSDOF 2
ENDMDL
MODEL 7
REMARK VINA RESULT:      -5.1     16.080     17.571
REMARK  2 active torsions:
REMARK  status: ('A' for Active; 'I' for Inactive)
REMARK    1  A    between atoms: N_2  and  C_3 
REMARK    2  A    between atoms: C_3  and  C_11 
ROOT
HETATM    1  C   UNK N   1      26.953  26.073  -5.508  0.00  0.00     0.193 C 
HETATM    2  C   UNK N   1      26.594  27.417  -6.178  0.00  0.00     0.047 C 
HETATM    3  C   UNK N   1      26.082  25.903  -4.235  0.00  0.00     0.047 C 
HETATM    4  C   UNK N   1      26.723  28.598  -5.217  0.00  0.00     0.003 C 
HETATM    5  C   UNK N   1      26.175  27.107  -3.291  0.00  0.00     0.003 C 
HETATM    6  C   UNK N   1      25.801  28.391  -4.022  0.00  0.00     0.000 C 
ENDROOT
BRANCH   1   7
HETATM    7  N   UNK N   1      26.685  24.980  -6.476  0.00  0.00     0.103 N 
HETATM    8  C   UNK N   1      25.902  25.419  -7.639  0.00  0.00     0.274 C 
HETATM    9  C   UNK N   1      25.906  24.318  -8.699  0.00  0.00     0.030 C 
HETATM   10  C   UNK N   1      25.343  23.021  -8.116  0.00  0.00     0.003 C 
HETATM   11  C   UNK N   1      26.061  22.650  -6.821  0.00  0.00     0.030 C 
HETATM   12  C   UNK N   1      26.008  23.832  -5.861  0.00  0.00     0.274 C 
ENDBRANCH   1   7
BRANCH   1  13
HETATM   13  C   UNK N   1      28.440  26.070  -5.193  0.00  0.00     0.021 A 
HETATM   14  S   UNK N   1      29.673  26.752  -6.071  0.00  0.00    -0.104 SA
HETATM   15  C   UNK N   1      30.958  26.417  -5.080  0.00  0.00     0.050 A 
HETATM   16  C   UNK N   1      30.427  25.731  -3.978  0.00  0.00     0.008 A 
HETATM   17  C   UNK N   1      29.017  25.537  -4.038  0.00  0.00     0.018 A 
ENDBRANCH   1  13
TORSDOF 2
ENDMDL
MODEL 8
REMARK VINA RESULT:      -5.0      7.267     10.205
REMARK  2 active torsions:
REMARK  status: ('A' for Active; 'I' for Inactive)
REMARK    1  A    between atoms: N_2  and  C_3 
REMARK    2  A    between atoms: C_3  and  C_11 
ROOT
HETATM    1  C   UNK N   1      35.555  11.495  15.347  0.00  0.00     0.193 C 
HETATM    2  C   UNK N   1      36.667  10.464  15.057  0.00  0.00     0.047 C 
HETATM    3  C   UNK N   1      34.178  10.822  15.104  0.00  0.00     0.047 C 
HETATM    4  C   UNK N   1      36.548   9.859  13.660  0.00  0.00     0.003 C 
HETATM    5  C   UNK N   1      34.073  10.175  13.719  0.00  0.00     0.003 C 
HETATM    6  C   UNK N   1      35.199   9.168  13.512  0.00  0.00     0.000 C 
ENDROOT
BRANCH   1   7
HETATM    7  N   UNK N   1      35.680  11.937  16.759  0.00  0.00     0.103 N 
HETATM    8  C   UNK N   1      35.471  10.849  17.724  0.00  0.00     0.274 C 
HETATM    9  C   UNK N   1      35.882  11.321  19.117  0.00  0.00     0.030 C 
HETATM   10  C   UNK N   1      35.084  12.565  19.511  0.00  0.00     0.003 C 
HETATM   11  C   UNK N   1      35.181  13.638  18.431  0.00  0.00     0.030 C 
HETATM   12  C   UNK N   1      34.770  13.040  17.090  0.00  0.00     0.274 C 
ENDBRANCH   1   7
BRANCH   1  13
HETATM   13  C   UNK N   1      35.770  12.706  14.453  0.00  0.00     0.021 A 
HETATM   14  S   UNK N   1      35.010  13.068  13.023  0.00  0.00    -0.104 SA
HETATM   15  C   UNK N   1      35.693  14.542  12.694  0.00  0.00     0.050 A 
HETATM   16  C   UNK N   1      36.576  14.802  13.751  0.00  0.00     0.008 A 
HETATM   17  C   UNK N   1      36.619  13.777  14.739  0.00  0.00     0.018 A 
ENDBRANCH   1  13
TORSDOF 2
ENDMDL
MODEL 9
REMARK VINA RESULT:      -4.9      2.459      5.410
REMARK  2 active torsions:
REMARK  status: ('A' for Active; 'I' for Inactive)
REMARK    1  A    between atoms: N_2  and  C_3 
REMARK    2  A    between atoms: C_3  and  C_11 
ROOT
HETATM    1  C   UNK N   1      34.011  15.598   8.767  0.00  0.00     0.193 C 
HETATM    2  C   UNK N   1      32.517  15.523   9.153  0.00  0.00     0.047 C 
HETATM    3  C   UNK N   1      34.464  17.081   8.823  0.00  0.00     0.047 C 
HETATM    4  C   UNK N   1      31.648  16.436   8.291  0.00  0.00     0.003 C 
HETATM    5  C   UNK N   1      33.566  18.005   7.995  0.00  0.00     0.003 C 
HETATM    6  C   UNK N   1      32.113  17.878   8.439  0.00  0.00     0.000 C 
ENDROOT
BRANCH   1   7
HETATM    7  N   UNK N   1      34.786  14.776   9.729  0.00  0.00     0.103 N 
HETATM    8  C   UNK N   1      34.258  14.838  11.098  0.00  0.00     0.274 C 
HETATM    9  C   UNK N   1      34.935  13.768  11.953  0.00  0.00     0.030 C 
HETATM   10  C   UNK N   1      36.451  13.963  11.941  0.00  0.00     0.003 C 
HETATM   11  C   UNK N   1      36.978  14.051  10.511  0.00  0.00     0.030 C 
HETATM   12  C   UNK N   1      36.210  15.132   9.759  0.00  0.00     0.274 C 
ENDBRANCH   1   7
BRANCH   1  13
HETATM   13  C   UNK N   1      34.184  14.995   7.382  0.00  0.00     0.021 A 
HETATM   14  S   UNK N   1      33.459  13.638   6.759  0.00  0.00    -0.104 SA
HETATM   15  C   UNK N   1      34.061  13.667   5.216  0.00  0.00     0.050 A 
HETATM   16  C   UNK N   1      34.885  14.800   5.144  0.00  0.00     0.008 A 
HETATM   17  C   UNK N   1      34.954  15.546   6.355  0.00  0.00     0.018 A 
ENDBRANCH   1  13
TORSDOF 2
ENDMDL
