MODEL 1
REMARK VINA RESULT:      -6.7      0.000      0.000
REMARK  28 active torsions:
REMARK  status: ('A' for Active; 'I' for Inactive)
REMARK    1  A    between atoms: C_1  and  C_2 
REMARK    2  A    between atoms: C_2  and  S_3 
REMARK    3  A    between atoms: S_3  and  C_4 
REMARK    4  A    between atoms: C_4  and  C_5 
REMARK    5  A    between atoms: C_5  and  N_6 
REMARK       I    between atoms: N_6  and  C_7 
REMARK    6  A    between atoms: C_7  and  C_8 
REMARK    7  A    between atoms: C_8  and  C_9 
REMARK    8  A    between atoms: C_9  and  N_10 
REMARK       I    between atoms: N_10  and  C_11 
REMARK    9  A    between atoms: C_11  and  C_12 
REMARK   10  A    between atoms: C_12  and  C_13 
REMARK   11  A    between atoms: C_12  and  O_19 
REMARK   12  A    between atoms: C_13  and  C_14 
REMARK   13  A    between atoms: C_14  and  O_15 
REMARK   14  A    between atoms: O_15  and  P_22 
REMARK   15  A    between atoms: P_22  and  O_24 
REMARK   16  A    between atoms: P_22  and  O_54 
REMARK   17  A    between atoms: C_25  and  O_31 
REMARK   18  A    between atoms: C_26  and  O_32 
REMARK   19  A    between atoms: C_27  and  C_30 
REMARK   20  A    between atoms: C_29  and  N_39 
REMARK   21  A    between atoms: C_30  and  O_50 
REMARK   22  A    between atoms: O_32  and  P_33 
REMARK   23  A    between atoms: P_33  and  O_34 
REMARK   24  A    between atoms: P_33  and  O_35 
REMARK   25  A    between atoms: C_43  and  N_49 
REMARK   26  A    between atoms: O_50  and  P_51 
REMARK   27  A    between atoms: P_51  and  O_52 
REMARK   28  A    between atoms: P_51  and  O_54 
ROOT
HETATM    1  P   UNK N   1      24.757  20.224   2.642  0.00  0.00     0.401 P 
HETATM    2  O   UNK N   1      26.057  21.014   2.331  0.00  0.00    -0.631 OA
ENDROOT
BRANCH   1   3
HETATM    3  O   UNK N   1      25.007  18.626   3.308  0.00  0.00    -0.294 OA
BRANCH   3   4
HETATM    4  C   UNK N   1      25.057  18.745   4.701  0.00  0.00     0.215 C 
BRANCH   4   5
HETATM    5  C   UNK N   1      26.108  17.781   5.264  0.00  0.00     0.180 C 
HETATM    6  C   UNK N   1      26.260  16.582   4.347  0.00  0.00     0.197 C 
HETATM    7  C   UNK N   1      27.687  16.246   4.558  0.00  0.00     0.199 C 
HETATM    8  C   UNK N   1      28.317  17.597   4.755  0.00  0.00     0.262 C 
HETATM    9  O   UNK N   1      27.366  18.417   5.406  0.00  0.00    -0.353 OA
BRANCH   6  10
HETATM   10  O   UNK N   1      25.483  15.502   4.792  0.00  0.00    -0.286 OA
BRANCH  10  11
HETATM   11  P   UNK N   1      25.946  15.209   6.437  0.00  0.00     0.391 P 
HETATM   12  O   UNK N   1      24.450  15.544   6.667  0.00  0.00    -0.632 OA
BRANCH  11  13
HETATM   13  O   UNK N   1      25.975  13.758   5.484  0.00  0.00    -0.307 OA
HETATM   14  H   UNK N   1      26.203  12.854   5.755  0.00  0.00     0.222 HD
ENDBRANCH  11  13
BRANCH  11  15
HETATM   15  O   UNK N   1      25.467  13.801   7.328  0.00  0.00    -0.307 OA
HETATM   16  H   UNK N   1      24.661  13.298   7.527  0.00  0.00     0.222 HD
ENDBRANCH  11  15
ENDBRANCH  10  11
ENDBRANCH   6  10
BRANCH   7  17
HETATM   17  O   UNK N   1      28.223  15.600   3.447  0.00  0.00    -0.388 OA
HETATM   18  H   UNK N   1      29.141  15.759   3.176  0.00  0.00     0.210 HD
ENDBRANCH   7  17
BRANCH   8  19
HETATM   19  N   UNK N   1      29.536  17.428   5.559  0.00  0.00    -0.297 N 
HETATM   20  C   UNK N   1      29.630  17.448   6.897  0.00  0.00     0.142 A 
HETATM   21  C   UNK N   1      30.920  17.304   7.257  0.00  0.00     0.122 A 
HETATM   22  N   UNK N   1      28.633  17.594   7.801  0.00  0.00    -0.336 N 
HETATM   23  N   UNK N   1      31.690  17.180   6.160  0.00  0.00    -0.346 N 
HETATM   24  C   UNK N   1      31.269  17.311   8.601  0.00  0.00     0.131 A 
HETATM   25  C   UNK N   1      30.810  17.257   5.118  0.00  0.00     0.188 A 
ATOM     26  HN  UNK N   1      32.701  17.055   6.117  1.00  0.00     0.167 HD
HETATM   27  N   UNK N   1      30.272  17.458   9.522  0.00  0.00    -0.337 N 
HETATM   28  C   UNK N   1      28.962  17.597   9.129  0.00  0.00     0.183 A 
ATOM     29  HN  UNK N   1      30.502  17.467  10.516  1.00  0.00     0.168 HD
ATOM     30  HN  UNK N   1      27.664  17.699   7.500  1.00  0.00     0.168 HD
BRANCH  24  31
HETATM   31  N   UNK N   1      32.611  17.176   9.012  0.00  0.00    -0.383 N 
HETATM   32  H   UNK N   1      33.354  17.592   8.518  0.00  0.00     0.157 HD
HETATM   33  H   UNK N   1      32.811  16.648   9.819  0.00  0.00     0.157 HD
ENDBRANCH  24  31
ENDBRANCH   8  19
ENDBRANCH   4   5
ENDBRANCH   3   4
ENDBRANCH   1   3
BRANCH   1  34
HETATM   34  O   UNK N   1      25.189  20.608   4.278  0.00  0.00    -0.307 OA
HETATM   35  H   UNK N   1      24.635  20.815   5.047  0.00  0.00     0.222 HD
ENDBRANCH   1  34
BRANCH   1  36
HETATM   36  O   UNK N   1      23.391  21.198   3.130  0.00  0.00    -0.195 OA
BRANCH  36  37
HETATM   37  P   UNK N   1      21.912  20.429   2.593  0.00  0.00     0.401 P 
HETATM   38  O   UNK N   1      21.837  20.551   1.048  0.00  0.00    -0.631 OA
BRANCH  37  39
HETATM   39  O   UNK N   1      21.788  18.745   3.023  0.00  0.00    -0.296 OA
BRANCH  39  40
HETATM   40  C   UNK N   1      20.923  18.663   4.133  0.00  0.00     0.192 C 
BRANCH  40  41
HETATM   41  C   UNK N   1      21.054  17.301   4.840  0.00  0.00     0.009 C 
HETATM   42  C   UNK N   1      19.759  16.534   4.623  0.00  0.00     0.020 C 
HETATM   43  C   UNK N   1      22.152  16.512   4.152  0.00  0.00     0.020 C 
BRANCH  41  44
HETATM   44  C   UNK N   1      21.456  17.464   6.341  0.00  0.00     0.219 C 
BRANCH  44  45
HETATM   45  C   UNK N   1      20.936  16.417   7.291  0.00  0.00     0.247 C 
HETATM   46  N   UNK N   1      21.500  15.181   7.265  0.00  0.00    -0.358 N 
HETATM   47  H   UNK N   1      22.350  15.099   6.775  0.00  0.00     0.162 HD
HETATM   48  O   UNK N   1      19.958  16.653   7.981  0.00  0.00    -0.271 OA
BRANCH  46  49
HETATM   49  C   UNK N   1      20.993  13.970   7.878  0.00  0.00     0.132 C 
BRANCH  49  50
HETATM   50  C   UNK N   1      21.770  12.698   7.592  0.00  0.00     0.122 C 
BRANCH  50  51
HETATM   51  C   UNK N   1      22.047  12.626   6.122  0.00  0.00     0.219 C 
HETATM   52  N   UNK N   1      21.059  12.280   5.259  0.00  0.00    -0.360 N 
HETATM   53  H   UNK N   1      20.151  12.123   5.607  0.00  0.00     0.162 HD
HETATM   54  O   UNK N   1      23.175  12.852   5.714  0.00  0.00    -0.274 OA
BRANCH  52  55
HETATM   55  C   UNK N   1      21.300  12.135   3.844  0.00  0.00     0.133 C 
BRANCH  55  56
HETATM   56  C   UNK N   1      20.019  11.758   3.132  0.00  0.00     0.102 C 
BRANCH  56  57
HETATM   57  S   UNK N   1      19.092  13.273   2.755  0.00  0.00    -0.086 SA
BRANCH  57  58
HETATM   58  C   UNK N   1      19.975  13.546   1.213  0.00  0.00     0.214 C 
HETATM   59  O   UNK N   1      19.812  12.759   0.293  0.00  0.00    -0.280 OA
BRANCH  58  60
HETATM   60  C   UNK N   1      20.900  14.690   1.048  0.00  0.00    -0.014 C 
HETATM   61  C   UNK N   1      20.363  16.077   0.914  0.00  0.00     0.052 C 
HETATM   62  C   UNK N   1      22.219  14.506   1.013  0.00  0.00     0.023 C 
ENDBRANCH  58  60
ENDBRANCH  57  58
ENDBRANCH  56  57
ENDBRANCH  55  56
ENDBRANCH  52  55
ENDBRANCH  50  51
ENDBRANCH  49  50
ENDBRANCH  46  49
ENDBRANCH  44  45
BRANCH  44  63
HETATM   63  O   UNK N   1      21.089  18.709   6.858  0.00  0.00    -0.385 OA
HETATM   64  H   UNK N   1      21.335  19.081   7.720  0.00  0.00     0.210 HD
ENDBRANCH  44  63
ENDBRANCH  41  44
ENDBRANCH  40  41
ENDBRANCH  39  40
ENDBRANCH  37  39
BRANCH  37  65
HETATM   65  O   UNK N   1      20.565  21.327   3.227  0.00  0.00    -0.307 OA
HETATM   66  H   UNK N   1      19.597  21.332   3.170  0.00  0.00     0.222 HD
ENDBRANCH  37  65
ENDBRANCH  36  37
ENDBRANCH   1  36
TORSDOF 28
ENDMDL
MODEL 2
REMARK VINA RESULT:      -6.7      2.555      5.191
REMARK  28 active torsions:
REMARK  status: ('A' for Active; 'I' for Inactive)
REMARK    1  A    between atoms: C_1  and  C_2 
REMARK    2  A    between atoms: C_2  and  S_3 
REMARK    3  A    between atoms: S_3  and  C_4 
REMARK    4  A    between atoms: C_4  and  C_5 
REMARK    5  A    between atoms: C_5  and  N_6 
REMARK       I    between atoms: N_6  and  C_7 
REMARK    6  A    between atoms: C_7  and  C_8 
REMARK    7  A    between atoms: C_8  and  C_9 
REMARK    8  A    between atoms: C_9  and  N_10 
REMARK       I    between atoms: N_10  and  C_11 
REMARK    9  A    between atoms: C_11  and  C_12 
REMARK   10  A    between atoms: C_12  and  C_13 
REMARK   11  A    between atoms: C_12  and  O_19 
REMARK   12  A    between atoms: C_13  and  C_14 
REMARK   13  A    between atoms: C_14  and  O_15 
REMARK   14  A    between atoms: O_15  and  P_22 
REMARK   15  A    between atoms: P_22  and  O_24 
REMARK   16  A    between atoms: P_22  and  O_54 
REMARK   17  A    between atoms: C_25  and  O_31 
REMARK   18  A    between atoms: C_26  and  O_32 
REMARK   19  A    between atoms: C_27  and  C_30 
REMARK   20  A    between atoms: C_29  and  N_39 
REMARK   21  A    between atoms: C_30  and  O_50 
REMARK   22  A    between atoms: O_32  and  P_33 
REMARK   23  A    between atoms: P_33  and  O_34 
REMARK   24  A    between atoms: P_33  and  O_35 
REMARK   25  A    between atoms: C_43  and  N_49 
REMARK   26  A    between atoms: O_50  and  P_51 
REMARK   27  A    between atoms: P_51  and  O_52 
REMARK   28  A    between atoms: P_51  and  O_54 
ROOT
HETATM    1  P   UNK N   1      22.813  12.666   7.253  0.00  0.00     0.401 P 
HETATM    2  O   UNK N   1      22.876  12.123   5.799  0.00  0.00    -0.631 OA
ENDROOT
BRANCH   1   3
HETATM    3  O   UNK N   1      23.837  14.048   7.568  0.00  0.00    -0.294 OA
BRANCH   3   4
HETATM    4  C   UNK N   1      23.924  14.796   6.389  0.00  0.00     0.215 C 
BRANCH   4   5
HETATM    5  C   UNK N   1      25.386  14.883   5.939  0.00  0.00     0.180 C 
HETATM    6  C   UNK N   1      25.468  15.454   4.536  0.00  0.00     0.197 C 
HETATM    7  C   UNK N   1      26.771  16.155   4.592  0.00  0.00     0.199 C 
HETATM    8  C   UNK N   1      26.817  16.650   6.012  0.00  0.00     0.262 C 
HETATM    9  O   UNK N   1      26.147  15.697   6.814  0.00  0.00    -0.353 OA
BRANCH   6  10
HETATM   10  O   UNK N   1      25.558  14.434   3.578  0.00  0.00    -0.286 OA
BRANCH  10  11
HETATM   11  P   UNK N   1      24.335  14.761   2.394  0.00  0.00     0.391 P 
HETATM   12  O   UNK N   1      25.576  15.223   1.589  0.00  0.00    -0.632 OA
BRANCH  11  13
HETATM   13  O   UNK N   1      24.541  13.057   2.664  0.00  0.00    -0.307 OA
HETATM   14  H   UNK N   1      24.407  12.321   2.046  0.00  0.00     0.222 HD
ENDBRANCH  11  13
BRANCH  11  15
HETATM   15  O   UNK N   1      24.118  13.813   0.958  0.00  0.00    -0.307 OA
HETATM   16  H   UNK N   1      24.652  13.311   0.324  0.00  0.00     0.222 HD
ENDBRANCH  11  15
ENDBRANCH  10  11
ENDBRANCH   6  10
BRANCH   7  17
HETATM   17  O   UNK N   1      26.814  17.215   3.691  0.00  0.00    -0.388 OA
HETATM   18  H   UNK N   1      25.999  17.660   3.410  0.00  0.00     0.210 HD
ENDBRANCH   7  17
BRANCH   8  19
HETATM   19  N   UNK N   1      28.224  16.805   6.405  0.00  0.00    -0.297 N 
HETATM   20  C   UNK N   1      28.689  17.230   7.590  0.00  0.00     0.142 A 
HETATM   21  C   UNK N   1      30.035  17.280   7.551  0.00  0.00     0.122 A 
HETATM   22  N   UNK N   1      27.978  17.579   8.688  0.00  0.00    -0.336 N 
HETATM   23  N   UNK N   1      30.472  16.879   6.343  0.00  0.00    -0.346 N 
HETATM   24  C   UNK N   1      30.745  17.710   8.663  0.00  0.00     0.131 A 
HETATM   25  C   UNK N   1      29.332  16.587   5.649  0.00  0.00     0.188 A 
ATOM     26  HN  UNK N   1      31.437  16.809   6.018  1.00  0.00     0.167 HD
HETATM   27  N   UNK N   1      30.038  18.065   9.777  0.00  0.00    -0.337 N 
HETATM   28  C   UNK N   1      28.666  18.000   9.794  0.00  0.00     0.183 A 
ATOM     29  HN  UNK N   1      30.536  18.385  10.608  1.00  0.00     0.168 HD
ATOM     30  HN  UNK N   1      26.959  17.529   8.690  1.00  0.00     0.168 HD
BRANCH  24  31
HETATM   31  N   UNK N   1      32.152  17.786   8.653  0.00  0.00    -0.383 N 
HETATM   32  H   UNK N   1      32.649  18.369   9.271  0.00  0.00     0.157 HD
HETATM   33  H   UNK N   1      32.654  17.239   8.006  0.00  0.00     0.157 HD
ENDBRANCH  24  31
ENDBRANCH   8  19
ENDBRANCH   4   5
ENDBRANCH   3   4
ENDBRANCH   1   3
BRANCH   1  34
HETATM   34  O   UNK N   1      21.904  13.935   6.494  0.00  0.00    -0.307 OA
HETATM   35  H   UNK N   1      22.186  14.800   6.158  0.00  0.00     0.222 HD
ENDBRANCH   1  34
BRANCH   1  36
HETATM   36  O   UNK N   1      21.266  12.493   8.047  0.00  0.00    -0.195 OA
BRANCH  36  37
HETATM   37  P   UNK N   1      21.202  13.569   9.427  0.00  0.00     0.401 P 
HETATM   38  O   UNK N   1      22.548  13.460  10.189  0.00  0.00    -0.631 OA
BRANCH  37  39
HETATM   39  O   UNK N   1      20.933  15.241   9.015  0.00  0.00    -0.296 OA
BRANCH  39  40
HETATM   40  C   UNK N   1      19.543  15.463   9.066  0.00  0.00     0.192 C 
BRANCH  40  41
HETATM   41  C   UNK N   1      19.164  16.785   8.373  0.00  0.00     0.009 C 
HETATM   42  C   UNK N   1      17.691  17.049   8.640  0.00  0.00     0.020 C 
HETATM   43  C   UNK N   1      19.939  17.908   9.037  0.00  0.00     0.020 C 
BRANCH  41  44
HETATM   44  C   UNK N   1      19.547  16.776   6.858  0.00  0.00     0.219 C 
BRANCH  44  45
HETATM   45  C   UNK N   1      18.809  15.794   5.987  0.00  0.00     0.247 C 
HETATM   46  N   UNK N   1      19.525  14.846   5.327  0.00  0.00    -0.358 N 
HETATM   47  H   UNK N   1      20.459  14.725   5.616  0.00  0.00     0.162 HD
HETATM   48  O   UNK N   1      17.611  15.928   5.799  0.00  0.00    -0.271 OA
BRANCH  46  49
HETATM   49  C   UNK N   1      19.071  13.993   4.247  0.00  0.00     0.132 C 
BRANCH  49  50
HETATM   50  C   UNK N   1      20.152  13.393   3.367  0.00  0.00     0.122 C 
BRANCH  50  51
HETATM   51  C   UNK N   1      20.295  14.239   2.139  0.00  0.00     0.219 C 
HETATM   52  N   UNK N   1      19.539  15.356   1.990  0.00  0.00    -0.360 N 
HETATM   53  H   UNK N   1      18.931  15.625   2.718  0.00  0.00     0.162 HD
HETATM   54  O   UNK N   1      21.075  13.897   1.265  0.00  0.00    -0.274 OA
BRANCH  52  55
HETATM   55  C   UNK N   1      19.599  16.162   0.795  0.00  0.00     0.133 C 
BRANCH  55  56
HETATM   56  C   UNK N   1      20.300  17.471   1.083  0.00  0.00     0.102 C 
BRANCH  56  57
HETATM   57  S   UNK N   1      19.741  18.093   2.694  0.00  0.00    -0.086 SA
BRANCH  57  58
HETATM   58  C   UNK N   1      21.349  17.846   3.457  0.00  0.00     0.214 C 
HETATM   59  O   UNK N   1      21.605  16.760   3.955  0.00  0.00    -0.280 OA
BRANCH  58  60
HETATM   60  C   UNK N   1      22.353  18.933   3.506  0.00  0.00    -0.014 C 
HETATM   61  C   UNK N   1      22.076  20.241   2.841  0.00  0.00     0.052 C 
HETATM   62  C   UNK N   1      23.515  18.766   4.136  0.00  0.00     0.023 C 
ENDBRANCH  58  60
ENDBRANCH  57  58
ENDBRANCH  56  57
ENDBRANCH  55  56
ENDBRANCH  52  55
ENDBRANCH  50  51
ENDBRANCH  49  50
ENDBRANCH  46  49
ENDBRANCH  44  45
BRANCH  44  63
HETATM   63  O   UNK N   1      20.913  16.562   6.655  0.00  0.00    -0.385 OA
HETATM   64  H   UNK N   1      21.545  17.167   6.236  0.00  0.00     0.210 HD
ENDBRANCH  44  63
ENDBRANCH  41  44
ENDBRANCH  40  41
ENDBRANCH  39  40
ENDBRANCH  37  39
BRANCH  37  65
HETATM   65  O   UNK N   1      19.970  12.998  10.512  0.00  0.00    -0.307 OA
HETATM   66  H   UNK N   1      19.899  12.496  11.339  0.00  0.00     0.222 HD
ENDBRANCH  37  65
ENDBRANCH  36  37
ENDBRANCH   1  36
TORSDOF 28
ENDMDL
MODEL 3
REMARK VINA RESULT:      -6.6      9.384     14.539
REMARK  28 active torsions:
REMARK  status: ('A' for Active; 'I' for Inactive)
REMARK    1  A    between atoms: C_1  and  C_2 
REMARK    2  A    between atoms: C_2  and  S_3 
REMARK    3  A    between atoms: S_3  and  C_4 
REMARK    4  A    between atoms: C_4  and  C_5 
REMARK    5  A    between atoms: C_5  and  N_6 
REMARK       I    between atoms: N_6  and  C_7 
REMARK    6  A    between atoms: C_7  and  C_8 
REMARK    7  A    between atoms: C_8  and  C_9 
REMARK    8  A    between atoms: C_9  and  N_10 
REMARK       I    between atoms: N_10  and  C_11 
REMARK    9  A    between atoms: C_11  and  C_12 
REMARK   10  A    between atoms: C_12  and  C_13 
REMARK   11  A    between atoms: C_12  and  O_19 
REMARK   12  A    between atoms: C_13  and  C_14 
REMARK   13  A    between atoms: C_14  and  O_15 
REMARK   14  A    between atoms: O_15  and  P_22 
REMARK   15  A    between atoms: P_22  and  O_24 
REMARK   16  A    between atoms: P_22  and  O_54 
REMARK   17  A    between atoms: C_25  and  O_31 
REMARK   18  A    between atoms: C_26  and  O_32 
REMARK   19  A    between atoms: C_27  and  C_30 
REMARK   20  A    between atoms: C_29  and  N_39 
REMARK   21  A    between atoms: C_30  and  O_50 
REMARK   22  A    between atoms: O_32  and  P_33 
REMARK   23  A    between atoms: P_33  and  O_34 
REMARK   24  A    between atoms: P_33  and  O_35 
REMARK   25  A    between atoms: C_43  and  N_49 
REMARK   26  A    between atoms: O_50  and  P_51 
REMARK   27  A    between atoms: P_51  and  O_52 
REMARK   28  A    between atoms: P_51  and  O_54 
ROOT
HETATM    1  P   UNK N   1      34.120  17.958   8.371  0.00  0.00     0.401 P 
HETATM    2  O   UNK N   1      35.204  19.050   8.161  0.00  0.00    -0.631 OA
ENDROOT
BRANCH   1   3
HETATM    3  O   UNK N   1      32.510  18.410   7.857  0.00  0.00    -0.294 OA
BRANCH   3   4
HETATM    4  C   UNK N   1      31.599  17.578   8.518  0.00  0.00     0.215 C 
BRANCH   4   5
HETATM    5  C   UNK N   1      30.772  16.798   7.490  0.00  0.00     0.180 C 
HETATM    6  C   UNK N   1      29.903  17.749   6.689  0.00  0.00     0.197 C 
HETATM    7  C   UNK N   1      29.837  17.045   5.389  0.00  0.00     0.199 C 
HETATM    8  C   UNK N   1      31.198  16.412   5.289  0.00  0.00     0.262 C 
HETATM    9  O   UNK N   1      31.606  16.076   6.600  0.00  0.00    -0.353 OA
BRANCH   6  10
HETATM   10  O   UNK N   1      28.606  17.816   7.219  0.00  0.00    -0.286 OA
BRANCH  10  11
HETATM   11  P   UNK N   1      28.203  19.499   7.322  0.00  0.00     0.391 P 
HETATM   12  O   UNK N   1      27.245  19.095   6.173  0.00  0.00    -0.632 OA
BRANCH  11  13
HETATM   13  O   UNK N   1      27.677  18.618   8.723  0.00  0.00    -0.307 OA
HETATM   14  H   UNK N   1      26.863  18.108   8.852  0.00  0.00     0.222 HD
ENDBRANCH  11  13
BRANCH  11  15
HETATM   15  O   UNK N   1      26.706  20.086   7.973  0.00  0.00    -0.307 OA
HETATM   16  H   UNK N   1      26.021  20.739   7.761  0.00  0.00     0.222 HD
ENDBRANCH  11  15
ENDBRANCH  10  11
ENDBRANCH   6  10
BRANCH   7  17
HETATM   17  O   UNK N   1      29.621  17.936   4.342  0.00  0.00    -0.388 OA
HETATM   18  H   UNK N   1      28.788  17.924   3.844  0.00  0.00     0.210 HD
ENDBRANCH   7  17
BRANCH   8  19
HETATM   19  N   UNK N   1      31.098  15.228   4.425  0.00  0.00    -0.297 N 
HETATM   20  C   UNK N   1      32.033  14.761   3.583  0.00  0.00     0.142 A 
HETATM   21  C   UNK N   1      31.554  13.682   2.935  0.00  0.00     0.122 A 
HETATM   22  N   UNK N   1      33.276  15.251   3.363  0.00  0.00    -0.336 N 
HETATM   23  N   UNK N   1      30.299  13.420   3.349  0.00  0.00    -0.346 N 
HETATM   24  C   UNK N   1      32.340  13.034   1.993  0.00  0.00     0.131 A 
HETATM   25  C   UNK N   1      30.039  14.390   4.274  0.00  0.00     0.188 A 
ATOM     26  HN  UNK N   1      29.683  12.668   3.040  1.00  0.00     0.167 HD
HETATM   27  N   UNK N   1      33.595  13.519   1.762  0.00  0.00    -0.337 N 
HETATM   28  C   UNK N   1      34.064  14.617   2.441  0.00  0.00     0.183 A 
ATOM     29  HN  UNK N   1      34.194  13.061   1.074  1.00  0.00     0.168 HD
ATOM     30  HN  UNK N   1      33.614  16.068   3.871  1.00  0.00     0.168 HD
BRANCH  24  31
HETATM   31  N   UNK N   1      31.864  11.910   1.286  0.00  0.00    -0.383 N 
HETATM   32  H   UNK N   1      30.907  11.681   1.251  0.00  0.00     0.157 HD
HETATM   33  H   UNK N   1      32.510  11.336   0.814  0.00  0.00     0.157 HD
ENDBRANCH  24  31
ENDBRANCH   8  19
ENDBRANCH   4   5
ENDBRANCH   3   4
ENDBRANCH   1   3
BRANCH   1  34
HETATM   34  O   UNK N   1      34.265  17.810   6.647  0.00  0.00    -0.307 OA
HETATM   35  H   UNK N   1      34.841  17.247   6.107  0.00  0.00     0.222 HD
ENDBRANCH   1  34
BRANCH   1  36
HETATM   36  O   UNK N   1      34.682  16.310   8.220  0.00  0.00    -0.195 OA
BRANCH  36  37
HETATM   37  P   UNK N   1      34.738  15.572   9.807  0.00  0.00     0.401 P 
HETATM   38  O   UNK N   1      33.357  14.924  10.088  0.00  0.00    -0.631 OA
BRANCH  37  39
HETATM   39  O   UNK N   1      35.969  14.351   9.983  0.00  0.00    -0.296 OA
BRANCH  39  40
HETATM   40  C   UNK N   1      35.454  13.364  10.847  0.00  0.00     0.192 C 
BRANCH  40  41
HETATM   41  C   UNK N   1      36.539  12.847  11.810  0.00  0.00     0.009 C 
HETATM   42  C   UNK N   1      36.256  11.380  12.090  0.00  0.00     0.020 C 
HETATM   43  C   UNK N   1      37.875  12.907  11.094  0.00  0.00     0.020 C 
BRANCH  41  44
HETATM   44  C   UNK N   1      36.646  13.733  13.092  0.00  0.00     0.219 C 
BRANCH  44  45
HETATM   45  C   UNK N   1      35.736  13.369  14.235  0.00  0.00     0.247 C 
HETATM   46  N   UNK N   1      36.287  13.149  15.458  0.00  0.00    -0.358 N 
HETATM   47  H   UNK N   1      37.220  13.441  15.575  0.00  0.00     0.162 HD
HETATM   48  O   UNK N   1      34.550  13.169  14.029  0.00  0.00    -0.271 OA
BRANCH  46  49
HETATM   49  C   UNK N   1      35.657  12.536  16.609  0.00  0.00     0.132 C 
BRANCH  49  50
HETATM   50  C   UNK N   1      35.193  13.481  17.703  0.00  0.00     0.122 C 
BRANCH  50  51
HETATM   51  C   UNK N   1      35.101  12.719  18.988  0.00  0.00     0.219 C 
HETATM   52  N   UNK N   1      35.130  11.361  18.979  0.00  0.00    -0.360 N 
HETATM   53  H   UNK N   1      35.258  10.890  18.123  0.00  0.00     0.162 HD
HETATM   54  O   UNK N   1      34.969  13.329  20.038  0.00  0.00    -0.274 OA
BRANCH  52  55
HETATM   55  C   UNK N   1      34.978  10.589  20.188  0.00  0.00     0.133 C 
BRANCH  55  56
HETATM   56  C   UNK N   1      35.734   9.283  20.070  0.00  0.00     0.102 C 
BRANCH  56  57
HETATM   57  S   UNK N   1      35.109   8.130  21.326  0.00  0.00    -0.086 SA
BRANCH  57  58
HETATM   58  C   UNK N   1      33.582   7.827  20.429  0.00  0.00     0.214 C 
HETATM   59  O   UNK N   1      33.642   7.355  19.304  0.00  0.00    -0.280 OA
BRANCH  58  60
HETATM   60  C   UNK N   1      32.263   8.154  21.020  0.00  0.00    -0.014 C 
HETATM   61  C   UNK N   1      31.117   8.528  20.139  0.00  0.00     0.052 C 
HETATM   62  C   UNK N   1      32.077   8.122  22.339  0.00  0.00     0.023 C 
ENDBRANCH  58  60
ENDBRANCH  57  58
ENDBRANCH  56  57
ENDBRANCH  55  56
ENDBRANCH  52  55
ENDBRANCH  50  51
ENDBRANCH  49  50
ENDBRANCH  46  49
ENDBRANCH  44  45
BRANCH  44  63
HETATM   63  O   UNK N   1      36.447  15.089  12.820  0.00  0.00    -0.385 OA
HETATM   64  H   UNK N   1      37.061  15.695  12.377  0.00  0.00     0.210 HD
ENDBRANCH  44  63
ENDBRANCH  41  44
ENDBRANCH  40  41
ENDBRANCH  39  40
ENDBRANCH  37  39
BRANCH  37  65
HETATM   65  O   UNK N   1      34.945  16.829  10.990  0.00  0.00    -0.307 OA
HETATM   66  H   UNK N   1      35.298  17.730  11.047  0.00  0.00     0.222 HD
ENDBRANCH  37  65
ENDBRANCH  36  37
ENDBRANCH   1  36
TORSDOF 28
ENDMDL
MODEL 4
REMARK VINA RESULT:      -6.6      8.260     12.504
REMARK  28 active torsions:
REMARK  status: ('A' for Active; 'I' for Inactive)
REMARK    1  A    between atoms: C_1  and  C_2 
REMARK    2  A    between atoms: C_2  and  S_3 
REMARK    3  A    between atoms: S_3  and  C_4 
REMARK    4  A    between atoms: C_4  and  C_5 
REMARK    5  A    between atoms: C_5  and  N_6 
REMARK       I    between atoms: N_6  and  C_7 
REMARK    6  A    between atoms: C_7  and  C_8 
REMARK    7  A    between atoms: C_8  and  C_9 
REMARK    8  A    between atoms: C_9  and  N_10 
REMARK       I    between atoms: N_10  and  C_11 
REMARK    9  A    between atoms: C_11  and  C_12 
REMARK   10  A    between atoms: C_12  and  C_13 
REMARK   11  A    between atoms: C_12  and  O_19 
REMARK   12  A    between atoms: C_13  and  C_14 
REMARK   13  A    between atoms: C_14  and  O_15 
REMARK   14  A    between atoms: O_15  and  P_22 
REMARK   15  A    between atoms: P_22  and  O_24 
REMARK   16  A    between atoms: P_22  and  O_54 
REMARK   17  A    between atoms: C_25  and  O_31 
REMARK   18  A    between atoms: C_26  and  O_32 
REMARK   19  A    between atoms: C_27  and  C_30 
REMARK   20  A    between atoms: C_29  and  N_39 
REMARK   21  A    between atoms: C_30  and  O_50 
REMARK   22  A    between atoms: O_32  and  P_33 
REMARK   23  A    between atoms: P_33  and  O_34 
REMARK   24  A    between atoms: P_33  and  O_35 
REMARK   25  A    between atoms: C_43  and  N_49 
REMARK   26  A    between atoms: O_50  and  P_51 
REMARK   27  A    between atoms: P_51  and  O_52 
REMARK   28  A    between atoms: P_51  and  O_54 
ROOT
HETATM    1  P   UNK N   1      36.910  14.256   9.897  0.00  0.00     0.401 P 
HETATM    2  O   UNK N   1      38.361  14.445   9.377  0.00  0.00    -0.631 OA
ENDROOT
BRANCH   1   3
HETATM    3  O   UNK N   1      36.786  13.745  11.566  0.00  0.00    -0.294 OA
BRANCH   3   4
HETATM    4  C   UNK N   1      35.489  14.031  12.007  0.00  0.00     0.215 C 
BRANCH   4   5
HETATM    5  C   UNK N   1      35.013  12.928  12.959  0.00  0.00     0.180 C 
HETATM    6  C   UNK N   1      35.344  11.564  12.383  0.00  0.00     0.197 C 
HETATM    7  C   UNK N   1      35.557  10.780  13.620  0.00  0.00     0.199 C 
HETATM    8  C   UNK N   1      36.178  11.789  14.546  0.00  0.00     0.262 C 
HETATM    9  O   UNK N   1      35.620  13.050  14.233  0.00  0.00    -0.353 OA
BRANCH   6  10
HETATM   10  O   UNK N   1      34.244  11.021  11.703  0.00  0.00    -0.286 OA
BRANCH  10  11
HETATM   11  P   UNK N   1      34.839  10.458  10.175  0.00  0.00     0.391 P 
HETATM   12  O   UNK N   1      33.949   9.245  10.545  0.00  0.00    -0.632 OA
BRANCH  11  13
HETATM   13  O   UNK N   1      33.763  11.810   9.996  0.00  0.00    -0.307 OA
HETATM   14  H   UNK N   1      33.854  12.712  10.341  0.00  0.00     0.222 HD
ENDBRANCH  11  13
BRANCH  11  15
HETATM   15  O   UNK N   1      33.863  10.366   8.744  0.00  0.00    -0.307 OA
HETATM   16  H   UNK N   1      33.798   9.837   7.934  0.00  0.00     0.222 HD
ENDBRANCH  11  15
ENDBRANCH  10  11
ENDBRANCH   6  10
BRANCH   7  17
HETATM   17  O   UNK N   1      36.418   9.709  13.398  0.00  0.00    -0.388 OA
HETATM   18  H   UNK N   1      36.074   8.806  13.309  0.00  0.00     0.210 HD
ENDBRANCH   7  17
BRANCH   8  19
HETATM   19  N   UNK N   1      35.889  11.391  15.930  0.00  0.00    -0.297 N 
HETATM   20  C   UNK N   1      35.635  12.203  16.968  0.00  0.00     0.142 A 
HETATM   21  C   UNK N   1      35.464  11.466  18.082  0.00  0.00     0.122 A 
HETATM   22  N   UNK N   1      35.557  13.554  16.969  0.00  0.00    -0.336 N 
HETATM   23  N   UNK N   1      35.595  10.158  17.790  0.00  0.00    -0.346 N 
HETATM   24  C   UNK N   1      35.205  12.091  19.294  0.00  0.00     0.131 A 
HETATM   25  C   UNK N   1      35.856  10.135  16.449  0.00  0.00     0.188 A 
ATOM     26  HN  UNK N   1      35.517   9.364  18.425  1.00  0.00     0.167 HD
HETATM   27  N   UNK N   1      35.125  13.454  19.308  0.00  0.00    -0.337 N 
HETATM   28  C   UNK N   1      35.297  14.184  18.157  0.00  0.00     0.183 A 
ATOM     29  HN  UNK N   1      34.936  13.939  20.186  1.00  0.00     0.168 HD
ATOM     30  HN  UNK N   1      35.689  14.088  16.110  1.00  0.00     0.168 HD
BRANCH  24  31
HETATM   31  N   UNK N   1      35.033  11.350  20.482  0.00  0.00    -0.383 N 
HETATM   32  H   UNK N   1      34.872  11.785  21.350  0.00  0.00     0.157 HD
HETATM   33  H   UNK N   1      35.076  10.368  20.441  0.00  0.00     0.157 HD
ENDBRANCH  24  31
ENDBRANCH   8  19
ENDBRANCH   4   5
ENDBRANCH   3   4
ENDBRANCH   1   3
BRANCH   1  34
HETATM   34  O   UNK N   1      37.261  15.739  10.728  0.00  0.00    -0.307 OA
HETATM   35  H   UNK N   1      38.109  16.137  10.981  0.00  0.00     0.222 HD
ENDBRANCH   1  34
BRANCH   1  36
HETATM   36  O   UNK N   1      35.721  15.325   9.193  0.00  0.00    -0.195 OA
BRANCH  36  37
HETATM   37  P   UNK N   1      35.070  14.590   7.742  0.00  0.00     0.401 P 
HETATM   38  O   UNK N   1      35.316  13.061   7.823  0.00  0.00    -0.631 OA
BRANCH  37  39
HETATM   39  O   UNK N   1      33.366  14.866   7.506  0.00  0.00    -0.296 OA
BRANCH  39  40
HETATM   40  C   UNK N   1      33.010  15.970   8.305  0.00  0.00     0.192 C 
BRANCH  40  41
HETATM   41  C   UNK N   1      32.155  16.977   7.513  0.00  0.00     0.009 C 
HETATM   42  C   UNK N   1      30.917  16.249   7.013  0.00  0.00     0.020 C 
HETATM   43  C   UNK N   1      31.676  18.051   8.471  0.00  0.00     0.020 C 
BRANCH  41  44
HETATM   44  C   UNK N   1      32.980  17.679   6.388  0.00  0.00     0.219 C 
BRANCH  44  45
HETATM   45  C   UNK N   1      32.803  17.142   4.992  0.00  0.00     0.247 C 
HETATM   46  N   UNK N   1      33.415  15.974   4.664  0.00  0.00    -0.358 N 
HETATM   47  H   UNK N   1      33.769  15.441   5.412  0.00  0.00     0.162 HD
HETATM   48  O   UNK N   1      32.214  17.806   4.154  0.00  0.00    -0.271 OA
BRANCH  46  49
HETATM   49  C   UNK N   1      33.606  15.423   3.337  0.00  0.00     0.132 C 
BRANCH  49  50
HETATM   50  C   UNK N   1      32.760  14.213   2.985  0.00  0.00     0.122 C 
BRANCH  50  51
HETATM   51  C   UNK N   1      31.413  14.369   3.620  0.00  0.00     0.219 C 
HETATM   52  N   UNK N   1      30.497  15.209   3.074  0.00  0.00    -0.360 N 
HETATM   53  H   UNK N   1      30.714  15.676   2.234  0.00  0.00     0.162 HD
HETATM   54  O   UNK N   1      31.160  13.758   4.645  0.00  0.00    -0.274 OA
BRANCH  52  55
HETATM   55  C   UNK N   1      29.212  15.438   3.690  0.00  0.00     0.133 C 
BRANCH  55  56
HETATM   56  C   UNK N   1      28.908  16.920   3.726  0.00  0.00     0.102 C 
BRANCH  56  57
HETATM   57  S   UNK N   1      27.278  17.164   4.488  0.00  0.00    -0.086 SA
BRANCH  57  58
HETATM   58  C   UNK N   1      27.788  18.670   5.326  0.00  0.00     0.214 C 
HETATM   59  O   UNK N   1      28.528  18.585   6.293  0.00  0.00    -0.280 OA
BRANCH  58  60
HETATM   60  C   UNK N   1      27.315  19.999   4.876  0.00  0.00    -0.014 C 
HETATM   61  C   UNK N   1      27.297  21.151   5.827  0.00  0.00     0.052 C 
HETATM   62  C   UNK N   1      26.898  20.192   3.626  0.00  0.00     0.023 C 
ENDBRANCH  58  60
ENDBRANCH  57  58
ENDBRANCH  56  57
ENDBRANCH  55  56
ENDBRANCH  52  55
ENDBRANCH  50  51
ENDBRANCH  49  50
ENDBRANCH  46  49
ENDBRANCH  44  45
BRANCH  44  63
HETATM   63  O   UNK N   1      34.352  17.683   6.657  0.00  0.00    -0.385 OA
HETATM   64  H   UNK N   1      34.960  16.929   6.612  0.00  0.00     0.210 HD
ENDBRANCH  44  63
ENDBRANCH  41  44
ENDBRANCH  40  41
ENDBRANCH  39  40
ENDBRANCH  37  39
BRANCH  37  65
HETATM   65  O   UNK N   1      35.981  15.167   6.379  0.00  0.00    -0.307 OA
HETATM   66  H   UNK N   1      36.870  15.075   6.001  0.00  0.00     0.222 HD
ENDBRANCH  37  65
ENDBRANCH  36  37
ENDBRANCH   1  36
TORSDOF 28
ENDMDL
MODEL 5
REMARK VINA RESULT:      -6.6      2.737      6.407
REMARK  28 active torsions:
REMARK  status: ('A' for Active; 'I' for Inactive)
REMARK    1  A    between atoms: C_1  and  C_2 
REMARK    2  A    between atoms: C_2  and  S_3 
REMARK    3  A    between atoms: S_3  and  C_4 
REMARK    4  A    between atoms: C_4  and  C_5 
REMARK    5  A    between atoms: C_5  and  N_6 
REMARK       I    between atoms: N_6  and  C_7 
REMARK    6  A    between atoms: C_7  and  C_8 
REMARK    7  A    between atoms: C_8  and  C_9 
REMARK    8  A    between atoms: C_9  and  N_10 
REMARK       I    between atoms: N_10  and  C_11 
REMARK    9  A    between atoms: C_11  and  C_12 
REMARK   10  A    between atoms: C_12  and  C_13 
REMARK   11  A    between atoms: C_12  and  O_19 
REMARK   12  A    between atoms: C_13  and  C_14 
REMARK   13  A    between atoms: C_14  and  O_15 
REMARK   14  A    between atoms: O_15  and  P_22 
REMARK   15  A    between atoms: P_22  and  O_24 
REMARK   16  A    between atoms: P_22  and  O_54 
REMARK   17  A    between atoms: C_25  and  O_31 
REMARK   18  A    between atoms: C_26  and  O_32 
REMARK   19  A    between atoms: C_27  and  C_30 
REMARK   20  A    between atoms: C_29  and  N_39 
REMARK   21  A    between atoms: C_30  and  O_50 
REMARK   22  A    between atoms: O_32  and  P_33 
REMARK   23  A    between atoms: P_33  and  O_34 
REMARK   24  A    between atoms: P_33  and  O_35 
REMARK   25  A    between atoms: C_43  and  N_49 
REMARK   26  A    between atoms: O_50  and  P_51 
REMARK   27  A    between atoms: P_51  and  O_52 
REMARK   28  A    between atoms: P_51  and  O_54 
ROOT
HETATM    1  P   UNK N   1      19.421  16.316   6.639  0.00  0.00     0.401 P 
HETATM    2  O   UNK N   1      18.779  16.519   8.039  0.00  0.00    -0.631 OA
ENDROOT
BRANCH   1   3
HETATM    3  O   UNK N   1      21.144  16.607   6.570  0.00  0.00    -0.294 OA
BRANCH   3   4
HETATM    4  C   UNK N   1      21.345  17.848   5.955  0.00  0.00     0.215 C 
BRANCH   4   5
HETATM    5  C   UNK N   1      22.458  17.730   4.908  0.00  0.00     0.180 C 
HETATM    6  C   UNK N   1      22.504  18.983   4.053  0.00  0.00     0.197 C 
HETATM    7  C   UNK N   1      23.946  19.047   3.725  0.00  0.00     0.199 C 
HETATM    8  C   UNK N   1      24.592  18.514   4.974  0.00  0.00     0.262 C 
HETATM    9  O   UNK N   1      23.722  17.541   5.518  0.00  0.00    -0.353 OA
BRANCH   6  10
HETATM   10  O   UNK N   1      21.789  18.809   2.859  0.00  0.00    -0.286 OA
BRANCH  10  11
HETATM   11  P   UNK N   1      20.737  20.179   2.712  0.00  0.00     0.391 P 
HETATM   12  O   UNK N   1      21.997  20.771   2.031  0.00  0.00    -0.632 OA
BRANCH  11  13
HETATM   13  O   UNK N   1      20.224  18.854   1.712  0.00  0.00    -0.307 OA
HETATM   14  H   UNK N   1      19.331  18.498   1.582  0.00  0.00     0.222 HD
ENDBRANCH  11  13
BRANCH  11  15
HETATM   15  O   UNK N   1      20.040  20.691   1.208  0.00  0.00    -0.307 OA
HETATM   16  H   UNK N   1      19.164  20.855   0.825  0.00  0.00     0.222 HD
ENDBRANCH  11  15
ENDBRANCH  10  11
ENDBRANCH   6  10
BRANCH   7  17
HETATM   17  O   UNK N   1      24.350  20.355   3.471  0.00  0.00    -0.388 OA
HETATM   18  H   UNK N   1      24.273  20.734   2.581  0.00  0.00     0.210 HD
ENDBRANCH   7  17
BRANCH   8  19
HETATM   19  N   UNK N   1      25.898  17.943   4.616  0.00  0.00    -0.297 N 
HETATM   20  C   UNK N   1      26.999  17.904   5.381  0.00  0.00     0.142 A 
HETATM   21  C   UNK N   1      28.007  17.342   4.687  0.00  0.00     0.122 A 
HETATM   22  N   UNK N   1      27.148  18.349   6.651  0.00  0.00    -0.336 N 
HETATM   23  N   UNK N   1      27.579  16.995   3.459  0.00  0.00    -0.346 N 
HETATM   24  C   UNK N   1      29.260  17.208   5.269  0.00  0.00     0.131 A 
HETATM   25  C   UNK N   1      26.267  17.375   3.438  0.00  0.00     0.188 A 
ATOM     26  HN  UNK N   1      28.113  16.549   2.713  1.00  0.00     0.167 HD
HETATM   27  N   UNK N   1      29.422  17.654   6.550  0.00  0.00    -0.337 N 
HETATM   28  C   UNK N   1      28.377  18.219   7.240  0.00  0.00     0.183 A 
ATOM     29  HN  UNK N   1      30.334  17.568   7.001  1.00  0.00     0.168 HD
ATOM     30  HN  UNK N   1      26.366  18.769   7.154  1.00  0.00     0.168 HD
BRANCH  24  31
HETATM   31  N   UNK N   1      30.340  16.636   4.567  0.00  0.00    -0.383 N 
HETATM   32  H   UNK N   1      31.152  17.149   4.348  0.00  0.00     0.157 HD
HETATM   33  H   UNK N   1      30.281  15.694   4.287  0.00  0.00     0.157 HD
ENDBRANCH  24  31
ENDBRANCH   8  19
ENDBRANCH   4   5
ENDBRANCH   3   4
ENDBRANCH   1   3
BRANCH   1  34
HETATM   34  O   UNK N   1      20.034  14.873   7.385  0.00  0.00    -0.307 OA
HETATM   35  H   UNK N   1      20.102  14.625   8.320  0.00  0.00     0.222 HD
ENDBRANCH   1  34
BRANCH   1  36
HETATM   36  O   UNK N   1      18.677  15.083   5.649  0.00  0.00    -0.195 OA
BRANCH  36  37
HETATM   37  P   UNK N   1      19.469  15.040   4.088  0.00  0.00     0.401 P 
HETATM   38  O   UNK N   1      20.945  14.614   4.306  0.00  0.00    -0.631 OA
BRANCH  37  39
HETATM   39  O   UNK N   1      18.738  13.943   2.948  0.00  0.00    -0.296 OA
BRANCH  39  40
HETATM   40  C   UNK N   1      19.731  13.016   2.571  0.00  0.00     0.192 C 
BRANCH  40  41
HETATM   41  C   UNK N   1      19.995  13.071   1.054  0.00  0.00     0.009 C 
HETATM   42  C   UNK N   1      19.637  11.715   0.467  0.00  0.00     0.020 C 
HETATM   43  C   UNK N   1      19.041  14.080   0.443  0.00  0.00     0.020 C 
BRANCH  41  44
HETATM   44  C   UNK N   1      21.450  13.540   0.737  0.00  0.00     0.219 C 
BRANCH  44  45
HETATM   45  C   UNK N   1      22.528  12.493   0.834  0.00  0.00     0.247 C 
HETATM   46  N   UNK N   1      22.915  12.073   2.068  0.00  0.00    -0.358 N 
HETATM   47  H   UNK N   1      22.328  12.324   2.818  0.00  0.00     0.162 HD
HETATM   48  O   UNK N   1      23.110  12.123  -0.173  0.00  0.00    -0.271 OA
BRANCH  46  49
HETATM   49  C   UNK N   1      24.092  11.298   2.404  0.00  0.00     0.132 C 
BRANCH  49  50
HETATM   50  C   UNK N   1      25.325  12.090   2.800  0.00  0.00     0.122 C 
BRANCH  50  51
HETATM   51  C   UNK N   1      24.899  13.251   3.644  0.00  0.00     0.219 C 
HETATM   52  N   UNK N   1      24.918  13.152   4.997  0.00  0.00    -0.360 N 
HETATM   53  H   UNK N   1      25.258  12.326   5.413  0.00  0.00     0.162 HD
HETATM   54  O   UNK N   1      24.508  14.273   3.102  0.00  0.00    -0.274 OA
BRANCH  52  55
HETATM   55  C   UNK N   1      24.454  14.223   5.845  0.00  0.00     0.133 C 
BRANCH  55  56
HETATM   56  C   UNK N   1      23.284  13.755   6.683  0.00  0.00     0.102 C 
BRANCH  56  57
HETATM   57  S   UNK N   1      23.688  12.138   7.402  0.00  0.00    -0.086 SA
BRANCH  57  58
HETATM   58  C   UNK N   1      22.386  12.252   8.635  0.00  0.00     0.214 C 
HETATM   59  O   UNK N   1      21.230  12.378   8.263  0.00  0.00    -0.280 OA
BRANCH  58  60
HETATM   60  C   UNK N   1      22.693  12.211  10.084  0.00  0.00    -0.014 C 
HETATM   61  C   UNK N   1      24.111  12.187  10.551  0.00  0.00     0.052 C 
HETATM   62  C   UNK N   1      21.717  12.194  10.991  0.00  0.00     0.023 C 
ENDBRANCH  58  60
ENDBRANCH  57  58
ENDBRANCH  56  57
ENDBRANCH  55  56
ENDBRANCH  52  55
ENDBRANCH  50  51
ENDBRANCH  49  50
ENDBRANCH  46  49
ENDBRANCH  44  45
BRANCH  44  63
HETATM   63  O   UNK N   1      21.849  14.618   1.533  0.00  0.00    -0.385 OA
HETATM   64  H   UNK N   1      22.745  14.814   1.849  0.00  0.00     0.210 HD
ENDBRANCH  44  63
ENDBRANCH  41  44
ENDBRANCH  40  41
ENDBRANCH  39  40
ENDBRANCH  37  39
BRANCH  37  65
HETATM   65  O   UNK N   1      19.509  16.656   3.448  0.00  0.00    -0.307 OA
HETATM   66  H   UNK N   1      18.891  17.355   3.185  0.00  0.00     0.222 HD
ENDBRANCH  37  65
ENDBRANCH  36  37
ENDBRANCH   1  36
TORSDOF 28
ENDMDL
MODEL 6
REMARK VINA RESULT:      -6.4      6.093      9.528
REMARK  28 active torsions:
REMARK  status: ('A' for Active; 'I' for Inactive)
REMARK    1  A    between atoms: C_1  and  C_2 
REMARK    2  A    between atoms: C_2  and  S_3 
REMARK    3  A    between atoms: S_3  and  C_4 
REMARK    4  A    between atoms: C_4  and  C_5 
REMARK    5  A    between atoms: C_5  and  N_6 
REMARK       I    between atoms: N_6  and  C_7 
REMARK    6  A    between atoms: C_7  and  C_8 
REMARK    7  A    between atoms: C_8  and  C_9 
REMARK    8  A    between atoms: C_9  and  N_10 
REMARK       I    between atoms: N_10  and  C_11 
REMARK    9  A    between atoms: C_11  and  C_12 
REMARK   10  A    between atoms: C_12  and  C_13 
REMARK   11  A    between atoms: C_12  and  O_19 
REMARK   12  A    between atoms: C_13  and  C_14 
REMARK   13  A    between atoms: C_14  and  O_15 
REMARK   14  A    between atoms: O_15  and  P_22 
REMARK   15  A    between atoms: P_22  and  O_24 
REMARK   16  A    between atoms: P_22  and  O_54 
REMARK   17  A    between atoms: C_25  and  O_31 
REMARK   18  A    between atoms: C_26  and  O_32 
REMARK   19  A    between atoms: C_27  and  C_30 
REMARK   20  A    between atoms: C_29  and  N_39 
REMARK   21  A    between atoms: C_30  and  O_50 
REMARK   22  A    between atoms: O_32  and  P_33 
REMARK   23  A    between atoms: P_33  and  O_34 
REMARK   24  A    between atoms: P_33  and  O_35 
REMARK   25  A    between atoms: C_43  and  N_49 
REMARK   26  A    between atoms: O_50  and  P_51 
REMARK   27  A    between atoms: P_51  and  O_52 
REMARK   28  A    between atoms: P_51  and  O_54 
ROOT
HETATM    1  P   UNK N   1      34.059  17.543   7.913  0.00  0.00     0.401 P 
HETATM    2  O   UNK N   1      34.557  17.935   6.496  0.00  0.00    -0.631 OA
ENDROOT
BRANCH   1   3
HETATM    3  O   UNK N   1      35.299  16.942   8.991  0.00  0.00    -0.294 OA
BRANCH   3   4
HETATM    4  C   UNK N   1      34.712  16.725  10.242  0.00  0.00     0.215 C 
BRANCH   4   5
HETATM    5  C   UNK N   1      34.465  15.226  10.443  0.00  0.00     0.180 C 
HETATM    6  C   UNK N   1      35.339  14.422   9.499  0.00  0.00     0.197 C 
HETATM    7  C   UNK N   1      35.565  13.197  10.299  0.00  0.00     0.199 C 
HETATM    8  C   UNK N   1      35.622  13.729  11.705  0.00  0.00     0.262 C 
HETATM    9  O   UNK N   1      34.742  14.833  11.776  0.00  0.00    -0.353 OA
BRANCH   6  10
HETATM   10  O   UNK N   1      34.636  14.066   8.339  0.00  0.00    -0.286 OA
BRANCH  10  11
HETATM   11  P   UNK N   1      33.481  12.863   8.814  0.00  0.00     0.391 P 
HETATM   12  O   UNK N   1      32.526  13.829   8.067  0.00  0.00    -0.632 OA
BRANCH  11  13
HETATM   13  O   UNK N   1      34.591  12.264   7.621  0.00  0.00    -0.307 OA
HETATM   14  H   UNK N   1      35.146  11.468   7.648  0.00  0.00     0.222 HD
ENDBRANCH  11  13
BRANCH  11  15
HETATM   15  O   UNK N   1      32.751  11.748   7.704  0.00  0.00    -0.307 OA
HETATM   16  H   UNK N   1      32.614  11.649   6.749  0.00  0.00     0.222 HD
ENDBRANCH  11  15
ENDBRANCH  10  11
ENDBRANCH   6  10
BRANCH   7  17
HETATM   17  O   UNK N   1      36.762  12.579   9.948  0.00  0.00    -0.388 OA
HETATM   18  H   UNK N   1      36.795  11.941   9.219  0.00  0.00     0.210 HD
ENDBRANCH   7  17
BRANCH   8  19
HETATM   19  N   UNK N   1      35.228  12.653  12.625  0.00  0.00    -0.297 N 
HETATM   20  C   UNK N   1      35.314  12.664  13.964  0.00  0.00     0.142 A 
HETATM   21  C   UNK N   1      34.897  11.479  14.450  0.00  0.00     0.122 A 
HETATM   22  N   UNK N   1      35.749  13.667  14.763  0.00  0.00    -0.336 N 
HETATM   23  N   UNK N   1      34.522  10.676  13.436  0.00  0.00    -0.346 N 
HETATM   24  C   UNK N   1      34.912  11.247  15.818  0.00  0.00     0.131 A 
HETATM   25  C   UNK N   1      34.734  11.426  12.314  0.00  0.00     0.188 A 
ATOM     26  HN  UNK N   1      34.162   9.724  13.493  1.00  0.00     0.167 HD
HETATM   27  N   UNK N   1      35.350  12.251  16.634  0.00  0.00    -0.337 N 
HETATM   28  C   UNK N   1      35.764  13.453  16.115  0.00  0.00     0.183 A 
ATOM     29  HN  UNK N   1      35.371  12.105  17.644  1.00  0.00     0.168 HD
ATOM     30  HN  UNK N   1      36.057  14.555  14.368  1.00  0.00     0.168 HD
BRANCH  24  31
HETATM   31  N   UNK N   1      34.494  10.014  16.359  0.00  0.00    -0.383 N 
HETATM   32  H   UNK N   1      33.750   9.498  15.972  0.00  0.00     0.157 HD
HETATM   33  H   UNK N   1      34.962   9.657  17.148  0.00  0.00     0.157 HD
ENDBRANCH  24  31
ENDBRANCH   8  19
ENDBRANCH   4   5
ENDBRANCH   3   4
ENDBRANCH   1   3
BRANCH   1  34
HETATM   34  O   UNK N   1      34.863  19.017   8.352  0.00  0.00    -0.307 OA
HETATM   35  H   UNK N   1      34.538  19.931   8.378  0.00  0.00     0.222 HD
ENDBRANCH   1  34
BRANCH   1  36
HETATM   36  O   UNK N   1      32.720  18.488   8.520  0.00  0.00    -0.195 OA
BRANCH  36  37
HETATM   37  P   UNK N   1      31.231  17.598   8.283  0.00  0.00     0.401 P 
HETATM   38  O   UNK N   1      30.049  18.516   8.693  0.00  0.00    -0.631 OA
BRANCH  37  39
HETATM   39  O   UNK N   1      30.974  17.062   6.645  0.00  0.00    -0.296 OA
BRANCH  39  40
HETATM   40  C   UNK N   1      29.606  17.243   6.359  0.00  0.00     0.192 C 
BRANCH  40  41
HETATM   41  C   UNK N   1      29.120  16.232   5.303  0.00  0.00     0.009 C 
HETATM   42  C   UNK N   1      30.148  15.115   5.216  0.00  0.00     0.020 C 
HETATM   43  C   UNK N   1      27.831  15.607   5.801  0.00  0.00     0.020 C 
BRANCH  41  44
HETATM   44  C   UNK N   1      28.815  16.926   3.937  0.00  0.00     0.219 C 
BRANCH  44  45
HETATM   45  C   UNK N   1      27.600  17.814   3.893  0.00  0.00     0.247 C 
HETATM   46  N   UNK N   1      27.780  19.161   3.880  0.00  0.00    -0.358 N 
HETATM   47  H   UNK N   1      28.694  19.476   3.692  0.00  0.00     0.162 HD
HETATM   48  O   UNK N   1      26.485  17.325   3.982  0.00  0.00    -0.271 OA
BRANCH  46  49
HETATM   49  C   UNK N   1      26.781  20.185   4.112  0.00  0.00     0.132 C 
BRANCH  49  50
HETATM   50  C   UNK N   1      25.930  20.572   2.917  0.00  0.00     0.122 C 
BRANCH  50  51
HETATM   51  C   UNK N   1      24.504  20.216   3.208  0.00  0.00     0.219 C 
HETATM   52  N   UNK N   1      24.216  19.141   3.985  0.00  0.00    -0.360 N 
HETATM   53  H   UNK N   1      24.954  18.630   4.389  0.00  0.00     0.162 HD
HETATM   54  O   UNK N   1      23.609  20.884   2.716  0.00  0.00    -0.274 OA
BRANCH  52  55
HETATM   55  C   UNK N   1      22.857  18.726   4.235  0.00  0.00     0.133 C 
BRANCH  55  56
HETATM   56  C   UNK N   1      22.817  17.733   5.376  0.00  0.00     0.102 C 
BRANCH  56  57
HETATM   57  S   UNK N   1      21.178  16.955   5.418  0.00  0.00    -0.086 SA
BRANCH  57  58
HETATM   58  C   UNK N   1      20.772  17.669   7.017  0.00  0.00     0.214 C 
HETATM   59  O   UNK N   1      20.941  18.866   7.188  0.00  0.00    -0.280 OA
BRANCH  58  60
HETATM   60  C   UNK N   1      20.255  16.832   8.124  0.00  0.00    -0.014 C 
HETATM   61  C   UNK N   1      19.082  17.290   8.926  0.00  0.00     0.052 C 
HETATM   62  C   UNK N   1      20.824  15.666   8.426  0.00  0.00     0.023 C 
ENDBRANCH  58  60
ENDBRANCH  57  58
ENDBRANCH  56  57
ENDBRANCH  55  56
ENDBRANCH  52  55
ENDBRANCH  50  51
ENDBRANCH  49  50
ENDBRANCH  46  49
ENDBRANCH  44  45
BRANCH  44  63
HETATM   63  O   UNK N   1      28.694  16.009   2.889  0.00  0.00    -0.385 OA
HETATM   64  H   UNK N   1      29.295  15.277   2.678  0.00  0.00     0.210 HD
ENDBRANCH  44  63
ENDBRANCH  41  44
ENDBRANCH  40  41
ENDBRANCH  39  40
ENDBRANCH  37  39
BRANCH  37  65
HETATM   65  O   UNK N   1      31.215  16.251   9.381  0.00  0.00    -0.307 OA
HETATM   66  H   UNK N   1      30.888  16.033  10.268  0.00  0.00     0.222 HD
ENDBRANCH  37  65
ENDBRANCH  36  37
ENDBRANCH   1  36
TORSDOF 28
ENDMDL
MODEL 7
REMARK VINA RESULT:      -6.4      5.012     11.182
REMARK  28 active torsions:
REMARK  status: ('A' for Active; 'I' for Inactive)
REMARK    1  A    between atoms: C_1  and  C_2 
REMARK    2  A    between atoms: C_2  and  S_3 
REMARK    3  A    between atoms: S_3  and  C_4 
REMARK    4  A    between atoms: C_4  and  C_5 
REMARK    5  A    between atoms: C_5  and  N_6 
REMARK       I    between atoms: N_6  and  C_7 
REMARK    6  A    between atoms: C_7  and  C_8 
REMARK    7  A    between atoms: C_8  and  C_9 
REMARK    8  A    between atoms: C_9  and  N_10 
REMARK       I    between atoms: N_10  and  C_11 
REMARK    9  A    between atoms: C_11  and  C_12 
REMARK   10  A    between atoms: C_12  and  C_13 
REMARK   11  A    between atoms: C_12  and  O_19 
REMARK   12  A    between atoms: C_13  and  C_14 
REMARK   13  A    between atoms: C_14  and  O_15 
REMARK   14  A    between atoms: O_15  and  P_22 
REMARK   15  A    between atoms: P_22  and  O_24 
REMARK   16  A    between atoms: P_22  and  O_54 
REMARK   17  A    between atoms: C_25  and  O_31 
REMARK   18  A    between atoms: C_26  and  O_32 
REMARK   19  A    between atoms: C_27  and  C_30 
REMARK   20  A    between atoms: C_29  and  N_39 
REMARK   21  A    between atoms: C_30  and  O_50 
REMARK   22  A    between atoms: O_32  and  P_33 
REMARK   23  A    between atoms: P_33  and  O_34 
REMARK   24  A    between atoms: P_33  and  O_35 
REMARK   25  A    between atoms: C_43  and  N_49 
REMARK   26  A    between atoms: O_50  and  P_51 
REMARK   27  A    between atoms: P_51  and  O_52 
REMARK   28  A    between atoms: P_51  and  O_54 
ROOT
HETATM    1  P   UNK N   1      25.074  13.969   6.094  0.00  0.00     0.401 P 
HETATM    2  O   UNK N   1      26.020  12.737   6.065  0.00  0.00    -0.631 OA
ENDROOT
BRANCH   1   3
HETATM    3  O   UNK N   1      23.519  13.687   6.846  0.00  0.00    -0.294 OA
BRANCH   3   4
HETATM    4  C   UNK N   1      22.641  13.229   5.857  0.00  0.00     0.215 C 
BRANCH   4   5
HETATM    5  C   UNK N   1      21.565  14.288   5.593  0.00  0.00     0.180 C 
HETATM    6  C   UNK N   1      21.288  15.078   6.858  0.00  0.00     0.197 C 
HETATM    7  C   UNK N   1      20.920  16.396   6.292  0.00  0.00     0.199 C 
HETATM    8  C   UNK N   1      21.803  16.491   5.078  0.00  0.00     0.262 C 
HETATM    9  O   UNK N   1      21.963  15.181   4.568  0.00  0.00    -0.353 OA
BRANCH   6  10
HETATM   10  O   UNK N   1      20.176  14.566   7.541  0.00  0.00    -0.286 OA
BRANCH  10  11
HETATM   11  P   UNK N   1      20.633  14.452   9.209  0.00  0.00     0.391 P 
HETATM   12  O   UNK N   1      19.135  14.805   9.397  0.00  0.00    -0.632 OA
BRANCH  11  13
HETATM   13  O   UNK N   1      20.671  12.907   8.417  0.00  0.00    -0.307 OA
HETATM   14  H   UNK N   1      21.292  12.172   8.543  0.00  0.00     0.222 HD
ENDBRANCH  11  13
BRANCH  11  15
HETATM   15  O   UNK N   1      20.155  13.145  10.244  0.00  0.00    -0.307 OA
HETATM   16  H   UNK N   1      19.377  12.854  10.744  0.00  0.00     0.222 HD
ENDBRANCH  11  15
ENDBRANCH  10  11
ENDBRANCH   6  10
BRANCH   7  17
HETATM   17  O   UNK N   1      21.191  17.425   7.190  0.00  0.00    -0.388 OA
HETATM   18  H   UNK N   1      20.784  18.298   7.081  0.00  0.00     0.210 HD
ENDBRANCH   7  17
BRANCH   8  19
HETATM   19  N   UNK N   1      21.161  17.383   4.104  0.00  0.00    -0.297 N 
HETATM   20  C   UNK N   1      21.687  18.485   3.548  0.00  0.00     0.142 A 
HETATM   21  C   UNK N   1      20.776  19.059   2.739  0.00  0.00     0.122 A 
HETATM   22  N   UNK N   1      22.925  19.001   3.732  0.00  0.00    -0.336 N 
HETATM   23  N   UNK N   1      19.640  18.336   2.746  0.00  0.00    -0.346 N 
HETATM   24  C   UNK N   1      21.088  20.229   2.063  0.00  0.00     0.131 A 
HETATM   25  C   UNK N   1      19.902  17.301   3.598  0.00  0.00     0.188 A 
ATOM     26  HN  UNK N   1      18.778  18.520   2.232  1.00  0.00     0.167 HD
HETATM   27  N   UNK N   1      22.334  20.760   2.241  0.00  0.00    -0.337 N 
HETATM   28  C   UNK N   1      23.249  20.152   3.067  0.00  0.00     0.183 A 
ATOM     29  HN  UNK N   1      22.590  21.620   1.755  1.00  0.00     0.168 HD
ATOM     30  HN  UNK N   1      23.597  18.544   4.349  1.00  0.00     0.168 HD
BRANCH  24  31
HETATM   31  N   UNK N   1      20.154  20.863   1.219  0.00  0.00    -0.383 N 
HETATM   32  H   UNK N   1      19.274  20.467   1.023  0.00  0.00     0.157 HD
HETATM   33  H   UNK N   1      20.388  21.728   0.812  0.00  0.00     0.157 HD
ENDBRANCH  24  31
ENDBRANCH   8  19
ENDBRANCH   4   5
ENDBRANCH   3   4
ENDBRANCH   1   3
BRANCH   1  34
HETATM   34  O   UNK N   1      25.509  13.974   7.774  0.00  0.00    -0.307 OA
HETATM   35  H   UNK N   1      25.807  14.697   8.348  0.00  0.00     0.222 HD
ENDBRANCH   1  34
BRANCH   1  36
HETATM   36  O   UNK N   1      25.871  15.518   6.230  0.00  0.00    -0.195 OA
BRANCH  36  37
HETATM   37  P   UNK N   1      25.914  16.285   4.656  0.00  0.00     0.401 P 
HETATM   38  O   UNK N   1      25.470  17.762   4.826  0.00  0.00    -0.631 OA
BRANCH  37  39
HETATM   39  O   UNK N   1      27.481  16.261   3.894  0.00  0.00    -0.296 OA
BRANCH  39  40
HETATM   40  C   UNK N   1      28.326  15.481   4.708  0.00  0.00     0.192 C 
BRANCH  40  41
HETATM   41  C   UNK N   1      29.809  15.779   4.417  0.00  0.00     0.009 C 
HETATM   42  C   UNK N   1      30.635  14.626   4.965  0.00  0.00     0.020 C 
HETATM   43  C   UNK N   1      30.005  15.785   2.913  0.00  0.00     0.020 C 
BRANCH  41  44
HETATM   44  C   UNK N   1      30.234  17.182   4.957  0.00  0.00     0.219 C 
BRANCH  44  45
HETATM   45  C   UNK N   1      30.467  17.286   6.441  0.00  0.00     0.247 C 
HETATM   46  N   UNK N   1      31.748  17.338   6.895  0.00  0.00    -0.358 N 
HETATM   47  H   UNK N   1      32.443  17.512   6.220  0.00  0.00     0.162 HD
HETATM   48  O   UNK N   1      29.524  17.210   7.213  0.00  0.00    -0.271 OA
BRANCH  46  49
HETATM   49  C   UNK N   1      32.205  17.166   8.259  0.00  0.00     0.132 C 
BRANCH  49  50
HETATM   50  C   UNK N   1      33.540  17.802   8.603  0.00  0.00     0.122 C 
BRANCH  50  51
HETATM   51  C   UNK N   1      34.440  16.749   9.172  0.00  0.00     0.219 C 
HETATM   52  N   UNK N   1      34.840  16.821  10.467  0.00  0.00    -0.360 N 
HETATM   53  H   UNK N   1      34.494  17.547  11.036  0.00  0.00     0.162 HD
HETATM   54  O   UNK N   1      34.833  15.845   8.451  0.00  0.00    -0.274 OA
BRANCH  52  55
HETATM   55  C   UNK N   1      35.759  15.865  11.034  0.00  0.00     0.133 C 
BRANCH  55  56
HETATM   56  C   UNK N   1      34.996  14.733  11.687  0.00  0.00     0.102 C 
BRANCH  56  57
HETATM   57  S   UNK N   1      35.887  14.212  13.181  0.00  0.00    -0.086 SA
BRANCH  57  58
HETATM   58  C   UNK N   1      35.042  12.627  13.250  0.00  0.00     0.214 C 
HETATM   59  O   UNK N   1      34.907  11.985  12.220  0.00  0.00    -0.280 OA
BRANCH  58  60
HETATM   60  C   UNK N   1      34.498  12.099  14.523  0.00  0.00    -0.014 C 
HETATM   61  C   UNK N   1      34.805  12.786  15.812  0.00  0.00     0.052 C 
HETATM   62  C   UNK N   1      33.732  11.010  14.541  0.00  0.00     0.023 C 
ENDBRANCH  58  60
ENDBRANCH  57  58
ENDBRANCH  56  57
ENDBRANCH  55  56
ENDBRANCH  52  55
ENDBRANCH  50  51
ENDBRANCH  49  50
ENDBRANCH  46  49
ENDBRANCH  44  45
BRANCH  44  63
HETATM   63  O   UNK N   1      29.324  18.184   4.611  0.00  0.00    -0.385 OA
HETATM   64  H   UNK N   1      28.530  18.450   5.101  0.00  0.00     0.210 HD
ENDBRANCH  44  63
ENDBRANCH  41  44
ENDBRANCH  40  41
ENDBRANCH  39  40
ENDBRANCH  37  39
BRANCH  37  65
HETATM   65  O   UNK N   1      24.725  15.524   3.642  0.00  0.00    -0.307 OA
HETATM   66  H   UNK N   1      23.779  15.309   3.657  0.00  0.00     0.222 HD
ENDBRANCH  37  65
ENDBRANCH  36  37
ENDBRANCH   1  36
TORSDOF 28
ENDMDL
MODEL 8
REMARK VINA RESULT:      -6.4      7.864     11.549
REMARK  28 active torsions:
REMARK  status: ('A' for Active; 'I' for Inactive)
REMARK    1  A    between atoms: C_1  and  C_2 
REMARK    2  A    between atoms: C_2  and  S_3 
REMARK    3  A    between atoms: S_3  and  C_4 
REMARK    4  A    between atoms: C_4  and  C_5 
REMARK    5  A    between atoms: C_5  and  N_6 
REMARK       I    between atoms: N_6  and  C_7 
REMARK    6  A    between atoms: C_7  and  C_8 
REMARK    7  A    between atoms: C_8  and  C_9 
REMARK    8  A    between atoms: C_9  and  N_10 
REMARK       I    between atoms: N_10  and  C_11 
REMARK    9  A    between atoms: C_11  and  C_12 
REMARK   10  A    between atoms: C_12  and  C_13 
REMARK   11  A    between atoms: C_12  and  O_19 
REMARK   12  A    between atoms: C_13  and  C_14 
REMARK   13  A    between atoms: C_14  and  O_15 
REMARK   14  A    between atoms: O_15  and  P_22 
REMARK   15  A    between atoms: P_22  and  O_24 
REMARK   16  A    between atoms: P_22  and  O_54 
REMARK   17  A    between atoms: C_25  and  O_31 
REMARK   18  A    between atoms: C_26  and  O_32 
REMARK   19  A    between atoms: C_27  and  C_30 
REMARK   20  A    between atoms: C_29  and  N_39 
REMARK   21  A    between atoms: C_30  and  O_50 
REMARK   22  A    between atoms: O_32  and  P_33 
REMARK   23  A    between atoms: P_33  and  O_34 
REMARK   24  A    between atoms: P_33  and  O_35 
REMARK   25  A    between atoms: C_43  and  N_49 
REMARK   26  A    between atoms: O_50  and  P_51 
REMARK   27  A    between atoms: P_51  and  O_52 
REMARK   28  A    between atoms: P_51  and  O_54 
ROOT
HETATM    1  P   UNK N   1      34.104  15.455   9.412  0.00  0.00     0.401 P 
HETATM    2  O   UNK N   1      32.605  15.208   9.092  0.00  0.00    -0.631 OA
ENDROOT
BRANCH   1   3
HETATM    3  O   UNK N   1      34.887  14.173  10.310  0.00  0.00    -0.294 OA
BRANCH   3   4
HETATM    4  C   UNK N   1      34.705  14.431  11.673  0.00  0.00     0.215 C 
BRANCH   4   5
HETATM    5  C   UNK N   1      34.969  13.154  12.478  0.00  0.00     0.180 C 
HETATM    6  C   UNK N   1      36.303  12.551  12.080  0.00  0.00     0.197 C 
HETATM    7  C   UNK N   1      36.718  11.920  13.353  0.00  0.00     0.199 C 
HETATM    8  C   UNK N   1      36.179  12.873  14.384  0.00  0.00     0.262 C 
HETATM    9  O   UNK N   1      34.978  13.416  13.870  0.00  0.00    -0.353 OA
BRANCH   6  10
HETATM   10  O   UNK N   1      36.136  11.540  11.122  0.00  0.00    -0.286 OA
BRANCH  10  11
HETATM   11  P   UNK N   1      37.444  11.708   9.997  0.00  0.00     0.391 P 
HETATM   12  O   UNK N   1      37.612  10.205  10.335  0.00  0.00    -0.632 OA
BRANCH  11  13
HETATM   13  O   UNK N   1      35.897  11.860   9.222  0.00  0.00    -0.307 OA
HETATM   14  H   UNK N   1      35.020  11.953   9.625  0.00  0.00     0.222 HD
ENDBRANCH  11  13
BRANCH  11  15
HETATM   15  O   UNK N   1      37.418  11.046   8.394  0.00  0.00    -0.307 OA
HETATM   16  H   UNK N   1      37.276  10.192   7.956  0.00  0.00     0.222 HD
ENDBRANCH  11  15
ENDBRANCH  10  11
ENDBRANCH   6  10
BRANCH   7  17
HETATM   17  O   UNK N   1      38.104  11.821  13.439  0.00  0.00    -0.388 OA
HETATM   18  H   UNK N   1      38.554  10.980  13.261  0.00  0.00     0.210 HD
ENDBRANCH   7  17
BRANCH   8  19
HETATM   19  N   UNK N   1      35.955  12.130  15.631  0.00  0.00    -0.297 N 
HETATM   20  C   UNK N   1      35.656  12.644  16.834  0.00  0.00     0.142 A 
HETATM   21  C   UNK N   1      35.572  11.649  17.738  0.00  0.00     0.122 A 
HETATM   22  N   UNK N   1      35.466  13.944  17.162  0.00  0.00    -0.336 N 
HETATM   23  N   UNK N   1      35.805  10.466  17.139  0.00  0.00    -0.346 N 
HETATM   24  C   UNK N   1      35.288  11.940  19.065  0.00  0.00     0.131 A 
HETATM   25  C   UNK N   1      36.038  10.789  15.832  0.00  0.00     0.188 A 
ATOM     26  HN  UNK N   1      35.807   9.539  17.564  1.00  0.00     0.167 HD
HETATM   27  N   UNK N   1      35.095  13.248  19.408  0.00  0.00    -0.337 N 
HETATM   28  C   UNK N   1      35.180  14.245  18.466  0.00  0.00     0.183 A 
ATOM     29  HN  UNK N   1      34.886  13.489  20.377  1.00  0.00     0.168 HD
ATOM     30  HN  UNK N   1      35.534  14.677  16.456  1.00  0.00     0.168 HD
BRANCH  24  31
HETATM   31  N   UNK N   1      35.205  10.924  20.039  0.00  0.00    -0.383 N 
HETATM   32  H   UNK N   1      35.997  10.601  20.527  0.00  0.00     0.157 HD
HETATM   33  H   UNK N   1      34.327  10.526  20.239  0.00  0.00     0.157 HD
ENDBRANCH  24  31
ENDBRANCH   8  19
ENDBRANCH   4   5
ENDBRANCH   3   4
ENDBRANCH   1   3
BRANCH   1  34
HETATM   34  O   UNK N   1      34.328  14.265   8.169  0.00  0.00    -0.307 OA
HETATM   35  H   UNK N   1      34.076  14.274   7.232  0.00  0.00     0.222 HD
ENDBRANCH   1  34
BRANCH   1  36
HETATM   36  O   UNK N   1      34.980  16.380   8.216  0.00  0.00    -0.195 OA
BRANCH  36  37
HETATM   37  P   UNK N   1      34.086  17.840   7.847  0.00  0.00     0.401 P 
HETATM   38  O   UNK N   1      34.919  19.053   8.337  0.00  0.00    -0.631 OA
BRANCH  37  39
HETATM   39  O   UNK N   1      33.738  18.054   6.153  0.00  0.00    -0.296 OA
BRANCH  39  40
HETATM   40  C   UNK N   1      33.810  16.782   5.551  0.00  0.00     0.192 C 
BRANCH  40  41
HETATM   41  C   UNK N   1      32.605  16.538   4.623  0.00  0.00     0.009 C 
HETATM   42  C   UNK N   1      32.069  17.891   4.185  0.00  0.00     0.020 C 
HETATM   43  C   UNK N   1      33.103  15.837   3.373  0.00  0.00     0.020 C 
BRANCH  41  44
HETATM   44  C   UNK N   1      31.537  15.614   5.291  0.00  0.00     0.219 C 
BRANCH  44  45
HETATM   45  C   UNK N   1      30.266  16.280   5.747  0.00  0.00     0.247 C 
HETATM   46  N   UNK N   1      30.206  16.764   7.017  0.00  0.00    -0.358 N 
HETATM   47  H   UNK N   1      31.062  16.836   7.497  0.00  0.00     0.162 HD
HETATM   48  O   UNK N   1      29.284  16.279   5.023  0.00  0.00    -0.271 OA
BRANCH  46  49
HETATM   49  C   UNK N   1      29.025  17.185   7.742  0.00  0.00     0.132 C 
BRANCH  49  50
HETATM   50  C   UNK N   1      28.859  18.680   7.942  0.00  0.00     0.122 C 
BRANCH  50  51
HETATM   51  C   UNK N   1      27.805  19.177   7.002  0.00  0.00     0.219 C 
HETATM   52  N   UNK N   1      27.250  18.333   6.094  0.00  0.00    -0.360 N 
HETATM   53  H   UNK N   1      27.518  17.385   6.094  0.00  0.00     0.162 HD
HETATM   54  O   UNK N   1      27.472  20.350   7.042  0.00  0.00    -0.274 OA
BRANCH  52  55
HETATM   55  C   UNK N   1      26.280  18.786   5.128  0.00  0.00     0.133 C 
BRANCH  55  56
HETATM   56  C   UNK N   1      26.245  17.845   3.944  0.00  0.00     0.102 C 
BRANCH  56  57
HETATM   57  S   UNK N   1      24.869  16.681   4.162  0.00  0.00    -0.086 SA
BRANCH  57  58
HETATM   58  C   UNK N   1      25.960  15.254   4.233  0.00  0.00     0.214 C 
HETATM   59  O   UNK N   1      26.552  14.914   3.220  0.00  0.00    -0.280 OA
BRANCH  58  60
HETATM   60  C   UNK N   1      26.137  14.482   5.484  0.00  0.00    -0.014 C 
HETATM   61  C   UNK N   1      25.897  15.131   6.807  0.00  0.00     0.052 C 
HETATM   62  C   UNK N   1      26.514  13.204   5.454  0.00  0.00     0.023 C 
ENDBRANCH  58  60
ENDBRANCH  57  58
ENDBRANCH  56  57
ENDBRANCH  55  56
ENDBRANCH  52  55
ENDBRANCH  50  51
ENDBRANCH  49  50
ENDBRANCH  46  49
ENDBRANCH  44  45
BRANCH  44  63
HETATM   63  O   UNK N   1      32.050  14.911   6.385  0.00  0.00    -0.385 OA
HETATM   64  H   UNK N   1      31.754  14.050   6.719  0.00  0.00     0.210 HD
ENDBRANCH  44  63
ENDBRANCH  41  44
ENDBRANCH  40  41
ENDBRANCH  39  40
ENDBRANCH  37  39
BRANCH  37  65
HETATM   65  O   UNK N   1      32.620  17.837   8.781  0.00  0.00    -0.307 OA
HETATM   66  H   UNK N   1      32.336  17.973   9.698  0.00  0.00     0.222 HD
ENDBRANCH  37  65
ENDBRANCH  36  37
ENDBRANCH   1  36
TORSDOF 28
ENDMDL
MODEL 9
REMARK VINA RESULT:      -6.3      8.007     13.539
REMARK  28 active torsions:
REMARK  status: ('A' for Active; 'I' for Inactive)
REMARK    1  A    between atoms: C_1  and  C_2 
REMARK    2  A    between atoms: C_2  and  S_3 
REMARK    3  A    between atoms: S_3  and  C_4 
REMARK    4  A    between atoms: C_4  and  C_5 
REMARK    5  A    between atoms: C_5  and  N_6 
REMARK       I    between atoms: N_6  and  C_7 
REMARK    6  A    between atoms: C_7  and  C_8 
REMARK    7  A    between atoms: C_8  and  C_9 
REMARK    8  A    between atoms: C_9  and  N_10 
REMARK       I    between atoms: N_10  and  C_11 
REMARK    9  A    between atoms: C_11  and  C_12 
REMARK   10  A    between atoms: C_12  and  C_13 
REMARK   11  A    between atoms: C_12  and  O_19 
REMARK   12  A    between atoms: C_13  and  C_14 
REMARK   13  A    between atoms: C_14  and  O_15 
REMARK   14  A    between atoms: O_15  and  P_22 
REMARK   15  A    between atoms: P_22  and  O_24 
REMARK   16  A    between atoms: P_22  and  O_54 
REMARK   17  A    between atoms: C_25  and  O_31 
REMARK   18  A    between atoms: C_26  and  O_32 
REMARK   19  A    between atoms: C_27  and  C_30 
REMARK   20  A    between atoms: C_29  and  N_39 
REMARK   21  A    between atoms: C_30  and  O_50 
REMARK   22  A    between atoms: O_32  and  P_33 
REMARK   23  A    between atoms: P_33  and  O_34 
REMARK   24  A    between atoms: P_33  and  O_35 
REMARK   25  A    between atoms: C_43  and  N_49 
REMARK   26  A    between atoms: O_50  and  P_51 
REMARK   27  A    between atoms: P_51  and  O_52 
REMARK   28  A    between atoms: P_51  and  O_54 
ROOT
HETATM    1  P   UNK N   1      33.356  14.904   9.246  0.00  0.00     0.401 P 
HETATM    2  O   UNK N   1      32.317  13.898   8.680  0.00  0.00    -0.631 OA
ENDROOT
BRANCH   1   3
HETATM    3  O   UNK N   1      33.057  16.580   8.840  0.00  0.00    -0.294 OA
BRANCH   3   4
HETATM    4  C   UNK N   1      33.915  16.927   7.791  0.00  0.00     0.215 C 
BRANCH   4   5
HETATM    5  C   UNK N   1      33.114  17.051   6.490  0.00  0.00     0.180 C 
HETATM    6  C   UNK N   1      33.092  15.719   5.763  0.00  0.00     0.197 C 
HETATM    7  C   UNK N   1      31.777  15.790   5.087  0.00  0.00     0.199 C 
HETATM    8  C   UNK N   1      30.936  16.541   6.081  0.00  0.00     0.262 C 
HETATM    9  O   UNK N   1      31.782  17.461   6.742  0.00  0.00    -0.353 OA
BRANCH   6  10
HETATM   10  O   UNK N   1      34.090  15.663   4.779  0.00  0.00    -0.286 OA
BRANCH  10  11
HETATM   11  P   UNK N   1      34.799  14.085   4.887  0.00  0.00     0.391 P 
HETATM   12  O   UNK N   1      34.746  14.216   3.344  0.00  0.00    -0.632 OA
BRANCH  11  13
HETATM   13  O   UNK N   1      35.882  15.325   5.441  0.00  0.00    -0.307 OA
HETATM   14  H   UNK N   1      36.401  15.959   4.921  0.00  0.00     0.222 HD
ENDBRANCH  11  13
BRANCH  11  15
HETATM   15  O   UNK N   1      36.460  13.755   4.510  0.00  0.00    -0.307 OA
HETATM   16  H   UNK N   1      37.286  14.239   4.358  0.00  0.00     0.222 HD
ENDBRANCH  11  15
ENDBRANCH  10  11
ENDBRANCH   6  10
BRANCH   7  17
HETATM   17  O   UNK N   1      31.260  14.518   4.853  0.00  0.00    -0.388 OA
HETATM   18  H   UNK N   1      30.378  14.274   5.175  0.00  0.00     0.210 HD
ENDBRANCH   7  17
BRANCH   8  19
HETATM   19  N   UNK N   1      29.851  17.217   5.357  0.00  0.00    -0.297 N 
HETATM   20  C   UNK N   1      28.936  18.054   5.869  0.00  0.00     0.142 A 
HETATM   21  C   UNK N   1      28.081  18.433   4.900  0.00  0.00     0.122 A 
HETATM   22  N   UNK N   1      28.824  18.485   7.148  0.00  0.00    -0.336 N 
HETATM   23  N   UNK N   1      28.429  17.856   3.734  0.00  0.00    -0.346 N 
HETATM   24  C   UNK N   1      27.032  19.290   5.197  0.00  0.00     0.131 A 
HETATM   25  C   UNK N   1      29.530  17.109   4.041  0.00  0.00     0.188 A 
ATOM     26  HN  UNK N   1      27.973  17.955   2.827  1.00  0.00     0.167 HD
HETATM   27  N   UNK N   1      26.908  19.731   6.484  0.00  0.00    -0.337 N 
HETATM   28  C   UNK N   1      27.797  19.335   7.455  0.00  0.00     0.183 A 
ATOM     29  HN  UNK N   1      26.145  20.362   6.729  1.00  0.00     0.168 HD
ATOM     30  HN  UNK N   1      29.488  18.184   7.862  1.00  0.00     0.168 HD
BRANCH  24  31
HETATM   31  N   UNK N   1      26.111  19.696   4.209  0.00  0.00    -0.383 N 
HETATM   32  H   UNK N   1      26.353  19.741   3.256  0.00  0.00     0.157 HD
HETATM   33  H   UNK N   1      25.198  19.943   4.481  0.00  0.00     0.157 HD
ENDBRANCH  24  31
ENDBRANCH   8  19
ENDBRANCH   4   5
ENDBRANCH   3   4
ENDBRANCH   1   3
BRANCH   1  34
HETATM   34  O   UNK N   1      32.055  15.283  10.331  0.00  0.00    -0.307 OA
HETATM   35  H   UNK N   1      31.178  14.882  10.431  0.00  0.00     0.222 HD
ENDBRANCH   1  34
BRANCH   1  36
HETATM   36  O   UNK N   1      34.061  14.463  10.782  0.00  0.00    -0.195 OA
BRANCH  36  37
HETATM   37  P   UNK N   1      35.442  15.492  11.101  0.00  0.00     0.401 P 
HETATM   38  O   UNK N   1      36.001  15.130  12.502  0.00  0.00    -0.631 OA
BRANCH  37  39
HETATM   39  O   UNK N   1      36.728  15.341   9.935  0.00  0.00    -0.296 OA
BRANCH  39  40
HETATM   40  C   UNK N   1      37.580  14.314  10.389  0.00  0.00     0.192 C 
BRANCH  40  41
HETATM   41  C   UNK N   1      37.534  13.096   9.447  0.00  0.00     0.009 C 
HETATM   42  C   UNK N   1      37.008  13.565   8.101  0.00  0.00     0.020 C 
HETATM   43  C   UNK N   1      38.956  12.618   9.221  0.00  0.00     0.020 C 
BRANCH  41  44
HETATM   44  C   UNK N   1      36.729  11.912  10.071  0.00  0.00     0.219 C 
BRANCH  44  45
HETATM   45  C   UNK N   1      35.587  11.374   9.250  0.00  0.00     0.247 C 
HETATM   46  N   UNK N   1      34.325  11.478   9.745  0.00  0.00    -0.358 N 
HETATM   47  H   UNK N   1      34.207  12.083  10.514  0.00  0.00     0.162 HD
HETATM   48  O   UNK N   1      35.814  10.759   8.220  0.00  0.00    -0.271 OA
BRANCH  46  49
HETATM   49  C   UNK N   1      33.135  10.803   9.270  0.00  0.00     0.132 C 
BRANCH  49  50
HETATM   50  C   UNK N   1      32.662   9.619  10.095  0.00  0.00     0.122 C 
BRANCH  50  51
HETATM   51  C   UNK N   1      33.591   9.443  11.256  0.00  0.00     0.219 C 
HETATM   52  N   UNK N   1      33.420  10.181  12.382  0.00  0.00    -0.360 N 
HETATM   53  H   UNK N   1      32.654  10.798  12.440  0.00  0.00     0.162 HD
HETATM   54  O   UNK N   1      34.516   8.652  11.168  0.00  0.00    -0.274 OA
BRANCH  52  55
HETATM   55  C   UNK N   1      34.330  10.090  13.498  0.00  0.00     0.133 C 
BRANCH  55  56
HETATM   56  C   UNK N   1      33.770  10.833  14.691  0.00  0.00     0.102 C 
BRANCH  56  57
HETATM   57  S   UNK N   1      34.936  10.684  16.074  0.00  0.00    -0.086 SA
BRANCH  57  58
HETATM   58  C   UNK N   1      34.845  12.435  16.468  0.00  0.00     0.214 C 
HETATM   59  O   UNK N   1      34.534  13.222  15.588  0.00  0.00    -0.280 OA
BRANCH  58  60
HETATM   60  C   UNK N   1      35.153  12.935  17.828  0.00  0.00    -0.014 C 
HETATM   61  C   UNK N   1      35.292  11.979  18.966  0.00  0.00     0.052 C 
HETATM   62  C   UNK N   1      35.309  14.238  18.060  0.00  0.00     0.023 C 
ENDBRANCH  58  60
ENDBRANCH  57  58
ENDBRANCH  56  57
ENDBRANCH  55  56
ENDBRANCH  52  55
ENDBRANCH  50  51
ENDBRANCH  49  50
ENDBRANCH  46  49
ENDBRANCH  44  45
BRANCH  44  63
HETATM   63  O   UNK N   1      36.219  12.221  11.335  0.00  0.00    -0.385 OA
HETATM   64  H   UNK N   1      35.287  12.237  11.603  0.00  0.00     0.210 HD
ENDBRANCH  44  63
ENDBRANCH  41  44
ENDBRANCH  40  41
ENDBRANCH  39  40
ENDBRANCH  37  39
BRANCH  37  65
HETATM   65  O   UNK N   1      34.890  17.137  11.198  0.00  0.00    -0.307 OA
HETATM   66  H   UNK N   1      35.240  18.016  11.414  0.00  0.00     0.222 HD
ENDBRANCH  37  65
ENDBRANCH  36  37
ENDBRANCH   1  36
TORSDOF 28
ENDMDL
