REMARK  3 active torsions:
REMARK  status: ('A' for Active; 'I' for Inactive)
REMARK    1  A    between atoms: C_2  and  C_4 
REMARK    2  A    between atoms: C_4  and  C_5 
REMARK    3  A    between atoms: C_5  and  O_6 
ROOT
HETATM    1  C   UNK N   1       1.709   0.690   0.000  0.00  0.00     0.187 C 
ENDROOT
BRANCH   1   2
HETATM    2  C   UNK N   1       0.928   1.977   0.000  0.00  0.00     0.132 C 
HETATM    3  C   UNK N   1       1.677   3.262  -0.000  0.00  0.00     0.091 C 
HETATM    4  O   UNK N   1      -0.292   1.993  -0.000  0.00  0.00    -0.298 OA
ENDBRANCH   1   2
BRANCH   1   5
HETATM    5  C   UNK N   1       0.929  -0.598  -0.000  0.00  0.00     0.146 C 
HETATM    6  O   UNK N   1      -0.291  -0.609   0.000  0.00  0.00    -0.650 OA
BRANCH   5   7
HETATM    7  O   UNK N   1       1.602  -1.763   0.000  0.00  0.00    -0.776 OA
HETATM    8  H   UNK N   1       1.134  -2.575   0.000  0.00  0.00     0.167 HD
ENDBRANCH   5   7
ENDBRANCH   1   5
TORSDOF 3
