REMARK  13 active torsions:
REMARK  status: ('A' for Active; 'I' for Inactive)
REMARK    1  A    between atoms: C_14  and  C_8 
REMARK    2  A    between atoms: O_24  and  C_8 
REMARK    3  A    between atoms: O_25  and  C_10 
REMARK    4  A    between atoms: O_33  and  C_11 
REMARK    5  A    between atoms: C_13  and  O_26 
REMARK    6  A    between atoms: C_18  and  C_14 
REMARK    7  A    between atoms: C_14  and  O_27 
REMARK    8  A    between atoms: C_17  and  N_22 
REMARK    9  A    between atoms: C_19  and  C_18 
REMARK   10  A    between atoms: C_18  and  O_29 
REMARK   11  A    between atoms: C_21  and  C_20 
REMARK   12  A    between atoms: O_31  and  C_20 
REMARK   13  A    between atoms: C_21  and  O_33 
ROOT
HETATM    1  C   UNK N   1      -1.428  -0.302  -1.263  0.00  0.00     0.114 C 
HETATM    2  C   UNK N   1      -2.412   0.623  -0.552  0.00  0.00     0.149 C 
HETATM    3  C   UNK N   1      -1.703   1.724   0.293  0.00  0.00     0.144 C 
HETATM    4  C   UNK N   1      -0.159   1.628   0.142  0.00  0.00     0.182 C 
HETATM    5  C   UNK N   1      -0.232  -0.728  -0.396  0.00  0.00     0.260 C 
HETATM    6  O   UNK N   1       0.230   0.302   0.485  0.00  0.00    -0.336 OA
ENDROOT
BRANCH   5   7
HETATM    7  C   UNK N   1      -0.625  -1.897   0.479  0.00  0.00     0.206 C 
HETATM    8  O   UNK N   1      -0.075  -2.980   0.350  0.00  0.00    -0.646 OA
BRANCH   7   9
HETATM    9  O   UNK N   1      -1.544  -1.740   1.450  0.00  0.00    -0.772 OA
HETATM   10  H   UNK N   1      -1.769  -1.131   2.126  0.00  0.00     0.167 HD
ENDBRANCH   7   9
ENDBRANCH   5   7
BRANCH   5  11
HETATM   11  O   UNK N   1       0.784  -1.141  -1.256  0.00  0.00    -0.304 OA
BRANCH  11  12
HETATM   12  C   UNK N   1       2.024  -0.612  -1.202  0.00  0.00     0.075 A 
HETATM   13  C   UNK N   1       2.288   0.626  -1.798  0.00  0.00     0.038 A 
HETATM   14  C   UNK N   1       3.518   1.253  -1.595  0.00  0.00     0.017 A 
HETATM   15  C   UNK N   1       4.490   0.640  -0.792  0.00  0.00     0.004 A 
HETATM   16  C   UNK N   1       5.710   1.266  -0.507  0.00  0.00    -0.043 A 
HETATM   17  C   UNK N   1       4.238  -0.633  -0.235  0.00  0.00     0.092 A 
HETATM   18  C   UNK N   1       6.032   2.628  -1.023  0.00  0.00     0.049 C 
HETATM   19  C   UNK N   1       6.634   0.606   0.302  0.00  0.00     0.090 A 
HETATM   20  C   UNK N   1       6.323  -0.660   0.802  0.00  0.00     0.288 A 
HETATM   21  O   UNK N   1       7.127  -1.246   1.506  0.00  0.00    -0.260 OA
HETATM   22  O   UNK N   1       5.153  -1.229   0.527  0.00  0.00    -0.275 OA
HETATM   23  C   UNK N   1       3.006  -1.251  -0.442  0.00  0.00     0.075 A 
ENDBRANCH  11  12
ENDBRANCH   5  11
BRANCH   2  24
HETATM   24  O   UNK N   1      -3.296  -0.112   0.240  0.00  0.00    -0.393 OA
HETATM   25  H   UNK N   1      -4.045   0.164   0.791  0.00  0.00     0.210 HD
ENDBRANCH   2  24
BRANCH   4  26
HETATM   26  C   UNK N   1       0.674   2.554   1.090  0.00  0.00     0.180 C 
BRANCH  26  27
HETATM   27  C   UNK N   1       0.567   4.093   0.943  0.00  0.00     0.173 C 
BRANCH  27  28
HETATM   28  C   UNK N   1       0.909   4.599  -0.456  0.00  0.00     0.198 C 
BRANCH  28  29
HETATM   29  O   UNK N   1       2.271   4.436  -0.722  0.00  0.00    -0.398 OA
HETATM   30  H   UNK N   1       2.645   3.560  -0.907  0.00  0.00     0.209 HD
ENDBRANCH  28  29
ENDBRANCH  27  28
BRANCH  27  31
HETATM   31  O   UNK N   1      -0.692   4.556   1.313  0.00  0.00    -0.391 OA
HETATM   32  H   UNK N   1      -0.852   5.477   1.571  0.00  0.00     0.210 HD
ENDBRANCH  27  31
ENDBRANCH  26  27
BRANCH  26  33
HETATM   33  O   UNK N   1       2.023   2.211   0.953  0.00  0.00    -0.390 OA
HETATM   34  H   UNK N   1       2.285   1.282   0.858  0.00  0.00     0.210 HD
ENDBRANCH  26  33
ENDBRANCH   4  26
BRANCH   3  35
HETATM   35  N   UNK N   1      -2.189   3.031  -0.114  0.00  0.00    -0.365 N 
HETATM   36  C   UNK N   1      -3.385   3.471   0.108  0.00  0.00     0.107 C 
HETATM   37  C   UNK N   1      -4.398   2.668   0.865  0.00  0.00     0.097 C 
ATOM     38  HN  UNK N   1      -1.542   3.645  -0.609  1.00  0.00     0.161 HD
BRANCH  36  39
HETATM   39  O   UNK N   1      -3.727   4.695  -0.333  0.00  0.00    -0.350 OA
HETATM   40  H   UNK N   1      -3.108   5.328  -0.640  0.00  0.00     0.219 HD
ENDBRANCH  36  39
ENDBRANCH   3  35
TORSDOF 13
