MODEL 1
REMARK VINA RESULT:      -4.8      0.000      0.000
REMARK  8 active torsions:
REMARK  status: ('A' for Active; 'I' for Inactive)
REMARK    1  A    between atoms: C_2  and  C_3 
REMARK    2  A    between atoms: C_3  and  O_4 
REMARK    3  A    between atoms: P_5  and  O_4 
REMARK    4  A    between atoms: P_5  and  O_6 
REMARK    5  A    between atoms: P_5  and  O_8 
REMARK    6  A    between atoms: O_8  and  P_9 
REMARK    7  A    between atoms: P_9  and  O_10 
REMARK    8  A    between atoms: P_9  and  O_11 
ROOT
HETATM    1  P   UNK N   1      35.376  15.763   9.869  0.00  0.00     0.401 P 
HETATM    2  O   UNK N   1      36.438  16.380  10.820  0.00  0.00    -0.631 OA
ENDROOT
BRANCH   1   3
HETATM    3  O   UNK N   1      34.886  15.200  11.440  0.00  0.00    -0.297 OA
BRANCH   3   4
HETATM    4  C   UNK N   1      36.051  14.747  12.064  0.00  0.00     0.180 C 
BRANCH   4   5
HETATM    5  C   UNK N   1      35.678  13.777  13.167  0.00  0.00     0.022 C 
HETATM    6  C   UNK N   1      36.488  14.087  14.407  0.00  0.00     0.007 C 
ENDBRANCH   4   5
ENDBRANCH   3   4
ENDBRANCH   1   3
BRANCH   1   7
HETATM    7  O   UNK N   1      33.778  16.334  10.245  0.00  0.00    -0.307 OA
HETATM    8  H   UNK N   1      33.494  17.094  10.776  0.00  0.00     0.222 HD
ENDBRANCH   1   7
BRANCH   1   9
HETATM    9  O   UNK N   1      35.256  17.471   9.531  0.00  0.00    -0.195 OA
BRANCH   9  10
HETATM   10  P   UNK N   1      34.035  17.624   8.298  0.00  0.00     0.399 P 
HETATM   11  O   UNK N   1      34.880  16.428   7.782  0.00  0.00    -0.631 OA
BRANCH  10  12
HETATM   12  O   UNK N   1      34.478  18.109   6.692  0.00  0.00    -0.307 OA
HETATM   13  H   UNK N   1      33.945  17.885   5.914  0.00  0.00     0.222 HD
ENDBRANCH  10  12
BRANCH  10  14
HETATM   14  O   UNK N   1      35.005  19.063   8.340  0.00  0.00    -0.307 OA
HETATM   15  H   UNK N   1      35.061  19.751   9.022  0.00  0.00     0.222 HD
ENDBRANCH  10  14
ENDBRANCH   9  10
ENDBRANCH   1   9
TORSDOF 8
ENDMDL
MODEL 2
REMARK VINA RESULT:      -4.7      1.812      2.794
REMARK  8 active torsions:
REMARK  status: ('A' for Active; 'I' for Inactive)
REMARK    1  A    between atoms: C_2  and  C_3 
REMARK    2  A    between atoms: C_3  and  O_4 
REMARK    3  A    between atoms: P_5  and  O_4 
REMARK    4  A    between atoms: P_5  and  O_6 
REMARK    5  A    between atoms: P_5  and  O_8 
REMARK    6  A    between atoms: O_8  and  P_9 
REMARK    7  A    between atoms: P_9  and  O_10 
REMARK    8  A    between atoms: P_9  and  O_11 
ROOT
HETATM    1  P   UNK N   1      35.292  13.365  11.558  0.00  0.00     0.401 P 
HETATM    2  O   UNK N   1      36.777  13.557  11.974  0.00  0.00    -0.631 OA
ENDROOT
BRANCH   1   3
HETATM    3  O   UNK N   1      35.184  13.859  13.222  0.00  0.00    -0.297 OA
BRANCH   3   4
HETATM    4  C   UNK N   1      36.479  13.754  13.738  0.00  0.00     0.180 C 
BRANCH   4   5
HETATM    5  C   UNK N   1      36.419  13.830  15.249  0.00  0.00     0.022 C 
HETATM    6  C   UNK N   1      37.224  15.020  15.727  0.00  0.00     0.007 C 
ENDBRANCH   4   5
ENDBRANCH   3   4
ENDBRANCH   1   3
BRANCH   1   7
HETATM    7  O   UNK N   1      34.398  14.849  11.692  0.00  0.00    -0.307 OA
HETATM    8  H   UNK N   1      33.468  15.000  11.923  0.00  0.00     0.222 HD
ENDBRANCH   1   7
BRANCH   1   9
HETATM    9  O   UNK N   1      35.878  14.522  10.391  0.00  0.00    -0.195 OA
BRANCH   9  10
HETATM   10  P   UNK N   1      35.055  16.015  10.753  0.00  0.00     0.399 P 
HETATM   11  O   UNK N   1      34.809  15.861   9.227  0.00  0.00    -0.631 OA
BRANCH  10  12
HETATM   12  O   UNK N   1      35.643  17.511  10.098  0.00  0.00    -0.307 OA
HETATM   13  H   UNK N   1      35.650  18.336  10.607  0.00  0.00     0.222 HD
ENDBRANCH  10  12
BRANCH  10  14
HETATM   14  O   UNK N   1      36.753  16.194  11.066  0.00  0.00    -0.307 OA
HETATM   15  H   UNK N   1      37.240  16.104  11.900  0.00  0.00     0.222 HD
ENDBRANCH  10  14
ENDBRANCH   9  10
ENDBRANCH   1   9
TORSDOF 8
ENDMDL
MODEL 3
REMARK VINA RESULT:      -4.7      3.167      4.047
REMARK  8 active torsions:
REMARK  status: ('A' for Active; 'I' for Inactive)
REMARK    1  A    between atoms: C_2  and  C_3 
REMARK    2  A    between atoms: C_3  and  O_4 
REMARK    3  A    between atoms: P_5  and  O_4 
REMARK    4  A    between atoms: P_5  and  O_6 
REMARK    5  A    between atoms: P_5  and  O_8 
REMARK    6  A    between atoms: O_8  and  P_9 
REMARK    7  A    between atoms: P_9  and  O_10 
REMARK    8  A    between atoms: P_9  and  O_11 
ROOT
HETATM    1  P   UNK N   1      35.954  13.609  12.768  0.00  0.00     0.401 P 
HETATM    2  O   UNK N   1      36.277  14.838  13.663  0.00  0.00    -0.631 OA
ENDROOT
BRANCH   1   3
HETATM    3  O   UNK N   1      34.891  13.407  14.129  0.00  0.00    -0.297 OA
BRANCH   3   4
HETATM    4  C   UNK N   1      35.717  13.341  15.254  0.00  0.00     0.180 C 
BRANCH   4   5
HETATM    5  C   UNK N   1      34.910  12.840  16.434  0.00  0.00     0.022 C 
HETATM    6  C   UNK N   1      35.220  13.685  17.652  0.00  0.00     0.007 C 
ENDBRANCH   4   5
ENDBRANCH   3   4
ENDBRANCH   1   3
BRANCH   1   7
HETATM    7  O   UNK N   1      34.296  13.620  12.247  0.00  0.00    -0.307 OA
HETATM    8  H   UNK N   1      33.758  12.913  11.859  0.00  0.00     0.222 HD
ENDBRANCH   1   7
BRANCH   1   9
HETATM    9  O   UNK N   1      35.673  14.957  11.696  0.00  0.00    -0.195 OA
BRANCH   9  10
HETATM   10  P   UNK N   1      36.520  14.572  10.222  0.00  0.00     0.399 P 
HETATM   11  O   UNK N   1      36.908  13.388  11.148  0.00  0.00    -0.631 OA
BRANCH  10  12
HETATM   12  O   UNK N   1      38.255  14.588  10.188  0.00  0.00    -0.307 OA
HETATM   13  H   UNK N   1      38.789  14.872  10.946  0.00  0.00     0.222 HD
ENDBRANCH  10  12
BRANCH  10  14
HETATM   14  O   UNK N   1      37.131  16.061  10.874  0.00  0.00    -0.307 OA
HETATM   15  H   UNK N   1      36.943  16.975  10.608  0.00  0.00     0.222 HD
ENDBRANCH  10  14
ENDBRANCH   9  10
ENDBRANCH   1   9
TORSDOF 8
ENDMDL
MODEL 4
REMARK VINA RESULT:      -4.7      3.133      4.507
REMARK  8 active torsions:
REMARK  status: ('A' for Active; 'I' for Inactive)
REMARK    1  A    between atoms: C_2  and  C_3 
REMARK    2  A    between atoms: C_3  and  O_4 
REMARK    3  A    between atoms: P_5  and  O_4 
REMARK    4  A    between atoms: P_5  and  O_6 
REMARK    5  A    between atoms: P_5  and  O_8 
REMARK    6  A    between atoms: O_8  and  P_9 
REMARK    7  A    between atoms: P_9  and  O_10 
REMARK    8  A    between atoms: P_9  and  O_11 
ROOT
HETATM    1  P   UNK N   1      35.744  13.542  13.444  0.00  0.00     0.401 P 
HETATM    2  O   UNK N   1      36.785  12.437  13.115  0.00  0.00    -0.631 OA
ENDROOT
BRANCH   1   3
HETATM    3  O   UNK N   1      36.833  13.596  14.799  0.00  0.00    -0.297 OA
BRANCH   3   4
HETATM    4  C   UNK N   1      36.384  12.617  15.690  0.00  0.00     0.180 C 
BRANCH   4   5
HETATM    5  C   UNK N   1      35.013  13.005  16.205  0.00  0.00     0.022 C 
HETATM    6  C   UNK N   1      35.140  13.572  17.603  0.00  0.00     0.007 C 
ENDBRANCH   4   5
ENDBRANCH   3   4
ENDBRANCH   1   3
BRANCH   1   7
HETATM    7  O   UNK N   1      36.492  15.107  13.557  0.00  0.00    -0.307 OA
HETATM    8  H   UNK N   1      36.517  15.836  12.918  0.00  0.00     0.222 HD
ENDBRANCH   1   7
BRANCH   1   9
HETATM    9  O   UNK N   1      36.348  14.029  11.882  0.00  0.00    -0.195 OA
BRANCH   9  10
HETATM   10  P   UNK N   1      34.959  14.071  10.831  0.00  0.00     0.399 P 
HETATM   11  O   UNK N   1      35.442  15.547  10.802  0.00  0.00    -0.631 OA
BRANCH  10  12
HETATM   12  O   UNK N   1      33.546  14.966  11.294  0.00  0.00    -0.307 OA
HETATM   13  H   UNK N   1      33.466  15.405  12.154  0.00  0.00     0.222 HD
ENDBRANCH  10  12
BRANCH  10  14
HETATM   14  O   UNK N   1      34.462  13.639  12.437  0.00  0.00    -0.307 OA
HETATM   15  H   UNK N   1      33.977  14.162  13.095  0.00  0.00     0.222 HD
ENDBRANCH  10  14
ENDBRANCH   9  10
ENDBRANCH   1   9
TORSDOF 8
ENDMDL
MODEL 5
REMARK VINA RESULT:      -4.6     13.920     14.724
REMARK  8 active torsions:
REMARK  status: ('A' for Active; 'I' for Inactive)
REMARK    1  A    between atoms: C_2  and  C_3 
REMARK    2  A    between atoms: C_3  and  O_4 
REMARK    3  A    between atoms: P_5  and  O_4 
REMARK    4  A    between atoms: P_5  and  O_6 
REMARK    5  A    between atoms: P_5  and  O_8 
REMARK    6  A    between atoms: O_8  and  P_9 
REMARK    7  A    between atoms: P_9  and  O_10 
REMARK    8  A    between atoms: P_9  and  O_11 
ROOT
HETATM    1  P   UNK N   1      20.800  14.371   9.229  0.00  0.00     0.401 P 
HETATM    2  O   UNK N   1      19.828  13.866  10.332  0.00  0.00    -0.631 OA
ENDROOT
BRANCH   1   3
HETATM    3  O   UNK N   1      21.028  12.647   9.210  0.00  0.00    -0.297 OA
BRANCH   3   4
HETATM    4  C   UNK N   1      21.307  12.283  10.530  0.00  0.00     0.180 C 
BRANCH   4   5
HETATM    5  C   UNK N   1      22.776  11.929  10.648  0.00  0.00     0.022 C 
HETATM    6  C   UNK N   1      23.175  11.913  12.108  0.00  0.00     0.007 C 
ENDBRANCH   4   5
ENDBRANCH   3   4
ENDBRANCH   1   3
BRANCH   1   7
HETATM    7  O   UNK N   1      20.385  13.723   7.671  0.00  0.00    -0.307 OA
HETATM    8  H   UNK N   1      19.699  13.997   7.042  0.00  0.00     0.222 HD
ENDBRANCH   1   7
BRANCH   1   9
HETATM    9  O   UNK N   1      19.259  15.004   8.710  0.00  0.00    -0.195 OA
BRANCH   9  10
HETATM   10  P   UNK N   1      19.489  16.722   8.534  0.00  0.00     0.399 P 
HETATM   11  O   UNK N   1      19.128  16.284   7.088  0.00  0.00    -0.631 OA
BRANCH  10  12
HETATM   12  O   UNK N   1      20.812  17.327   7.587  0.00  0.00    -0.307 OA
HETATM   13  H   UNK N   1      21.420  18.007   7.916  0.00  0.00     0.222 HD
ENDBRANCH  10  12
BRANCH  10  14
HETATM   14  O   UNK N   1      20.981  15.980   9.023  0.00  0.00    -0.307 OA
HETATM   15  H   UNK N   1      21.890  16.188   8.756  0.00  0.00     0.222 HD
ENDBRANCH  10  14
ENDBRANCH   9  10
ENDBRANCH   1   9
TORSDOF 8
ENDMDL
MODEL 6
REMARK VINA RESULT:      -4.5     16.336     17.989
REMARK  8 active torsions:
REMARK  status: ('A' for Active; 'I' for Inactive)
REMARK    1  A    between atoms: C_2  and  C_3 
REMARK    2  A    between atoms: C_3  and  O_4 
REMARK    3  A    between atoms: P_5  and  O_4 
REMARK    4  A    between atoms: P_5  and  O_6 
REMARK    5  A    between atoms: P_5  and  O_8 
REMARK    6  A    between atoms: O_8  and  P_9 
REMARK    7  A    between atoms: P_9  and  O_10 
REMARK    8  A    between atoms: P_9  and  O_11 
ROOT
HETATM    1  P   UNK N   1      27.977  23.867  -3.833  0.00  0.00     0.401 P 
HETATM    2  O   UNK N   1      26.960  23.972  -2.663  0.00  0.00    -0.631 OA
ENDROOT
BRANCH   1   3
HETATM    3  O   UNK N   1      27.636  25.570  -3.747  0.00  0.00    -0.297 OA
BRANCH   3   4
HETATM    4  C   UNK N   1      26.285  25.708  -4.077  0.00  0.00     0.180 C 
BRANCH   4   5
HETATM    5  C   UNK N   1      26.171  26.331  -5.453  0.00  0.00     0.022 C 
HETATM    6  C   UNK N   1      24.881  27.117  -5.545  0.00  0.00     0.007 C 
ENDBRANCH   4   5
ENDBRANCH   3   4
ENDBRANCH   1   3
BRANCH   1   7
HETATM    7  O   UNK N   1      29.430  24.758  -3.496  0.00  0.00    -0.307 OA
HETATM    8  H   UNK N   1      29.963  25.327  -4.072  0.00  0.00     0.222 HD
ENDBRANCH   1   7
BRANCH   1   9
HETATM    9  O   UNK N   1      28.834  23.129  -2.505  0.00  0.00    -0.195 OA
BRANCH   9  10
HETATM   10  P   UNK N   1      30.521  23.202  -2.933  0.00  0.00     0.399 P 
HETATM   11  O   UNK N   1      30.068  21.872  -3.594  0.00  0.00    -0.631 OA
BRANCH  10  12
HETATM   12  O   UNK N   1      31.632  22.034  -2.290  0.00  0.00    -0.307 OA
HETATM   13  H   UNK N   1      31.844  21.207  -2.750  0.00  0.00     0.222 HD
ENDBRANCH  10  12
BRANCH  10  14
HETATM   14  O   UNK N   1      30.362  23.093  -1.208  0.00  0.00    -0.307 OA
HETATM   15  H   UNK N   1      30.014  23.743  -0.578  0.00  0.00     0.222 HD
ENDBRANCH  10  14
ENDBRANCH   9  10
ENDBRANCH   1   9
TORSDOF 8
ENDMDL
MODEL 7
REMARK VINA RESULT:      -4.4      3.662      5.354
REMARK  8 active torsions:
REMARK  status: ('A' for Active; 'I' for Inactive)
REMARK    1  A    between atoms: C_2  and  C_3 
REMARK    2  A    between atoms: C_3  and  O_4 
REMARK    3  A    between atoms: P_5  and  O_4 
REMARK    4  A    between atoms: P_5  and  O_6 
REMARK    5  A    between atoms: P_5  and  O_8 
REMARK    6  A    between atoms: O_8  and  P_9 
REMARK    7  A    between atoms: P_9  and  O_10 
REMARK    8  A    between atoms: P_9  and  O_11 
ROOT
HETATM    1  P   UNK N   1      34.997  15.097  10.822  0.00  0.00     0.401 P 
HETATM    2  O   UNK N   1      35.458  13.683  10.370  0.00  0.00    -0.631 OA
ENDROOT
BRANCH   1   3
HETATM    3  O   UNK N   1      34.091  14.825   9.363  0.00  0.00    -0.297 OA
BRANCH   3   4
HETATM    4  C   UNK N   1      33.542  16.063   9.016  0.00  0.00     0.180 C 
BRANCH   4   5
HETATM    5  C   UNK N   1      34.415  16.714   7.962  0.00  0.00     0.022 C 
HETATM    6  C   UNK N   1      34.392  18.216   8.147  0.00  0.00     0.007 C 
ENDBRANCH   4   5
ENDBRANCH   3   4
ENDBRANCH   1   3
BRANCH   1   7
HETATM    7  O   UNK N   1      33.292  15.134  11.153  0.00  0.00    -0.307 OA
HETATM    8  H   UNK N   1      32.687  14.418  11.405  0.00  0.00     0.222 HD
ENDBRANCH   1   7
BRANCH   1   9
HETATM    9  O   UNK N   1      34.637  14.106  12.213  0.00  0.00    -0.195 OA
BRANCH   9  10
HETATM   10  P   UNK N   1      36.175  13.756  12.953  0.00  0.00     0.399 P 
HETATM   11  O   UNK N   1      35.194  13.631  14.150  0.00  0.00    -0.631 OA
BRANCH  10  12
HETATM   12  O   UNK N   1      36.839  14.842  14.132  0.00  0.00    -0.307 OA
HETATM   13  H   UNK N   1      36.333  15.581  14.504  0.00  0.00     0.222 HD
ENDBRANCH  10  12
BRANCH  10  14
HETATM   14  O   UNK N   1      36.175  15.385  12.352  0.00  0.00    -0.307 OA
HETATM   15  H   UNK N   1      35.570  15.812  11.725  0.00  0.00     0.222 HD
ENDBRANCH  10  14
ENDBRANCH   9  10
ENDBRANCH   1   9
TORSDOF 8
ENDMDL
MODEL 8
REMARK VINA RESULT:      -4.3      4.102      5.644
REMARK  8 active torsions:
REMARK  status: ('A' for Active; 'I' for Inactive)
REMARK    1  A    between atoms: C_2  and  C_3 
REMARK    2  A    between atoms: C_3  and  O_4 
REMARK    3  A    between atoms: P_5  and  O_4 
REMARK    4  A    between atoms: P_5  and  O_6 
REMARK    5  A    between atoms: P_5  and  O_8 
REMARK    6  A    between atoms: O_8  and  P_9 
REMARK    7  A    between atoms: P_9  and  O_10 
REMARK    8  A    between atoms: P_9  and  O_11 
ROOT
HETATM    1  P   UNK N   1      34.136  17.020   8.834  0.00  0.00     0.401 P 
HETATM    2  O   UNK N   1      34.832  18.401   8.687  0.00  0.00    -0.631 OA
ENDROOT
BRANCH   1   3
HETATM    3  O   UNK N   1      34.676  17.026   7.181  0.00  0.00    -0.297 OA
BRANCH   3   4
HETATM    4  C   UNK N   1      33.705  17.731   6.463  0.00  0.00     0.180 C 
BRANCH   4   5
HETATM    5  C   UNK N   1      33.446  17.022   5.150  0.00  0.00     0.022 C 
HETATM    6  C   UNK N   1      32.167  17.552   4.536  0.00  0.00     0.007 C 
ENDBRANCH   4   5
ENDBRANCH   3   4
ENDBRANCH   1   3
BRANCH   1   7
HETATM    7  O   UNK N   1      35.250  15.715   8.555  0.00  0.00    -0.307 OA
HETATM    8  H   UNK N   1      35.507  14.978   9.131  0.00  0.00     0.222 HD
ENDBRANCH   1   7
BRANCH   1   9
HETATM    9  O   UNK N   1      35.342  16.984  10.094  0.00  0.00    -0.195 OA
BRANCH   9  10
HETATM   10  P   UNK N   1      35.699  15.300  10.359  0.00  0.00     0.399 P 
HETATM   11  O   UNK N   1      34.485  15.534  11.298  0.00  0.00    -0.631 OA
BRANCH  10  12
HETATM   12  O   UNK N   1      36.279  14.768  11.906  0.00  0.00    -0.307 OA
HETATM   13  H   UNK N   1      36.774  13.942  12.021  0.00  0.00     0.222 HD
ENDBRANCH  10  12
BRANCH  10  14
HETATM   14  O   UNK N   1      37.045  16.269  10.874  0.00  0.00    -0.307 OA
HETATM   15  H   UNK N   1      37.751  16.060  11.504  0.00  0.00     0.222 HD
ENDBRANCH  10  14
ENDBRANCH   9  10
ENDBRANCH   1   9
TORSDOF 8
ENDMDL
MODEL 9
REMARK VINA RESULT:      -4.3      3.054      4.316
REMARK  8 active torsions:
REMARK  status: ('A' for Active; 'I' for Inactive)
REMARK    1  A    between atoms: C_2  and  C_3 
REMARK    2  A    between atoms: C_3  and  O_4 
REMARK    3  A    between atoms: P_5  and  O_4 
REMARK    4  A    between atoms: P_5  and  O_6 
REMARK    5  A    between atoms: P_5  and  O_8 
REMARK    6  A    between atoms: O_8  and  P_9 
REMARK    7  A    between atoms: P_9  and  O_10 
REMARK    8  A    between atoms: P_9  and  O_11 
ROOT
HETATM    1  P   UNK N   1      36.030  13.636  13.043  0.00  0.00     0.401 P 
HETATM    2  O   UNK N   1      34.757  13.597  13.934  0.00  0.00    -0.631 OA
ENDROOT
BRANCH   1   3
HETATM    3  O   UNK N   1      35.894  11.957  13.479  0.00  0.00    -0.297 OA
BRANCH   3   4
HETATM    4  C   UNK N   1      34.528  11.661  13.439  0.00  0.00     0.180 C 
BRANCH   4   5
HETATM    5  C   UNK N   1      34.311  10.252  13.951  0.00  0.00     0.022 C 
HETATM    6  C   UNK N   1      34.559  10.215  15.445  0.00  0.00     0.007 C 
ENDBRANCH   4   5
ENDBRANCH   3   4
ENDBRANCH   1   3
BRANCH   1   7
HETATM    7  O   UNK N   1      35.841  12.655  11.621  0.00  0.00    -0.307 OA
HETATM    8  H   UNK N   1      35.418  11.789  11.511  0.00  0.00     0.222 HD
ENDBRANCH   1   7
BRANCH   1   9
HETATM    9  O   UNK N   1      34.807  14.319  12.005  0.00  0.00    -0.195 OA
BRANCH   9  10
HETATM   10  P   UNK N   1      35.467  15.824  11.425  0.00  0.00     0.399 P 
HETATM   11  O   UNK N   1      35.434  14.958  10.137  0.00  0.00    -0.631 OA
BRANCH  10  12
HETATM   12  O   UNK N   1      37.104  15.891  10.853  0.00  0.00    -0.307 OA
HETATM   13  H   UNK N   1      37.343  15.698   9.933  0.00  0.00     0.222 HD
ENDBRANCH  10  12
BRANCH  10  14
HETATM   14  O   UNK N   1      36.549  15.121  12.586  0.00  0.00    -0.307 OA
HETATM   15  H   UNK N   1      36.350  14.631  13.399  0.00  0.00     0.222 HD
ENDBRANCH  10  14
ENDBRANCH   9  10
ENDBRANCH   1   9
TORSDOF 8
ENDMDL
