MODEL 1
REMARK VINA RESULT:      -4.8      0.000      0.000
REMARK  5 active torsions:
REMARK  status: ('A' for Active; 'I' for Inactive)
REMARK    1  A    between atoms: C_4  and  C_3 
REMARK    2  A    between atoms: O_9  and  C_3 
REMARK    3  A    between atoms: C_5  and  N_8 
REMARK    4  A    between atoms: C_6  and  O_10 
REMARK    5  A    between atoms: C_7  and  O_11 
ROOT
HETATM    1  C   UNK N   1      43.737  20.780   3.279  0.00  0.00     0.005 C 
HETATM    2  C   UNK N   1      41.800  22.057   2.349  0.00  0.00     0.070 C 
HETATM    3  C   UNK N   1      42.433  20.822   2.947  0.00  0.00    -0.056 C 
HETATM    4  C   UNK N   1      44.669  21.952   3.085  0.00  0.00     0.129 C 
HETATM    5  C   UNK N   1      42.821  23.069   1.819  0.00  0.00     0.153 C 
HETATM    6  C   UNK N   1      43.929  23.283   2.856  0.00  0.00     0.172 C 
ENDROOT
BRANCH   3   7
HETATM    7  C   UNK N   1      41.593  19.608   3.163  0.00  0.00     0.198 C 
BRANCH   7   8
HETATM    8  O   UNK N   1      40.635  19.867   4.146  0.00  0.00    -0.397 OA
HETATM    9  H   UNK N   1      39.962  19.334   4.599  0.00  0.00     0.209 HD
ENDBRANCH   7   8
ENDBRANCH   3   7
BRANCH   4  10
HETATM   10  N   UNK N   1      45.567  22.068   4.226  0.00  0.00    -0.421 N 
HETATM   11  H   UNK N   1      46.075  22.909   4.498  0.00  0.00     0.150 HD
HETATM   12  H   UNK N   1      45.699  21.237   4.801  0.00  0.00     0.150 HD
ENDBRANCH   4  10
BRANCH   5  13
HETATM   13  O   UNK N   1      42.176  24.273   1.543  0.00  0.00    -0.393 OA
HETATM   14  H   UNK N   1      41.338  24.287   1.056  0.00  0.00     0.210 HD
ENDBRANCH   5  13
BRANCH   6  15
HETATM   15  O   UNK N   1      43.367  23.748   4.051  0.00  0.00    -0.391 OA
HETATM   16  H   UNK N   1      42.918  24.229   4.762  0.00  0.00     0.210 HD
ENDBRANCH   6  15
TORSDOF 5
ENDMDL
MODEL 2
REMARK VINA RESULT:      -4.7     11.077     12.209
REMARK  5 active torsions:
REMARK  status: ('A' for Active; 'I' for Inactive)
REMARK    1  A    between atoms: C_4  and  C_3 
REMARK    2  A    between atoms: O_9  and  C_3 
REMARK    3  A    between atoms: C_5  and  N_8 
REMARK    4  A    between atoms: C_6  and  O_10 
REMARK    5  A    between atoms: C_7  and  O_11 
ROOT
HETATM    1  C   UNK N   1      32.618  15.852   8.103  0.00  0.00     0.005 C 
HETATM    2  C   UNK N   1      34.625  16.939   9.122  0.00  0.00     0.070 C 
HETATM    3  C   UNK N   1      33.628  15.811   8.992  0.00  0.00    -0.056 C 
HETATM    4  C   UNK N   1      32.397  17.018   7.169  0.00  0.00     0.129 C 
HETATM    5  C   UNK N   1      34.165  18.239   8.453  0.00  0.00     0.153 C 
HETATM    6  C   UNK N   1      33.625  17.941   7.051  0.00  0.00     0.172 C 
ENDROOT
BRANCH   3   7
HETATM    7  C   UNK N   1      33.757  14.622   9.884  0.00  0.00     0.198 C 
BRANCH   7   8
HETATM    8  O   UNK N   1      33.328  14.951  11.172  0.00  0.00    -0.397 OA
HETATM    9  H   UNK N   1      33.706  15.461  11.907  0.00  0.00     0.209 HD
ENDBRANCH   7   8
ENDBRANCH   3   7
BRANCH   4  10
HETATM   10  N   UNK N   1      32.007  16.533   5.853  0.00  0.00    -0.421 N 
HETATM   11  H   UNK N   1      31.489  15.674   5.665  0.00  0.00     0.150 HD
HETATM   12  H   UNK N   1      32.275  17.101   5.049  0.00  0.00     0.150 HD
ENDBRANCH   4  10
BRANCH   5  13
HETATM   13  O   UNK N   1      35.237  19.126   8.382  0.00  0.00    -0.393 OA
HETATM   14  H   UNK N   1      35.968  19.073   9.017  0.00  0.00     0.210 HD
ENDBRANCH   5  13
BRANCH   6  15
HETATM   15  O   UNK N   1      34.627  17.334   6.284  0.00  0.00    -0.391 OA
HETATM   16  H   UNK N   1      35.438  17.068   5.825  0.00  0.00     0.210 HD
ENDBRANCH   6  15
TORSDOF 5
ENDMDL
MODEL 3
REMARK VINA RESULT:      -4.7     11.387     12.994
REMARK  5 active torsions:
REMARK  status: ('A' for Active; 'I' for Inactive)
REMARK    1  A    between atoms: C_4  and  C_3 
REMARK    2  A    between atoms: O_9  and  C_3 
REMARK    3  A    between atoms: C_5  and  N_8 
REMARK    4  A    between atoms: C_6  and  O_10 
REMARK    5  A    between atoms: C_7  and  O_11 
ROOT
HETATM    1  C   UNK N   1      33.534  15.860   8.412  0.00  0.00     0.005 C 
HETATM    2  C   UNK N   1      35.186  16.871   9.993  0.00  0.00     0.070 C 
HETATM    3  C   UNK N   1      34.195  16.946   8.855  0.00  0.00    -0.056 C 
HETATM    4  C   UNK N   1      33.724  14.487   9.010  0.00  0.00     0.129 C 
HETATM    5  C   UNK N   1      35.634  15.441  10.317  0.00  0.00     0.153 C 
HETATM    6  C   UNK N   1      34.414  14.516  10.387  0.00  0.00     0.172 C 
ENDROOT
BRANCH   3   7
HETATM    7  C   UNK N   1      33.952  18.260   8.190  0.00  0.00     0.198 C 
BRANCH   7   8
HETATM    8  O   UNK N   1      35.049  19.101   8.393  0.00  0.00    -0.397 OA
HETATM    9  H   UNK N   1      35.598  19.332   9.160  0.00  0.00     0.209 HD
ENDBRANCH   7   8
ENDBRANCH   3   7
BRANCH   4  10
HETATM   10  N   UNK N   1      32.440  13.806   9.109  0.00  0.00    -0.421 N 
HETATM   11  H   UNK N   1      31.922  13.400   8.330  0.00  0.00     0.150 HD
HETATM   12  H   UNK N   1      32.024  13.728  10.036  0.00  0.00     0.150 HD
ENDBRANCH   4  10
BRANCH   5  13
HETATM   13  O   UNK N   1      36.317  15.436  11.531  0.00  0.00    -0.393 OA
HETATM   14  H   UNK N   1      37.077  16.021  11.676  0.00  0.00     0.210 HD
ENDBRANCH   5  13
BRANCH   6  15
HETATM   15  O   UNK N   1      33.533  14.978  11.372  0.00  0.00    -0.391 OA
HETATM   16  H   UNK N   1      33.086  15.411  12.115  0.00  0.00     0.210 HD
ENDBRANCH   6  15
TORSDOF 5
ENDMDL
MODEL 4
REMARK VINA RESULT:      -4.6     13.159     14.270
REMARK  5 active torsions:
REMARK  status: ('A' for Active; 'I' for Inactive)
REMARK    1  A    between atoms: C_4  and  C_3 
REMARK    2  A    between atoms: O_9  and  C_3 
REMARK    3  A    between atoms: C_5  and  N_8 
REMARK    4  A    between atoms: C_6  and  O_10 
REMARK    5  A    between atoms: C_7  and  O_11 
ROOT
HETATM    1  C   UNK N   1      36.040  15.413  12.204  0.00  0.00     0.005 C 
HETATM    2  C   UNK N   1      35.039  13.123  12.239  0.00  0.00     0.070 C 
HETATM    3  C   UNK N   1      35.840  14.249  12.850  0.00  0.00    -0.056 C 
HETATM    4  C   UNK N   1      35.486  15.690  10.827  0.00  0.00     0.129 C 
HETATM    5  C   UNK N   1      34.822  13.278  10.730  0.00  0.00     0.153 C 
HETATM    6  C   UNK N   1      34.373  14.708  10.413  0.00  0.00     0.172 C 
ENDROOT
BRANCH   3   7
HETATM    7  C   UNK N   1      36.440  14.062  14.204  0.00  0.00     0.198 C 
BRANCH   7   8
HETATM    8  O   UNK N   1      37.103  15.229  14.590  0.00  0.00    -0.397 OA
HETATM    9  H   UNK N   1      36.841  16.158  14.695  0.00  0.00     0.209 HD
ENDBRANCH   7   8
ENDBRANCH   3   7
BRANCH   4  10
HETATM   10  N   UNK N   1      34.998  17.060  10.753  0.00  0.00    -0.421 N 
HETATM   11  H   UNK N   1      34.114  17.397  11.135  0.00  0.00     0.150 HD
HETATM   12  H   UNK N   1      35.590  17.740  10.279  0.00  0.00     0.150 HD
ENDBRANCH   4  10
BRANCH   5  13
HETATM   13  O   UNK N   1      33.862  12.362  10.306  0.00  0.00    -0.393 OA
HETATM   14  H   UNK N   1      34.060  11.414  10.272  0.00  0.00     0.210 HD
ENDBRANCH   5  13
BRANCH   6  15
HETATM   15  O   UNK N   1      33.186  14.989  11.100  0.00  0.00    -0.391 OA
HETATM   16  H   UNK N   1      32.457  15.363  11.618  0.00  0.00     0.210 HD
ENDBRANCH   6  15
TORSDOF 5
ENDMDL
MODEL 5
REMARK VINA RESULT:      -4.6     10.961     12.579
REMARK  5 active torsions:
REMARK  status: ('A' for Active; 'I' for Inactive)
REMARK    1  A    between atoms: C_4  and  C_3 
REMARK    2  A    between atoms: O_9  and  C_3 
REMARK    3  A    between atoms: C_5  and  N_8 
REMARK    4  A    between atoms: C_6  and  O_10 
REMARK    5  A    between atoms: C_7  and  O_11 
ROOT
HETATM    1  C   UNK N   1      32.553  15.890   8.639  0.00  0.00     0.005 C 
HETATM    2  C   UNK N   1      32.975  18.347   8.450  0.00  0.00     0.070 C 
HETATM    3  C   UNK N   1      32.069  17.140   8.503  0.00  0.00    -0.056 C 
HETATM    4  C   UNK N   1      34.029  15.592   8.749  0.00  0.00     0.129 C 
HETATM    5  C   UNK N   1      34.443  17.995   8.183  0.00  0.00     0.153 C 
HETATM    6  C   UNK N   1      34.874  16.835   9.086  0.00  0.00     0.172 C 
ENDROOT
BRANCH   3   7
HETATM    7  C   UNK N   1      30.594  17.334   8.387  0.00  0.00     0.198 C 
BRANCH   7   8
HETATM    8  O   UNK N   1      30.033  17.457   9.661  0.00  0.00    -0.397 OA
HETATM    9  H   UNK N   1      29.261  17.919  10.023  0.00  0.00     0.209 HD
ENDBRANCH   7   8
ENDBRANCH   3   7
BRANCH   4  10
HETATM   10  N   UNK N   1      34.253  14.550   9.741  0.00  0.00    -0.421 N 
HETATM   11  H   UNK N   1      33.971  13.574   9.651  0.00  0.00     0.150 HD
HETATM   12  H   UNK N   1      34.732  14.820  10.599  0.00  0.00     0.150 HD
ENDBRANCH   4  10
BRANCH   5  13
HETATM   13  O   UNK N   1      35.236  19.116   8.420  0.00  0.00    -0.393 OA
HETATM   14  H   UNK N   1      35.470  19.721   7.700  0.00  0.00     0.210 HD
ENDBRANCH   5  13
BRANCH   6  15
HETATM   15  O   UNK N   1      34.704  17.199  10.427  0.00  0.00    -0.391 OA
HETATM   16  H   UNK N   1      34.725  17.302  11.391  0.00  0.00     0.210 HD
ENDBRANCH   6  15
TORSDOF 5
ENDMDL
MODEL 6
REMARK VINA RESULT:      -4.5     22.540     23.218
REMARK  5 active torsions:
REMARK  status: ('A' for Active; 'I' for Inactive)
REMARK    1  A    between atoms: C_4  and  C_3 
REMARK    2  A    between atoms: O_9  and  C_3 
REMARK    3  A    between atoms: C_5  and  N_8 
REMARK    4  A    between atoms: C_6  and  O_10 
REMARK    5  A    between atoms: C_7  and  O_11 
ROOT
HETATM    1  C   UNK N   1      20.450  18.269   1.255  0.00  0.00     0.005 C 
HETATM    2  C   UNK N   1      20.843  19.314   3.492  0.00  0.00     0.070 C 
HETATM    3  C   UNK N   1      20.641  19.378   1.996  0.00  0.00    -0.056 C 
HETATM    4  C   UNK N   1      20.422  16.882   1.850  0.00  0.00     0.129 C 
HETATM    5  C   UNK N   1      21.186  17.910   4.001  0.00  0.00     0.153 C 
HETATM    6  C   UNK N   1      20.234  16.883   3.379  0.00  0.00     0.172 C 
ENDROOT
BRANCH   3   7
HETATM    7  C   UNK N   1      20.667  20.706   1.316  0.00  0.00     0.198 C 
BRANCH   7   8
HETATM    8  O   UNK N   1      20.612  20.526  -0.068  0.00  0.00    -0.397 OA
HETATM    9  H   UNK N   1      19.935  20.208  -0.687  0.00  0.00     0.209 HD
ENDBRANCH   7   8
ENDBRANCH   3   7
BRANCH   4  10
HETATM   10  N   UNK N   1      19.376  16.091   1.218  0.00  0.00    -0.421 N 
HETATM   11  H   UNK N   1      19.327  15.072   1.206  0.00  0.00     0.150 HD
HETATM   12  H   UNK N   1      18.629  16.599   0.746  0.00  0.00     0.150 HD
ENDBRANCH   4  10
BRANCH   5  13
HETATM   13  O   UNK N   1      21.085  17.886   5.391  0.00  0.00    -0.393 OA
HETATM   14  H   UNK N   1      20.397  17.363   5.830  0.00  0.00     0.210 HD
ENDBRANCH   5  13
BRANCH   6  15
HETATM   15  O   UNK N   1      18.914  17.206   3.715  0.00  0.00    -0.391 OA
HETATM   16  H   UNK N   1      18.018  17.273   4.079  0.00  0.00     0.210 HD
ENDBRANCH   6  15
TORSDOF 5
ENDMDL
MODEL 7
REMARK VINA RESULT:      -4.5     21.980     23.104
REMARK  5 active torsions:
REMARK  status: ('A' for Active; 'I' for Inactive)
REMARK    1  A    between atoms: C_4  and  C_3 
REMARK    2  A    between atoms: O_9  and  C_3 
REMARK    3  A    between atoms: C_5  and  N_8 
REMARK    4  A    between atoms: C_6  and  O_10 
REMARK    5  A    between atoms: C_7  and  O_11 
ROOT
HETATM    1  C   UNK N   1      22.042  12.919  10.662  0.00  0.00     0.005 C 
HETATM    2  C   UNK N   1      22.884  13.597   8.408  0.00  0.00     0.070 C 
HETATM    3  C   UNK N   1      21.883  13.644   9.538  0.00  0.00    -0.056 C 
HETATM    4  C   UNK N   1      23.224  12.007  10.887  0.00  0.00     0.129 C 
HETATM    5  C   UNK N   1      23.846  12.406   8.495  0.00  0.00     0.153 C 
HETATM    6  C   UNK N   1      24.393  12.281   9.921  0.00  0.00     0.172 C 
ENDROOT
BRANCH   3   7
HETATM    7  C   UNK N   1      20.673  14.507   9.401  0.00  0.00     0.198 C 
BRANCH   7   8
HETATM    8  O   UNK N   1      19.555  13.831   9.895  0.00  0.00    -0.397 OA
HETATM    9  H   UNK N   1      19.266  13.546  10.777  0.00  0.00     0.209 HD
ENDBRANCH   7   8
ENDBRANCH   3   7
BRANCH   4  10
HETATM   10  N   UNK N   1      23.680  12.115  12.266  0.00  0.00    -0.421 N 
HETATM   11  H   UNK N   1      23.394  12.832  12.932  0.00  0.00     0.150 HD
HETATM   12  H   UNK N   1      24.342  11.412  12.593  0.00  0.00     0.150 HD
ENDBRANCH   4  10
BRANCH   5  13
HETATM   13  O   UNK N   1      24.888  12.588   7.589  0.00  0.00    -0.393 OA
HETATM   14  H   UNK N   1      25.806  12.407   7.844  0.00  0.00     0.210 HD
ENDBRANCH   5  13
BRANCH   6  15
HETATM   15  O   UNK N   1      25.058  13.462  10.271  0.00  0.00    -0.391 OA
HETATM   16  H   UNK N   1      25.671  14.201  10.399  0.00  0.00     0.210 HD
ENDBRANCH   6  15
TORSDOF 5
ENDMDL
MODEL 8
REMARK VINA RESULT:      -4.5     20.928     22.122
REMARK  5 active torsions:
REMARK  status: ('A' for Active; 'I' for Inactive)
REMARK    1  A    between atoms: C_4  and  C_3 
REMARK    2  A    between atoms: O_9  and  C_3 
REMARK    3  A    between atoms: C_5  and  N_8 
REMARK    4  A    between atoms: C_6  and  O_10 
REMARK    5  A    between atoms: C_7  and  O_11 
ROOT
HETATM    1  C   UNK N   1      20.839  17.666   3.264  0.00  0.00     0.005 C 
HETATM    2  C   UNK N   1      22.335  19.668   3.335  0.00  0.00     0.070 C 
HETATM    3  C   UNK N   1      22.029  18.210   3.585  0.00  0.00    -0.056 C 
HETATM    4  C   UNK N   1      19.721  18.460   2.633  0.00  0.00     0.129 C 
HETATM    5  C   UNK N   1      21.087  20.513   3.058  0.00  0.00     0.153 C 
HETATM    6  C   UNK N   1      20.190  19.802   2.040  0.00  0.00     0.172 C 
ENDROOT
BRANCH   3   7
HETATM    7  C   UNK N   1      23.069  17.348   4.219  0.00  0.00     0.198 C 
BRANCH   7   8
HETATM    8  O   UNK N   1      23.418  17.872   5.466  0.00  0.00    -0.397 OA
HETATM    9  H   UNK N   1      22.919  18.161   6.247  0.00  0.00     0.209 HD
ENDBRANCH   7   8
ENDBRANCH   3   7
BRANCH   4  10
HETATM   10  N   UNK N   1      19.063  17.662   1.607  0.00  0.00    -0.421 N 
HETATM   11  H   UNK N   1      18.158  17.201   1.702  0.00  0.00     0.150 HD
HETATM   12  H   UNK N   1      19.549  17.556   0.717  0.00  0.00     0.150 HD
ENDBRANCH   4  10
BRANCH   5  13
HETATM   13  O   UNK N   1      21.473  21.762   2.576  0.00  0.00    -0.393 OA
HETATM   14  H   UNK N   1      22.398  21.942   2.347  0.00  0.00     0.210 HD
ENDBRANCH   5  13
BRANCH   6  15
HETATM   15  O   UNK N   1      20.903  19.596   0.853  0.00  0.00    -0.391 OA
HETATM   16  H   UNK N   1      21.222  19.362  -0.032  0.00  0.00     0.210 HD
ENDBRANCH   6  15
TORSDOF 5
ENDMDL
MODEL 9
REMARK VINA RESULT:      -4.4     21.240     22.404
REMARK  5 active torsions:
REMARK  status: ('A' for Active; 'I' for Inactive)
REMARK    1  A    between atoms: C_4  and  C_3 
REMARK    2  A    between atoms: O_9  and  C_3 
REMARK    3  A    between atoms: C_5  and  N_8 
REMARK    4  A    between atoms: C_6  and  O_10 
REMARK    5  A    between atoms: C_7  and  O_11 
ROOT
HETATM    1  C   UNK N   1      21.988  19.854   2.958  0.00  0.00     0.005 C 
HETATM    2  C   UNK N   1      19.757  18.866   2.415  0.00  0.00     0.070 C 
HETATM    3  C   UNK N   1      20.857  19.884   2.227  0.00  0.00    -0.056 C 
HETATM    4  C   UNK N   1      22.250  18.810   4.016  0.00  0.00     0.129 C 
HETATM    5  C   UNK N   1      19.876  18.074   3.721  0.00  0.00     0.153 C 
HETATM    6  C   UNK N   1      21.318  17.588   3.907  0.00  0.00     0.172 C 
ENDROOT
BRANCH   3   7
HETATM    7  C   UNK N   1      20.681  20.964   1.213  0.00  0.00     0.198 C 
BRANCH   7   8
HETATM    8  O   UNK N   1      20.614  20.404  -0.065  0.00  0.00    -0.397 OA
HETATM    9  H   UNK N   1      20.307  19.555  -0.421  0.00  0.00     0.209 HD
ENDBRANCH   7   8
ENDBRANCH   3   7
BRANCH   4  10
HETATM   10  N   UNK N   1      23.642  18.383   3.960  0.00  0.00    -0.421 N 
HETATM   11  H   UNK N   1      24.122  17.827   4.668  0.00  0.00     0.150 HD
HETATM   12  H   UNK N   1      24.182  18.664   3.143  0.00  0.00     0.150 HD
ENDBRANCH   4  10
BRANCH   5  13
HETATM   13  O   UNK N   1      19.000  16.991   3.686  0.00  0.00    -0.393 OA
HETATM   14  H   UNK N   1      19.177  16.191   4.204  0.00  0.00     0.210 HD
ENDBRANCH   5  13
BRANCH   6  15
HETATM   15  O   UNK N   1      21.683  16.783   2.822  0.00  0.00    -0.391 OA
HETATM   16  H   UNK N   1      21.886  16.392   1.959  0.00  0.00     0.210 HD
ENDBRANCH   6  15
TORSDOF 5
ENDMDL
