MODEL 1
REMARK VINA RESULT:      -6.6      0.000      0.000
REMARK  6 active torsions:
REMARK  status: ('A' for Active; 'I' for Inactive)
REMARK       I    between atoms: N_3  and  C_6 
REMARK    1  A    between atoms: N_4  and  C_14 
REMARK    2  A    between atoms: C_5  and  C_6 
REMARK    3  A    between atoms: C_5  and  C_7 
REMARK    4  A    between atoms: C_5  and  C_8 
REMARK    5  A    between atoms: C_5  and  C_9 
REMARK    6  A    between atoms: C_9  and  C_14 
ROOT
HETATM    1  C   UNK N   1      33.085  16.071   7.075  0.00  0.00     0.100 C 
ENDROOT
BRANCH   1   2
HETATM    2  C   UNK N   1      34.169  16.669   8.054  0.00  0.00     0.238 C 
HETATM    3  O   UNK N   1      34.892  17.590   7.688  0.00  0.00    -0.272 OA
HETATM    4  N   UNK N   1      34.334  16.164   9.330  0.00  0.00    -0.351 N 
HETATM    5  C   UNK N   1      33.596  15.045   9.852  0.00  0.00     0.126 C 
HETATM    6  C   UNK N   1      35.319  16.681  10.238  0.00  0.00     0.126 C 
HETATM    7  C   UNK N   1      34.372  14.607  11.080  0.00  0.00     0.021 C 
HETATM    8  C   UNK N   1      35.192  15.823  11.490  0.00  0.00     0.021 C 
ENDBRANCH   1   2
BRANCH   1   9
HETATM    9  C   UNK N   1      34.096  14.965   6.623  0.00  0.00    -0.035 A 
HETATM   10  C   UNK N   1      33.806  13.611   6.864  0.00  0.00     0.009 A 
HETATM   11  C   UNK N   1      34.668  12.608   6.405  0.00  0.00     0.001 A 
HETATM   12  C   UNK N   1      35.830  12.940   5.702  0.00  0.00     0.000 A 
HETATM   13  C   UNK N   1      36.138  14.274   5.447  0.00  0.00     0.001 A 
HETATM   14  C   UNK N   1      35.280  15.278   5.888  0.00  0.00     0.009 A 
ENDBRANCH   1   9
BRANCH   1  15
HETATM   15  C   UNK N   1      32.612  16.137   5.601  0.00  0.00    -0.035 A 
HETATM   16  C   UNK N   1      32.874  17.334   4.895  0.00  0.00     0.009 A 
HETATM   17  C   UNK N   1      32.456  17.497   3.576  0.00  0.00     0.001 A 
HETATM   18  C   UNK N   1      31.764  16.471   2.936  0.00  0.00     0.000 A 
HETATM   19  C   UNK N   1      31.493  15.278   3.614  0.00  0.00     0.001 A 
HETATM   20  C   UNK N   1      31.910  15.103   4.940  0.00  0.00     0.009 A 
ENDBRANCH   1  15
BRANCH   1  21
HETATM   21  C   UNK N   1      32.032  17.235   7.414  0.00  0.00     0.037 C 
HETATM   22  C   UNK N   1      32.498  18.285   8.469  0.00  0.00     0.014 C 
BRANCH  21  23
HETATM   23  C   UNK N   1      30.542  16.879   7.606  0.00  0.00     0.278 C 
BRANCH  23  24
HETATM   24  N   UNK N   1      29.690  17.879   6.954  0.00  0.00     0.092 N 
HETATM   25  C   UNK N   1      29.052  17.341   5.750  0.00  0.00     0.298 C 
HETATM   26  C   UNK N   1      28.184  18.446   5.134  0.00  0.00     0.198 C 
HETATM   27  O   UNK N   1      27.185  18.825   6.052  0.00  0.00    -0.388 OA
HETATM   28  C   UNK N   1      27.833  19.421   7.153  0.00  0.00     0.198 C 
HETATM   29  C   UNK N   1      28.676  18.369   7.881  0.00  0.00     0.298 C 
ENDBRANCH  23  24
ENDBRANCH  21  23
ENDBRANCH   1  21
TORSDOF 6
ENDMDL
MODEL 2
REMARK VINA RESULT:      -6.5      2.482      5.155
REMARK  6 active torsions:
REMARK  status: ('A' for Active; 'I' for Inactive)
REMARK       I    between atoms: N_3  and  C_6 
REMARK    1  A    between atoms: N_4  and  C_14 
REMARK    2  A    between atoms: C_5  and  C_6 
REMARK    3  A    between atoms: C_5  and  C_7 
REMARK    4  A    between atoms: C_5  and  C_8 
REMARK    5  A    between atoms: C_5  and  C_9 
REMARK    6  A    between atoms: C_9  and  C_14 
ROOT
HETATM    1  C   UNK N   1      30.961  16.740   6.433  0.00  0.00     0.100 C 
ENDROOT
BRANCH   1   2
HETATM    2  C   UNK N   1      31.391  15.363   5.793  0.00  0.00     0.238 C 
HETATM    3  O   UNK N   1      31.149  14.309   6.372  0.00  0.00    -0.272 OA
HETATM    4  N   UNK N   1      32.054  15.316   4.581  0.00  0.00    -0.351 N 
HETATM    5  C   UNK N   1      32.454  16.482   3.839  0.00  0.00     0.126 C 
HETATM    6  C   UNK N   1      32.468  14.078   3.980  0.00  0.00     0.126 C 
HETATM    7  C   UNK N   1      33.470  15.973   2.834  0.00  0.00     0.021 C 
HETATM    8  C   UNK N   1      33.190  14.482   2.702  0.00  0.00     0.021 C 
ENDBRANCH   1   2
BRANCH   1   9
HETATM    9  C   UNK N   1      32.263  16.749   7.301  0.00  0.00    -0.035 A 
HETATM   10  C   UNK N   1      33.270  17.695   7.044  0.00  0.00     0.009 A 
HETATM   11  C   UNK N   1      34.408  17.759   7.856  0.00  0.00     0.001 A 
HETATM   12  C   UNK N   1      34.560  16.880   8.933  0.00  0.00     0.000 A 
HETATM   13  C   UNK N   1      33.575  15.936   9.211  0.00  0.00     0.001 A 
HETATM   14  C   UNK N   1      32.433  15.874   8.418  0.00  0.00     0.009 A 
ENDBRANCH   1   9
BRANCH   1  15
HETATM   15  C   UNK N   1      30.225  17.331   7.662  0.00  0.00    -0.035 A 
HETATM   16  C   UNK N   1      28.964  16.776   7.984  0.00  0.00     0.009 A 
HETATM   17  C   UNK N   1      28.215  17.266   9.051  0.00  0.00     0.001 A 
HETATM   18  C   UNK N   1      28.706  18.322   9.816  0.00  0.00     0.000 A 
HETATM   19  C   UNK N   1      29.951  18.886   9.517  0.00  0.00     0.001 A 
HETATM   20  C   UNK N   1      30.712  18.400   8.448  0.00  0.00     0.009 A 
ENDBRANCH   1  15
BRANCH   1  21
HETATM   21  C   UNK N   1      29.559  16.748   5.651  0.00  0.00     0.037 C 
HETATM   22  C   UNK N   1      29.127  15.389   5.019  0.00  0.00     0.014 C 
BRANCH  21  23
HETATM   23  C   UNK N   1      29.217  17.929   4.716  0.00  0.00     0.278 C 
BRANCH  23  24
HETATM   24  N   UNK N   1      27.898  18.478   5.049  0.00  0.00     0.092 N 
HETATM   25  C   UNK N   1      28.010  19.723   5.812  0.00  0.00     0.298 C 
HETATM   26  C   UNK N   1      26.594  20.228   6.116  0.00  0.00     0.198 C 
HETATM   27  O   UNK N   1      25.918  20.488   4.907  0.00  0.00    -0.388 OA
HETATM   28  C   UNK N   1      25.749  19.255   4.247  0.00  0.00     0.198 C 
HETATM   29  C   UNK N   1      27.117  18.702   3.837  0.00  0.00     0.298 C 
ENDBRANCH  23  24
ENDBRANCH  21  23
ENDBRANCH   1  21
TORSDOF 6
ENDMDL
MODEL 3
REMARK VINA RESULT:      -6.5     13.679     17.580
REMARK  6 active torsions:
REMARK  status: ('A' for Active; 'I' for Inactive)
REMARK       I    between atoms: N_3  and  C_6 
REMARK    1  A    between atoms: N_4  and  C_14 
REMARK    2  A    between atoms: C_5  and  C_6 
REMARK    3  A    between atoms: C_5  and  C_7 
REMARK    4  A    between atoms: C_5  and  C_8 
REMARK    5  A    between atoms: C_5  and  C_9 
REMARK    6  A    between atoms: C_9  and  C_14 
ROOT
HETATM    1  C   UNK N   1      27.056  24.733  -7.047  0.00  0.00     0.100 C 
ENDROOT
BRANCH   1   2
HETATM    2  C   UNK N   1      26.242  25.854  -6.290  0.00  0.00     0.238 C 
HETATM    3  O   UNK N   1      25.066  25.671  -5.993  0.00  0.00    -0.272 OA
HETATM    4  N   UNK N   1      26.829  27.061  -5.960  0.00  0.00    -0.351 N 
HETATM    5  C   UNK N   1      28.176  27.422  -6.313  0.00  0.00     0.126 C 
HETATM    6  C   UNK N   1      26.110  28.104  -5.282  0.00  0.00     0.126 C 
HETATM    7  C   UNK N   1      28.239  28.926  -6.118  0.00  0.00     0.021 C 
HETATM    8  C   UNK N   1      27.102  29.253  -5.160  0.00  0.00     0.021 C 
ENDBRANCH   1   2
BRANCH   1   9
HETATM    9  C   UNK N   1      26.524  25.266  -8.418  0.00  0.00    -0.035 A 
HETATM   10  C   UNK N   1      27.354  26.055  -9.233  0.00  0.00     0.009 A 
HETATM   11  C   UNK N   1      26.916  26.480 -10.492  0.00  0.00     0.001 A 
HETATM   12  C   UNK N   1      25.645  26.128 -10.957  0.00  0.00     0.000 A 
HETATM   13  C   UNK N   1      24.804  25.343 -10.171  0.00  0.00     0.001 A 
HETATM   14  C   UNK N   1      25.237  24.904  -8.923  0.00  0.00     0.009 A 
ENDBRANCH   1   9
BRANCH   1  15
HETATM   15  C   UNK N   1      26.904  23.304  -7.626  0.00  0.00    -0.035 A 
HETATM   16  C   UNK N   1      25.714  22.606  -7.311  0.00  0.00     0.009 A 
HETATM   17  C   UNK N   1      25.505  21.305  -7.760  0.00  0.00     0.001 A 
HETATM   18  C   UNK N   1      26.480  20.670  -8.527  0.00  0.00     0.000 A 
HETATM   19  C   UNK N   1      27.664  21.340  -8.851  0.00  0.00     0.001 A 
HETATM   20  C   UNK N   1      27.884  22.650  -8.407  0.00  0.00     0.009 A 
ENDBRANCH   1  15
BRANCH   1  21
HETATM   21  C   UNK N   1      27.559  24.071  -5.673  0.00  0.00     0.037 C 
HETATM   22  C   UNK N   1      26.616  24.257  -4.445  0.00  0.00     0.014 C 
BRANCH  21  23
HETATM   23  C   UNK N   1      29.041  24.209  -5.262  0.00  0.00     0.278 C 
BRANCH  23  24
HETATM   24  N   UNK N   1      29.364  23.259  -4.191  0.00  0.00     0.092 N 
HETATM   25  C   UNK N   1      30.354  22.272  -4.627  0.00  0.00     0.298 C 
HETATM   26  C   UNK N   1      30.634  21.324  -3.454  0.00  0.00     0.198 C 
HETATM   27  O   UNK N   1      31.161  22.057  -2.373  0.00  0.00    -0.388 OA
HETATM   28  C   UNK N   1      30.148  22.928  -1.924  0.00  0.00     0.198 C 
HETATM   29  C   UNK N   1      29.847  23.966  -3.010  0.00  0.00     0.298 C 
ENDBRANCH  23  24
ENDBRANCH  21  23
ENDBRANCH   1  21
TORSDOF 6
ENDMDL
MODEL 4
REMARK VINA RESULT:      -6.4      2.554      7.243
REMARK  6 active torsions:
REMARK  status: ('A' for Active; 'I' for Inactive)
REMARK       I    between atoms: N_3  and  C_6 
REMARK    1  A    between atoms: N_4  and  C_14 
REMARK    2  A    between atoms: C_5  and  C_6 
REMARK    3  A    between atoms: C_5  and  C_7 
REMARK    4  A    between atoms: C_5  and  C_8 
REMARK    5  A    between atoms: C_5  and  C_9 
REMARK    6  A    between atoms: C_9  and  C_14 
ROOT
HETATM    1  C   UNK N   1      28.821  16.768   5.059  0.00  0.00     0.100 C 
ENDROOT
BRANCH   1   2
HETATM    2  C   UNK N   1      29.338  15.961   3.805  0.00  0.00     0.238 C 
HETATM    3  O   UNK N   1      29.620  16.548   2.764  0.00  0.00    -0.272 OA
HETATM    4  N   UNK N   1      29.472  14.586   3.847  0.00  0.00    -0.351 N 
HETATM    5  C   UNK N   1      29.111  13.779   4.981  0.00  0.00     0.126 C 
HETATM    6  C   UNK N   1      29.929  13.825   2.718  0.00  0.00     0.126 C 
HETATM    7  C   UNK N   1      29.040  12.362   4.444  0.00  0.00     0.021 C 
HETATM    8  C   UNK N   1      29.883  12.373   3.176  0.00  0.00     0.021 C 
ENDBRANCH   1   2
BRANCH   1   9
HETATM    9  C   UNK N   1      27.342  16.525   4.612  0.00  0.00    -0.035 A 
HETATM   10  C   UNK N   1      26.372  16.165   5.564  0.00  0.00     0.009 A 
HETATM   11  C   UNK N   1      25.032  16.011   5.190  0.00  0.00     0.001 A 
HETATM   12  C   UNK N   1      24.640  16.212   3.863  0.00  0.00     0.000 A 
HETATM   13  C   UNK N   1      25.580  16.574   2.901  0.00  0.00     0.001 A 
HETATM   14  C   UNK N   1      26.913  16.742   3.267  0.00  0.00     0.009 A 
ENDBRANCH   1   9
BRANCH   1  15
HETATM   15  C   UNK N   1      28.380  18.189   5.490  0.00  0.00    -0.035 A 
HETATM   16  C   UNK N   1      28.244  18.426   6.879  0.00  0.00     0.009 A 
HETATM   17  C   UNK N   1      27.820  19.663   7.359  0.00  0.00     0.001 A 
HETATM   18  C   UNK N   1      27.518  20.687   6.464  0.00  0.00     0.000 A 
HETATM   19  C   UNK N   1      27.644  20.477   5.087  0.00  0.00     0.001 A 
HETATM   20  C   UNK N   1      28.071  19.238   4.594  0.00  0.00     0.009 A 
ENDBRANCH   1  15
BRANCH   1  21
HETATM   21  C   UNK N   1      30.312  17.143   5.522  0.00  0.00     0.037 C 
HETATM   22  C   UNK N   1      31.295  17.550   4.381  0.00  0.00     0.014 C 
BRANCH  21  23
HETATM   23  C   UNK N   1      31.021  16.270   6.581  0.00  0.00     0.278 C 
BRANCH  23  24
HETATM   24  N   UNK N   1      32.385  16.756   6.813  0.00  0.00     0.092 N 
HETATM   25  C   UNK N   1      32.435  17.717   7.917  0.00  0.00     0.298 C 
HETATM   26  C   UNK N   1      33.889  18.171   8.091  0.00  0.00     0.198 C 
HETATM   27  O   UNK N   1      34.693  17.059   8.413  0.00  0.00    -0.388 OA
HETATM   28  C   UNK N   1      34.694  16.204   7.293  0.00  0.00     0.198 C 
HETATM   29  C   UNK N   1      33.286  15.640   7.079  0.00  0.00     0.298 C 
ENDBRANCH  23  24
ENDBRANCH  21  23
ENDBRANCH   1  21
TORSDOF 6
ENDMDL
MODEL 5
REMARK VINA RESULT:      -6.4     13.716     17.370
REMARK  6 active torsions:
REMARK  status: ('A' for Active; 'I' for Inactive)
REMARK       I    between atoms: N_3  and  C_6 
REMARK    1  A    between atoms: N_4  and  C_14 
REMARK    2  A    between atoms: C_5  and  C_6 
REMARK    3  A    between atoms: C_5  and  C_7 
REMARK    4  A    between atoms: C_5  and  C_8 
REMARK    5  A    between atoms: C_5  and  C_9 
REMARK    6  A    between atoms: C_9  and  C_14 
ROOT
HETATM    1  C   UNK N   1      27.375  25.526  -5.473  0.00  0.00     0.100 C 
ENDROOT
BRANCH   1   2
HETATM    2  C   UNK N   1      26.274  24.432  -5.761  0.00  0.00     0.238 C 
HETATM    3  O   UNK N   1      25.196  24.470  -5.178  0.00  0.00    -0.272 OA
HETATM    4  N   UNK N   1      26.505  23.408  -6.660  0.00  0.00    -0.351 N 
HETATM    5  C   UNK N   1      27.750  23.214  -7.354  0.00  0.00     0.126 C 
HETATM    6  C   UNK N   1      25.527  22.392  -6.934  0.00  0.00     0.126 C 
HETATM    7  C   UNK N   1      27.682  21.795  -7.886  0.00  0.00     0.021 C 
HETATM    8  C   UNK N   1      26.199  21.454  -7.929  0.00  0.00     0.021 C 
ENDBRANCH   1   2
BRANCH   1   9
HETATM    9  C   UNK N   1      28.011  24.606  -4.379  0.00  0.00    -0.035 A 
HETATM   10  C   UNK N   1      29.351  24.199  -4.499  0.00  0.00     0.009 A 
HETATM   11  C   UNK N   1      29.953  23.433  -3.494  0.00  0.00     0.001 A 
HETATM   12  C   UNK N   1      29.229  23.060  -2.358  0.00  0.00     0.000 A 
HETATM   13  C   UNK N   1      27.901  23.453  -2.213  0.00  0.00     0.001 A 
HETATM   14  C   UNK N   1      27.298  24.227  -3.201  0.00  0.00     0.009 A 
ENDBRANCH   1   9
BRANCH   1  15
HETATM   15  C   UNK N   1      27.681  26.723  -4.539  0.00  0.00    -0.035 A 
HETATM   16  C   UNK N   1      29.010  27.208  -4.530  0.00  0.00     0.009 A 
HETATM   17  C   UNK N   1      29.386  28.260  -3.697  0.00  0.00     0.001 A 
HETATM   18  C   UNK N   1      28.446  28.845  -2.852  0.00  0.00     0.000 A 
HETATM   19  C   UNK N   1      27.126  28.383  -2.843  0.00  0.00     0.001 A 
HETATM   20  C   UNK N   1      26.737  27.328  -3.678  0.00  0.00     0.009 A 
ENDBRANCH   1  15
BRANCH   1  21
HETATM   21  C   UNK N   1      26.716  26.563  -6.507  0.00  0.00     0.037 C 
HETATM   22  C   UNK N   1      25.181  26.791  -6.354  0.00  0.00     0.014 C 
BRANCH  21  23
HETATM   23  C   UNK N   1      27.125  26.515  -7.995  0.00  0.00     0.278 C 
BRANCH  23  24
HETATM   24  N   UNK N   1      28.316  27.341  -8.224  0.00  0.00     0.092 N 
HETATM   25  C   UNK N   1      28.572  27.533  -9.653  0.00  0.00     0.298 C 
HETATM   26  C   UNK N   1      29.827  28.403  -9.802  0.00  0.00     0.198 C 
HETATM   27  O   UNK N   1      29.603  29.658  -9.202  0.00  0.00    -0.388 OA
HETATM   28  C   UNK N   1      29.454  29.440  -7.818  0.00  0.00     0.198 C 
HETATM   29  C   UNK N   1      28.177  28.633  -7.562  0.00  0.00     0.298 C 
ENDBRANCH  23  24
ENDBRANCH  21  23
ENDBRANCH   1  21
TORSDOF 6
ENDMDL
MODEL 6
REMARK VINA RESULT:      -6.4      2.321      6.336
REMARK  6 active torsions:
REMARK  status: ('A' for Active; 'I' for Inactive)
REMARK       I    between atoms: N_3  and  C_6 
REMARK    1  A    between atoms: N_4  and  C_14 
REMARK    2  A    between atoms: C_5  and  C_6 
REMARK    3  A    between atoms: C_5  and  C_7 
REMARK    4  A    between atoms: C_5  and  C_8 
REMARK    5  A    between atoms: C_5  and  C_9 
REMARK    6  A    between atoms: C_9  and  C_14 
ROOT
HETATM    1  C   UNK N   1      32.679  15.987   7.789  0.00  0.00     0.100 C 
ENDROOT
BRANCH   1   2
HETATM    2  C   UNK N   1      34.068  16.016   7.041  0.00  0.00     0.238 C 
HETATM    3  O   UNK N   1      34.702  17.064   6.953  0.00  0.00    -0.272 OA
HETATM    4  N   UNK N   1      34.592  14.875   6.463  0.00  0.00    -0.351 N 
HETATM    5  C   UNK N   1      33.916  13.606   6.438  0.00  0.00     0.126 C 
HETATM    6  C   UNK N   1      35.848  14.875   5.766  0.00  0.00     0.126 C 
HETATM    7  C   UNK N   1      34.648  12.797   5.384  0.00  0.00     0.021 C 
HETATM    8  C   UNK N   1      36.017  13.450   5.257  0.00  0.00     0.021 C 
ENDBRANCH   1   2
BRANCH   1   9
HETATM    9  C   UNK N   1      31.939  16.250   6.436  0.00  0.00    -0.035 A 
HETATM   10  C   UNK N   1      30.800  15.496   6.102  0.00  0.00     0.009 A 
HETATM   11  C   UNK N   1      30.089  15.768   4.927  0.00  0.00     0.001 A 
HETATM   12  C   UNK N   1      30.502  16.791   4.069  0.00  0.00     0.000 A 
HETATM   13  C   UNK N   1      31.625  17.555   4.379  0.00  0.00     0.001 A 
HETATM   14  C   UNK N   1      32.331  17.301   5.552  0.00  0.00     0.009 A 
ENDBRANCH   1   9
BRANCH   1  15
HETATM   15  C   UNK N   1      31.638  16.921   8.455  0.00  0.00    -0.035 A 
HETATM   16  C   UNK N   1      30.594  16.304   9.185  0.00  0.00     0.009 A 
HETATM   17  C   UNK N   1      29.595  17.063   9.790  0.00  0.00     0.001 A 
HETATM   18  C   UNK N   1      29.613  18.452   9.675  0.00  0.00     0.000 A 
HETATM   19  C   UNK N   1      30.635  19.084   8.959  0.00  0.00     0.001 A 
HETATM   20  C   UNK N   1      31.645  18.331   8.349  0.00  0.00     0.009 A 
ENDBRANCH   1  15
BRANCH   1  21
HETATM   21  C   UNK N   1      33.375  15.817   9.226  0.00  0.00     0.037 C 
HETATM   22  C   UNK N   1      34.490  16.853   9.566  0.00  0.00     0.014 C 
BRANCH  21  23
HETATM   23  C   UNK N   1      33.757  14.406   9.723  0.00  0.00     0.278 C 
BRANCH  23  24
HETATM   24  N   UNK N   1      35.053  14.439  10.409  0.00  0.00     0.092 N 
HETATM   25  C   UNK N   1      34.940  13.988  11.798  0.00  0.00     0.298 C 
HETATM   26  C   UNK N   1      36.333  14.054  12.437  0.00  0.00     0.198 C 
HETATM   27  O   UNK N   1      37.209  13.195  11.745  0.00  0.00    -0.388 OA
HETATM   28  C   UNK N   1      37.363  13.714  10.444  0.00  0.00     0.198 C 
HETATM   29  C   UNK N   1      36.030  13.624   9.695  0.00  0.00     0.298 C 
ENDBRANCH  23  24
ENDBRANCH  21  23
ENDBRANCH   1  21
TORSDOF 6
ENDMDL
MODEL 7
REMARK VINA RESULT:      -6.1      3.569      7.348
REMARK  6 active torsions:
REMARK  status: ('A' for Active; 'I' for Inactive)
REMARK       I    between atoms: N_3  and  C_6 
REMARK    1  A    between atoms: N_4  and  C_14 
REMARK    2  A    between atoms: C_5  and  C_6 
REMARK    3  A    between atoms: C_5  and  C_7 
REMARK    4  A    between atoms: C_5  and  C_8 
REMARK    5  A    between atoms: C_5  and  C_9 
REMARK    6  A    between atoms: C_9  and  C_14 
ROOT
HETATM    1  C   UNK N   1      28.422  16.751   5.007  0.00  0.00     0.100 C 
ENDROOT
BRANCH   1   2
HETATM    2  C   UNK N   1      29.732  16.702   5.885  0.00  0.00     0.238 C 
HETATM    3  O   UNK N   1      29.664  16.455   7.085  0.00  0.00    -0.272 OA
HETATM    4  N   UNK N   1      30.974  16.946   5.329  0.00  0.00    -0.351 N 
HETATM    5  C   UNK N   1      31.178  17.312   3.953  0.00  0.00     0.126 C 
HETATM    6  C   UNK N   1      32.182  16.920   6.106  0.00  0.00     0.126 C 
HETATM    7  C   UNK N   1      32.591  17.862   3.903  0.00  0.00     0.021 C 
HETATM    8  C   UNK N   1      33.290  17.283   5.126  0.00  0.00     0.021 C 
ENDBRANCH   1   2
BRANCH   1   9
HETATM    9  C   UNK N   1      28.159  18.222   5.470  0.00  0.00    -0.035 A 
HETATM   10  C   UNK N   1      28.063  19.250   4.517  0.00  0.00     0.009 A 
HETATM   11  C   UNK N   1      27.760  20.558   4.912  0.00  0.00     0.001 A 
HETATM   12  C   UNK N   1      27.552  20.861   6.262  0.00  0.00     0.000 A 
HETATM   13  C   UNK N   1      27.638  19.859   7.226  0.00  0.00     0.001 A 
HETATM   14  C   UNK N   1      27.925  18.552   6.840  0.00  0.00     0.009 A 
ENDBRANCH   1   9
BRANCH   1  15
HETATM   15  C   UNK N   1      26.891  16.527   5.096  0.00  0.00    -0.035 A 
HETATM   16  C   UNK N   1      26.422  15.703   6.146  0.00  0.00     0.009 A 
HETATM   17  C   UNK N   1      25.066  15.419   6.285  0.00  0.00     0.001 A 
HETATM   18  C   UNK N   1      24.150  15.947   5.376  0.00  0.00     0.000 A 
HETATM   19  C   UNK N   1      24.590  16.764   4.330  0.00  0.00     0.001 A 
HETATM   20  C   UNK N   1      25.951  17.057   4.183  0.00  0.00     0.009 A 
ENDBRANCH   1  15
BRANCH   1  21
HETATM   21  C   UNK N   1      28.572  15.213   4.569  0.00  0.00     0.037 C 
HETATM   22  C   UNK N   1      29.634  14.385   5.355  0.00  0.00     0.014 C 
BRANCH  21  23
HETATM   23  C   UNK N   1      28.582  14.848   3.069  0.00  0.00     0.278 C 
BRANCH  23  24
HETATM   24  N   UNK N   1      27.893  13.571   2.850  0.00  0.00     0.092 N 
HETATM   25  C   UNK N   1      26.475  13.768   2.545  0.00  0.00     0.298 C 
HETATM   26  C   UNK N   1      25.835  12.391   2.330  0.00  0.00     0.198 C 
HETATM   27  O   UNK N   1      26.454  11.750   1.240  0.00  0.00    -0.388 OA
HETATM   28  C   UNK N   1      27.791  11.495   1.607  0.00  0.00     0.198 C 
HETATM   29  C   UNK N   1      28.537  12.822   1.776  0.00  0.00     0.298 C 
ENDBRANCH  23  24
ENDBRANCH  21  23
ENDBRANCH   1  21
TORSDOF 6
ENDMDL
MODEL 8
REMARK VINA RESULT:      -5.9      2.424      5.783
REMARK  6 active torsions:
REMARK  status: ('A' for Active; 'I' for Inactive)
REMARK       I    between atoms: N_3  and  C_6 
REMARK    1  A    between atoms: N_4  and  C_14 
REMARK    2  A    between atoms: C_5  and  C_6 
REMARK    3  A    between atoms: C_5  and  C_7 
REMARK    4  A    between atoms: C_5  and  C_8 
REMARK    5  A    between atoms: C_5  and  C_9 
REMARK    6  A    between atoms: C_9  and  C_14 
ROOT
HETATM    1  C   UNK N   1      30.956  16.947   6.203  0.00  0.00     0.100 C 
ENDROOT
BRANCH   1   2
HETATM    2  C   UNK N   1      31.773  15.970   7.135  0.00  0.00     0.238 C 
HETATM    3  O   UNK N   1      31.339  14.851   7.391  0.00  0.00    -0.272 OA
HETATM    4  N   UNK N   1      32.980  16.355   7.689  0.00  0.00    -0.351 N 
HETATM    5  C   UNK N   1      33.560  17.660   7.521  0.00  0.00     0.126 C 
HETATM    6  C   UNK N   1      33.739  15.491   8.550  0.00  0.00     0.126 C 
HETATM    7  C   UNK N   1      34.623  17.755   8.599  0.00  0.00     0.021 C 
HETATM    8  C   UNK N   1      34.952  16.314   8.964  0.00  0.00     0.021 C 
ENDBRANCH   1   2
BRANCH   1   9
HETATM    9  C   UNK N   1      29.994  17.283   7.391  0.00  0.00    -0.035 A 
HETATM   10  C   UNK N   1      30.391  18.204   8.375  0.00  0.00     0.009 A 
HETATM   11  C   UNK N   1      29.514  18.565   9.405  0.00  0.00     0.001 A 
HETATM   12  C   UNK N   1      28.231  18.014   9.469  0.00  0.00     0.000 A 
HETATM   13  C   UNK N   1      27.811  17.102   8.503  0.00  0.00     0.001 A 
HETATM   14  C   UNK N   1      28.672  16.747   7.468  0.00  0.00     0.009 A 
ENDBRANCH   1   9
BRANCH   1  15
HETATM   15  C   UNK N   1      29.712  16.988   5.281  0.00  0.00    -0.035 A 
HETATM   16  C   UNK N   1      29.199  18.264   4.950  0.00  0.00     0.009 A 
HETATM   17  C   UNK N   1      28.064  18.398   4.153  0.00  0.00     0.001 A 
HETATM   18  C   UNK N   1      27.415  17.261   3.675  0.00  0.00     0.000 A 
HETATM   19  C   UNK N   1      27.904  15.989   3.989  0.00  0.00     0.001 A 
HETATM   20  C   UNK N   1      29.045  15.844   4.787  0.00  0.00     0.009 A 
ENDBRANCH   1  15
BRANCH   1  21
HETATM   21  C   UNK N   1      31.839  16.573   4.916  0.00  0.00     0.037 C 
HETATM   22  C   UNK N   1      32.180  17.756   3.959  0.00  0.00     0.014 C 
BRANCH  21  23
HETATM   23  C   UNK N   1      31.515  15.290   4.119  0.00  0.00     0.278 C 
BRANCH  23  24
HETATM   24  N   UNK N   1      32.727  14.764   3.483  0.00  0.00     0.092 N 
HETATM   25  C   UNK N   1      33.725  14.359   4.475  0.00  0.00     0.298 C 
HETATM   26  C   UNK N   1      34.953  13.824   3.729  0.00  0.00     0.198 C 
HETATM   27  O   UNK N   1      34.584  12.700   2.964  0.00  0.00    -0.388 OA
HETATM   28  C   UNK N   1      33.697  13.146   1.964  0.00  0.00     0.198 C 
HETATM   29  C   UNK N   1      32.400  13.639   2.613  0.00  0.00     0.298 C 
ENDBRANCH  23  24
ENDBRANCH  21  23
ENDBRANCH   1  21
TORSDOF 6
ENDMDL
MODEL 9
REMARK VINA RESULT:      -5.9      1.773      4.808
REMARK  6 active torsions:
REMARK  status: ('A' for Active; 'I' for Inactive)
REMARK       I    between atoms: N_3  and  C_6 
REMARK    1  A    between atoms: N_4  and  C_14 
REMARK    2  A    between atoms: C_5  and  C_6 
REMARK    3  A    between atoms: C_5  and  C_7 
REMARK    4  A    between atoms: C_5  and  C_8 
REMARK    5  A    between atoms: C_5  and  C_9 
REMARK    6  A    between atoms: C_9  and  C_14 
ROOT
HETATM    1  C   UNK N   1      33.839  15.222   7.473  0.00  0.00     0.100 C 
ENDROOT
BRANCH   1   2
HETATM    2  C   UNK N   1      32.634  14.826   6.534  0.00  0.00     0.238 C 
HETATM    3  O   UNK N   1      31.855  13.939   6.867  0.00  0.00    -0.272 OA
HETATM    4  N   UNK N   1      32.440  15.456   5.319  0.00  0.00    -0.351 N 
HETATM    5  C   UNK N   1      33.320  16.461   4.786  0.00  0.00     0.126 C 
HETATM    6  C   UNK N   1      31.359  15.108   4.438  0.00  0.00     0.126 C 
HETATM    7  C   UNK N   1      32.957  16.556   3.317  0.00  0.00     0.021 C 
HETATM    8  C   UNK N   1      31.544  15.999   3.217  0.00  0.00     0.021 C 
ENDBRANCH   1   2
BRANCH   1   9
HETATM    9  C   UNK N   1      34.804  14.333   6.621  0.00  0.00    -0.035 A 
HETATM   10  C   UNK N   1      36.048  14.844   6.211  0.00  0.00     0.009 A 
HETATM   11  C   UNK N   1      36.948  14.036   5.506  0.00  0.00     0.001 A 
HETATM   12  C   UNK N   1      36.623  12.712   5.199  0.00  0.00     0.000 A 
HETATM   13  C   UNK N   1      35.398  12.181   5.597  0.00  0.00     0.001 A 
HETATM   14  C   UNK N   1      34.501  12.972   6.310  0.00  0.00     0.009 A 
ENDBRANCH   1   9
BRANCH   1  15
HETATM   15  C   UNK N   1      34.615  14.736   8.723  0.00  0.00    -0.035 A 
HETATM   16  C   UNK N   1      35.361  15.706   9.434  0.00  0.00     0.009 A 
HETATM   17  C   UNK N   1      36.116  15.355  10.551  0.00  0.00     0.001 A 
HETATM   18  C   UNK N   1      36.147  14.028  10.977  0.00  0.00     0.000 A 
HETATM   19  C   UNK N   1      35.419  13.052  10.290  0.00  0.00     0.001 A 
HETATM   20  C   UNK N   1      34.655  13.395   9.168  0.00  0.00     0.009 A 
ENDBRANCH   1  15
BRANCH   1  21
HETATM   21  C   UNK N   1      32.890  16.070   8.452  0.00  0.00     0.037 C 
HETATM   22  C   UNK N   1      31.901  15.240   9.326  0.00  0.00     0.014 C 
BRANCH  21  23
HETATM   23  C   UNK N   1      32.221  17.361   7.931  0.00  0.00     0.278 C 
BRANCH  23  24
HETATM   24  N   UNK N   1      30.792  17.365   8.261  0.00  0.00     0.092 N 
HETATM   25  C   UNK N   1      30.438  18.505   9.110  0.00  0.00     0.298 C 
HETATM   26  C   UNK N   1      28.935  18.433   9.406  0.00  0.00     0.198 C 
HETATM   27  O   UNK N   1      28.214  18.518   8.198  0.00  0.00    -0.388 OA
HETATM   28  C   UNK N   1      28.510  17.360   7.451  0.00  0.00     0.198 C 
HETATM   29  C   UNK N   1      29.987  17.377   7.045  0.00  0.00     0.298 C 
ENDBRANCH  23  24
ENDBRANCH  21  23
ENDBRANCH   1  21
TORSDOF 6
ENDMDL
