MODEL 1
REMARK VINA RESULT:      -8.5      0.000      0.000
REMARK  6 active torsions:
REMARK  status: ('A' for Active; 'I' for Inactive)
REMARK    1  A    between atoms: C_16  and  C_14 
REMARK    2  A    between atoms: C_20  and  C_14 
REMARK    3  A    between atoms: C_24  and  C_17 
REMARK    4  A    between atoms: N_26  and  C_19 
REMARK    5  A    between atoms: N_26  and  C_21 
REMARK    6  A    between atoms: O_32  and  C_23 
ROOT
HETATM    1  C   UNK N   1      31.181  16.836   7.754  0.00  0.00     0.015 A 
HETATM    2  C   UNK N   1      32.891  17.077   6.061  0.00  0.00     0.015 A 
HETATM    3  C   UNK N   1      30.200  17.207   6.811  0.00  0.00     0.030 A 
HETATM    4  C   UNK N   1      31.929  17.437   5.140  0.00  0.00     0.030 A 
HETATM    5  C   UNK N   1      32.540  16.785   7.380  0.00  0.00    -0.012 A 
HETATM    6  C   UNK N   1      30.581  17.535   5.500  0.00  0.00     0.032 A 
ENDROOT
BRANCH   6   7
HETATM    7  N   UNK N   1      29.624  17.942   4.526  0.00  0.00    -0.359 N 
HETATM    8  H   UNK N   1      29.423  18.899   4.408  0.00  0.00     0.166 HD
BRANCH   7   9
HETATM    9  C   UNK N   1      28.951  16.969   3.721  0.00  0.00     0.019 C 
HETATM   10  C   UNK N   1      29.735  16.197   2.681  0.00  0.00     0.058 C 
HETATM   11  C   UNK N   1      29.338  14.736   2.687  0.00  0.00     0.014 C 
HETATM   12  C   UNK N   1      27.867  14.638   2.305  0.00  0.00     0.084 C 
HETATM   13  C   UNK N   1      27.021  15.553   3.152  0.00  0.00     0.157 C 
HETATM   14  C   UNK N   1      27.635  16.707   3.889  0.00  0.00     0.014 C 
HETATM   15  O   UNK N   1      25.844  15.274   3.314  0.00  0.00    -0.293 OA
BRANCH  14  16
HETATM   16  C   UNK N   1      26.817  17.487   4.887  0.00  0.00     0.083 C 
BRANCH  16  17
HETATM   17  C   UNK N   1      25.940  18.519   4.238  0.00  0.00    -0.052 A 
HETATM   18  C   UNK N   1      26.491  19.618   3.563  0.00  0.00     0.007 A 
HETATM   19  C   UNK N   1      25.665  20.562   2.950  0.00  0.00     0.002 A 
HETATM   20  C   UNK N   1      24.278  20.405   2.996  0.00  0.00     0.018 A 
HETATM   21  C   UNK N   1      23.721  19.307   3.658  0.00  0.00     0.006 A 
HETATM   22  C   UNK N   1      24.550  18.366   4.280  0.00  0.00     0.025 A 
HETATM   23  I   UNK N   1      21.634  19.062   3.697  0.00  0.00    -0.045 I 
ENDBRANCH  16  17
ENDBRANCH  14  16
ENDBRANCH   7   9
ENDBRANCH   6   7
BRANCH   5  24
HETATM   24  C   UNK N   1      33.640  16.476   8.336  0.00  0.00     0.040 A 
HETATM   25  C   UNK N   1      34.467  15.213   8.207  0.00  0.00     0.041 A 
HETATM   26  C   UNK N   1      33.579  13.987   8.322  0.00  0.00     0.017 C 
HETATM   27  C   UNK N   1      35.578  15.078   9.251  0.00  0.00     0.096 A 
HETATM   28  C   UNK N   1      35.605  16.141  10.308  0.00  0.00     0.130 A 
HETATM   29  N   UNK N   1      34.801  17.141  10.281  0.00  0.00    -0.283 N 
HETATM   30  N   UNK N   1      33.849  17.315   9.297  0.00  0.00    -0.302 N 
ATOM     31  HN  UNK N   1      34.871  17.841  11.019  1.00  0.00     0.188 HD
ATOM     32  HN  UNK N   1      33.274  18.156   9.333  1.00  0.00     0.186 HD
BRANCH  28  33
HETATM   33  O   UNK N   1      36.501  16.047  11.308  0.00  0.00    -0.348 OA
HETATM   34  H   UNK N   1      37.258  16.599  11.311  0.00  0.00     0.219 HD
ENDBRANCH  28  33
ENDBRANCH   5  24
TORSDOF 6
ENDMDL
MODEL 2
REMARK VINA RESULT:      -8.3      5.661      8.197
REMARK  6 active torsions:
REMARK  status: ('A' for Active; 'I' for Inactive)
REMARK    1  A    between atoms: C_16  and  C_14 
REMARK    2  A    between atoms: C_20  and  C_14 
REMARK    3  A    between atoms: C_24  and  C_17 
REMARK    4  A    between atoms: N_26  and  C_19 
REMARK    5  A    between atoms: N_26  and  C_21 
REMARK    6  A    between atoms: O_32  and  C_23 
ROOT
HETATM    1  C   UNK N   1      24.795  12.847   6.894  0.00  0.00     0.015 A 
HETATM    2  C   UNK N   1      25.566  14.674   8.276  0.00  0.00     0.015 A 
HETATM    3  C   UNK N   1      25.385  13.454   5.766  0.00  0.00     0.030 A 
HETATM    4  C   UNK N   1      26.146  15.265   7.172  0.00  0.00     0.030 A 
HETATM    5  C   UNK N   1      24.872  13.470   8.157  0.00  0.00    -0.012 A 
HETATM    6  C   UNK N   1      26.044  14.686   5.903  0.00  0.00     0.032 A 
ENDROOT
BRANCH   6   7
HETATM    7  N   UNK N   1      26.629  15.346   4.783  0.00  0.00    -0.359 N 
HETATM    8  H   UNK N   1      27.411  14.949   4.336  0.00  0.00     0.166 HD
BRANCH   7   9
HETATM    9  C   UNK N   1      26.087  16.582   4.307  0.00  0.00     0.019 C 
HETATM   10  C   UNK N   1      24.599  16.686   4.045  0.00  0.00     0.058 C 
HETATM   11  C   UNK N   1      24.059  18.008   4.550  0.00  0.00     0.014 C 
HETATM   12  C   UNK N   1      24.733  19.129   3.771  0.00  0.00     0.084 C 
HETATM   13  C   UNK N   1      26.233  18.982   3.788  0.00  0.00     0.157 C 
HETATM   14  C   UNK N   1      26.872  17.664   4.109  0.00  0.00     0.014 C 
HETATM   15  O   UNK N   1      26.918  19.981   3.641  0.00  0.00    -0.293 OA
BRANCH  14  16
HETATM   16  C   UNK N   1      28.363  17.580   4.320  0.00  0.00     0.083 C 
BRANCH  16  17
HETATM   17  C   UNK N   1      28.757  17.748   5.760  0.00  0.00    -0.052 A 
HETATM   18  C   UNK N   1      27.970  18.501   6.642  0.00  0.00     0.007 A 
HETATM   19  C   UNK N   1      28.338  18.637   7.982  0.00  0.00     0.002 A 
HETATM   20  C   UNK N   1      29.492  18.006   8.452  0.00  0.00     0.018 A 
HETATM   21  C   UNK N   1      30.277  17.246   7.581  0.00  0.00     0.006 A 
HETATM   22  C   UNK N   1      29.911  17.118   6.235  0.00  0.00     0.025 A 
HETATM   23  I   UNK N   1      31.996  16.277   8.303  0.00  0.00    -0.045 I 
ENDBRANCH  16  17
ENDBRANCH  14  16
ENDBRANCH   7   9
ENDBRANCH   6   7
BRANCH   5  24
HETATM   24  C   UNK N   1      24.211  12.929   9.377  0.00  0.00     0.040 A 
HETATM   25  C   UNK N   1      22.733  12.596   9.392  0.00  0.00     0.041 A 
HETATM   26  C   UNK N   1      21.908  13.836   9.095  0.00  0.00     0.017 C 
HETATM   27  C   UNK N   1      22.231  12.015  10.716  0.00  0.00     0.096 A 
HETATM   28  C   UNK N   1      23.237  11.976  11.828  0.00  0.00     0.130 A 
HETATM   29  N   UNK N   1      24.458  12.328  11.647  0.00  0.00    -0.283 N 
HETATM   30  N   UNK N   1      24.939  12.777  10.434  0.00  0.00    -0.302 N 
ATOM     31  HN  UNK N   1      25.102  12.271  12.435  1.00  0.00     0.188 HD
ATOM     32  HN  UNK N   1      25.932  13.003  10.369  1.00  0.00     0.186 HD
BRANCH  28  33
HETATM   33  O   UNK N   1      22.850  11.555  13.046  0.00  0.00    -0.348 OA
HETATM   34  H   UNK N   1      22.648  10.650  13.187  0.00  0.00     0.219 HD
ENDBRANCH  28  33
ENDBRANCH   5  24
TORSDOF 6
ENDMDL
MODEL 3
REMARK VINA RESULT:      -8.2      2.299      2.803
REMARK  6 active torsions:
REMARK  status: ('A' for Active; 'I' for Inactive)
REMARK    1  A    between atoms: C_16  and  C_14 
REMARK    2  A    between atoms: C_20  and  C_14 
REMARK    3  A    between atoms: C_24  and  C_17 
REMARK    4  A    between atoms: N_26  and  C_19 
REMARK    5  A    between atoms: N_26  and  C_21 
REMARK    6  A    between atoms: O_32  and  C_23 
ROOT
HETATM    1  C   UNK N   1      33.941  17.038   5.944  0.00  0.00     0.015 A 
HETATM    2  C   UNK N   1      32.041  16.854   7.428  0.00  0.00     0.015 A 
HETATM    3  C   UNK N   1      33.070  17.299   4.866  0.00  0.00     0.030 A 
HETATM    4  C   UNK N   1      31.191  17.113   6.373  0.00  0.00     0.030 A 
HETATM    5  C   UNK N   1      33.422  16.797   7.233  0.00  0.00    -0.012 A 
HETATM    6  C   UNK N   1      31.682  17.311   5.079  0.00  0.00     0.032 A 
ENDROOT
BRANCH   6   7
HETATM    7  N   UNK N   1      30.767  17.543   4.011  0.00  0.00    -0.359 N 
HETATM    8  H   UNK N   1      30.924  18.288   3.386  0.00  0.00     0.166 HD
BRANCH   7   9
HETATM    9  C   UNK N   1      29.622  16.702   3.842  0.00  0.00     0.019 C 
HETATM   10  C   UNK N   1      29.803  15.198   3.827  0.00  0.00     0.058 C 
HETATM   11  C   UNK N   1      28.712  14.521   4.629  0.00  0.00     0.014 C 
HETATM   12  C   UNK N   1      27.374  14.819   3.966  0.00  0.00     0.084 C 
HETATM   13  C   UNK N   1      27.198  16.298   3.733  0.00  0.00     0.157 C 
HETATM   14  C   UNK N   1      28.380  17.221   3.721  0.00  0.00     0.014 C 
HETATM   15  O   UNK N   1      26.065  16.745   3.662  0.00  0.00    -0.293 OA
BRANCH  14  16
HETATM   16  C   UNK N   1      28.171  18.715   3.690  0.00  0.00     0.083 C 
BRANCH  16  17
HETATM   17  C   UNK N   1      27.893  19.291   5.049  0.00  0.00    -0.052 A 
HETATM   18  C   UNK N   1      27.254  20.530   5.193  0.00  0.00     0.007 A 
HETATM   19  C   UNK N   1      26.986  21.047   6.462  0.00  0.00     0.002 A 
HETATM   20  C   UNK N   1      27.344  20.319   7.599  0.00  0.00     0.018 A 
HETATM   21  C   UNK N   1      27.972  19.078   7.463  0.00  0.00     0.006 A 
HETATM   22  C   UNK N   1      28.248  18.564   6.190  0.00  0.00     0.025 A 
HETATM   23  I   UNK N   1      28.482  17.974   9.178  0.00  0.00    -0.045 I 
ENDBRANCH  16  17
ENDBRANCH  14  16
ENDBRANCH   7   9
ENDBRANCH   6   7
BRANCH   5  24
HETATM   24  C   UNK N   1      34.271  16.441   8.403  0.00  0.00     0.040 A 
HETATM   25  C   UNK N   1      35.145  15.202   8.397  0.00  0.00     0.041 A 
HETATM   26  C   UNK N   1      34.295  13.957   8.218  0.00  0.00     0.017 C 
HETATM   27  C   UNK N   1      35.980  15.013   9.665  0.00  0.00     0.096 A 
HETATM   28  C   UNK N   1      35.720  16.001  10.763  0.00  0.00     0.130 A 
HETATM   29  N   UNK N   1      34.915  16.988  10.608  0.00  0.00    -0.283 N 
HETATM   30  N   UNK N   1      34.219  17.214   9.438  0.00  0.00    -0.302 N 
ATOM     31  HN  UNK N   1      34.785  17.636  11.384  1.00  0.00     0.188 HD
ATOM     32  HN  UNK N   1      33.626  18.042   9.387  1.00  0.00     0.186 HD
BRANCH  28  33
HETATM   33  O   UNK N   1      36.356  15.853  11.941  0.00  0.00    -0.348 OA
HETATM   34  H   UNK N   1      36.160  16.428  12.654  0.00  0.00     0.219 HD
ENDBRANCH  28  33
ENDBRANCH   5  24
TORSDOF 6
ENDMDL
MODEL 4
REMARK VINA RESULT:      -8.1      6.551      8.600
REMARK  6 active torsions:
REMARK  status: ('A' for Active; 'I' for Inactive)
REMARK    1  A    between atoms: C_16  and  C_14 
REMARK    2  A    between atoms: C_20  and  C_14 
REMARK    3  A    between atoms: C_24  and  C_17 
REMARK    4  A    between atoms: N_26  and  C_19 
REMARK    5  A    between atoms: N_26  and  C_21 
REMARK    6  A    between atoms: O_32  and  C_23 
ROOT
HETATM    1  C   UNK N   1      22.169  13.630   6.926  0.00  0.00     0.015 A 
HETATM    2  C   UNK N   1      24.426  14.337   7.425  0.00  0.00     0.015 A 
HETATM    3  C   UNK N   1      22.266  14.227   5.653  0.00  0.00     0.030 A 
HETATM    4  C   UNK N   1      24.520  14.919   6.177  0.00  0.00     0.030 A 
HETATM    5  C   UNK N   1      23.252  13.699   7.827  0.00  0.00    -0.012 A 
HETATM    6  C   UNK N   1      23.443  14.899   5.286  0.00  0.00     0.032 A 
ENDROOT
BRANCH   6   7
HETATM    7  N   UNK N   1      23.570  15.540   4.019  0.00  0.00    -0.359 N 
HETATM    8  H   UNK N   1      24.373  15.384   3.471  0.00  0.00     0.166 HD
BRANCH   7   9
HETATM    9  C   UNK N   1      22.538  16.408   3.540  0.00  0.00     0.019 C 
HETATM   10  C   UNK N   1      21.602  15.919   2.455  0.00  0.00     0.058 C 
HETATM   11  C   UNK N   1      20.176  16.329   2.754  0.00  0.00     0.014 C 
HETATM   12  C   UNK N   1      20.106  17.851   2.757  0.00  0.00     0.084 C 
HETATM   13  C   UNK N   1      21.163  18.445   3.652  0.00  0.00     0.157 C 
HETATM   14  C   UNK N   1      22.367  17.647   4.055  0.00  0.00     0.014 C 
HETATM   15  O   UNK N   1      20.967  19.550   4.130  0.00  0.00    -0.293 OA
BRANCH  14  16
HETATM   16  C   UNK N   1      23.309  18.179   5.106  0.00  0.00     0.083 C 
BRANCH  16  17
HETATM   17  C   UNK N   1      24.574  18.740   4.522  0.00  0.00    -0.052 A 
HETATM   18  C   UNK N   1      24.542  19.819   3.628  0.00  0.00     0.007 A 
HETATM   19  C   UNK N   1      25.727  20.341   3.104  0.00  0.00     0.002 A 
HETATM   20  C   UNK N   1      26.955  19.795   3.485  0.00  0.00     0.018 A 
HETATM   21  C   UNK N   1      26.995  18.727   4.384  0.00  0.00     0.006 A 
HETATM   22  C   UNK N   1      25.806  18.197   4.901  0.00  0.00     0.025 A 
HETATM   23  I   UNK N   1      28.848  17.929   4.975  0.00  0.00    -0.045 I 
ENDBRANCH  16  17
ENDBRANCH  14  16
ENDBRANCH   7   9
ENDBRANCH   6   7
BRANCH   5  24
HETATM   24  C   UNK N   1      23.198  13.159   9.213  0.00  0.00     0.040 A 
HETATM   25  C   UNK N   1      21.888  12.741   9.848  0.00  0.00     0.041 A 
HETATM   26  C   UNK N   1      20.934  13.919   9.918  0.00  0.00     0.017 C 
HETATM   27  C   UNK N   1      22.025  12.173  11.262  0.00  0.00     0.096 A 
HETATM   28  C   UNK N   1      23.403  12.229  11.851  0.00  0.00     0.130 A 
HETATM   29  N   UNK N   1      24.410  12.646  11.174  0.00  0.00    -0.283 N 
HETATM   30  N   UNK N   1      24.310  13.084   9.870  0.00  0.00    -0.302 N 
ATOM     31  HN  UNK N   1      25.327  12.653  11.621  1.00  0.00     0.188 HD
ATOM     32  HN  UNK N   1      25.167  13.366   9.393  1.00  0.00     0.186 HD
BRANCH  28  33
HETATM   33  O   UNK N   1      23.589  11.825  13.121  0.00  0.00    -0.348 OA
HETATM   34  H   UNK N   1      23.103  12.223  13.816  0.00  0.00     0.219 HD
ENDBRANCH  28  33
ENDBRANCH   5  24
TORSDOF 6
ENDMDL
MODEL 5
REMARK VINA RESULT:      -8.1      1.889      3.355
REMARK  6 active torsions:
REMARK  status: ('A' for Active; 'I' for Inactive)
REMARK    1  A    between atoms: C_16  and  C_14 
REMARK    2  A    between atoms: C_20  and  C_14 
REMARK    3  A    between atoms: C_24  and  C_17 
REMARK    4  A    between atoms: N_26  and  C_19 
REMARK    5  A    between atoms: N_26  and  C_21 
REMARK    6  A    between atoms: O_32  and  C_23 
ROOT
HETATM    1  C   UNK N   1      31.735  16.581   6.605  0.00  0.00     0.015 A 
HETATM    2  C   UNK N   1      30.821  16.978   8.807  0.00  0.00     0.015 A 
HETATM    3  C   UNK N   1      30.454  16.760   6.044  0.00  0.00     0.030 A 
HETATM    4  C   UNK N   1      29.569  17.156   8.256  0.00  0.00     0.030 A 
HETATM    5  C   UNK N   1      31.918  16.676   8.000  0.00  0.00    -0.012 A 
HETATM    6  C   UNK N   1      29.358  17.024   6.880  0.00  0.00     0.032 A 
ENDROOT
BRANCH   6   7
HETATM    7  N   UNK N   1      28.042  17.183   6.355  0.00  0.00    -0.359 N 
HETATM    8  H   UNK N   1      27.461  16.396   6.245  0.00  0.00     0.166 HD
BRANCH   7   9
HETATM    9  C   UNK N   1      27.562  18.480   5.986  0.00  0.00     0.019 C 
HETATM   10  C   UNK N   1      27.460  19.561   7.042  0.00  0.00     0.058 C 
HETATM   11  C   UNK N   1      27.949  20.887   6.498  0.00  0.00     0.014 C 
HETATM   12  C   UNK N   1      27.041  21.296   5.346  0.00  0.00     0.084 C 
HETATM   13  C   UNK N   1      26.901  20.183   4.339  0.00  0.00     0.157 C 
HETATM   14  C   UNK N   1      27.221  18.765   4.709  0.00  0.00     0.014 C 
HETATM   15  O   UNK N   1      26.626  20.472   3.186  0.00  0.00    -0.293 OA
BRANCH  14  16
HETATM   16  C   UNK N   1      27.270  17.699   3.644  0.00  0.00     0.083 C 
BRANCH  16  17
HETATM   17  C   UNK N   1      25.964  16.974   3.486  0.00  0.00    -0.052 A 
HETATM   18  C   UNK N   1      25.867  15.821   2.695  0.00  0.00     0.007 A 
HETATM   19  C   UNK N   1      24.650  15.148   2.570  0.00  0.00     0.002 A 
HETATM   20  C   UNK N   1      23.523  15.616   3.249  0.00  0.00     0.018 A 
HETATM   21  C   UNK N   1      23.615  16.759   4.048  0.00  0.00     0.006 A 
HETATM   22  C   UNK N   1      24.834  17.439   4.165  0.00  0.00     0.025 A 
HETATM   23  I   UNK N   1      21.922  17.442   5.090  0.00  0.00    -0.045 I 
ENDBRANCH  16  17
ENDBRANCH  14  16
ENDBRANCH   7   9
ENDBRANCH   6   7
BRANCH   5  24
HETATM   24  C   UNK N   1      33.223  16.425   8.672  0.00  0.00     0.040 A 
HETATM   25  C   UNK N   1      34.008  15.152   8.426  0.00  0.00     0.041 A 
HETATM   26  C   UNK N   1      33.191  13.940   8.836  0.00  0.00     0.017 C 
HETATM   27  C   UNK N   1      35.344  15.081   9.168  0.00  0.00     0.096 A 
HETATM   28  C   UNK N   1      35.619  16.212  10.115  0.00  0.00     0.130 A 
HETATM   29  N   UNK N   1      34.821  17.212  10.222  0.00  0.00    -0.283 N 
HETATM   30  N   UNK N   1      33.654  17.324   9.496  0.00  0.00    -0.302 N 
ATOM     31  HN  UNK N   1      35.063  17.958  10.874  1.00  0.00     0.188 HD
ATOM     32  HN  UNK N   1      33.095  18.169   9.617  1.00  0.00     0.186 HD
BRANCH  28  33
HETATM   33  O   UNK N   1      36.735  16.180  10.866  0.00  0.00    -0.348 OA
HETATM   34  H   UNK N   1      36.993  16.937  11.354  0.00  0.00     0.219 HD
ENDBRANCH  28  33
ENDBRANCH   5  24
TORSDOF 6
ENDMDL
MODEL 6
REMARK VINA RESULT:      -8.0      5.705      7.779
REMARK  6 active torsions:
REMARK  status: ('A' for Active; 'I' for Inactive)
REMARK    1  A    between atoms: C_16  and  C_14 
REMARK    2  A    between atoms: C_20  and  C_14 
REMARK    3  A    between atoms: C_24  and  C_17 
REMARK    4  A    between atoms: N_26  and  C_19 
REMARK    5  A    between atoms: N_26  and  C_21 
REMARK    6  A    between atoms: O_32  and  C_23 
ROOT
HETATM    1  C   UNK N   1      24.392  12.458   7.005  0.00  0.00     0.015 A 
HETATM    2  C   UNK N   1      25.294  14.353   8.206  0.00  0.00     0.015 A 
HETATM    3  C   UNK N   1      24.921  12.971   5.803  0.00  0.00     0.030 A 
HETATM    4  C   UNK N   1      25.813  14.852   7.029  0.00  0.00     0.030 A 
HETATM    5  C   UNK N   1      24.566  13.162   8.215  0.00  0.00    -0.012 A 
HETATM    6  C   UNK N   1      25.615  14.191   5.812  0.00  0.00     0.032 A 
ENDROOT
BRANCH   6   7
HETATM    7  N   UNK N   1      26.141  14.758   4.614  0.00  0.00    -0.359 N 
HETATM    8  H   UNK N   1      25.530  15.161   3.956  0.00  0.00     0.166 HD
BRANCH   7   9
HETATM    9  C   UNK N   1      27.549  14.742   4.363  0.00  0.00     0.019 C 
HETATM   10  C   UNK N   1      28.345  13.492   4.678  0.00  0.00     0.058 C 
HETATM   11  C   UNK N   1      29.341  13.200   3.576  0.00  0.00     0.014 C 
HETATM   12  C   UNK N   1      30.329  14.356   3.504  0.00  0.00     0.084 C 
HETATM   13  C   UNK N   1      29.615  15.680   3.412  0.00  0.00     0.157 C 
HETATM   14  C   UNK N   1      28.179  15.811   3.826  0.00  0.00     0.014 C 
HETATM   15  O   UNK N   1      30.195  16.620   2.892  0.00  0.00    -0.293 OA
BRANCH  14  16
HETATM   16  C   UNK N   1      27.424  17.085   3.541  0.00  0.00     0.083 C 
BRANCH  16  17
HETATM   17  C   UNK N   1      27.586  18.112   4.625  0.00  0.00    -0.052 A 
HETATM   18  C   UNK N   1      27.385  19.475   4.366  0.00  0.00     0.007 A 
HETATM   19  C   UNK N   1      27.524  20.418   5.387  0.00  0.00     0.002 A 
HETATM   20  C   UNK N   1      27.850  20.001   6.679  0.00  0.00     0.018 A 
HETATM   21  C   UNK N   1      28.041  18.643   6.947  0.00  0.00     0.006 A 
HETATM   22  C   UNK N   1      27.911  17.698   5.920  0.00  0.00     0.025 A 
HETATM   23  I   UNK N   1      28.503  18.019   8.900  0.00  0.00    -0.045 I 
ENDBRANCH  16  17
ENDBRANCH  14  16
ENDBRANCH   7   9
ENDBRANCH   6   7
BRANCH   5  24
HETATM   24  C   UNK N   1      23.974  12.724   9.509  0.00  0.00     0.040 A 
HETATM   25  C   UNK N   1      22.477  12.559   9.677  0.00  0.00     0.041 A 
HETATM   26  C   UNK N   1      21.768  13.876   9.423  0.00  0.00     0.017 C 
HETATM   27  C   UNK N   1      22.049  12.063  11.060  0.00  0.00     0.096 A 
HETATM   28  C   UNK N   1      23.149  11.935  12.071  0.00  0.00     0.130 A 
HETATM   29  N   UNK N   1      24.378  12.144  11.762  0.00  0.00    -0.283 N 
HETATM   30  N   UNK N   1      24.782  12.511  10.495  0.00  0.00    -0.302 N 
ATOM     31  HN  UNK N   1      25.087  12.031  12.486  1.00  0.00     0.188 HD
ATOM     32  HN  UNK N   1      25.782  12.624  10.327  1.00  0.00     0.186 HD
BRANCH  28  33
HETATM   33  O   UNK N   1      22.842  11.583  13.333  0.00  0.00    -0.348 OA
HETATM   34  H   UNK N   1      22.795  12.237  14.003  0.00  0.00     0.219 HD
ENDBRANCH  28  33
ENDBRANCH   5  24
TORSDOF 6
ENDMDL
MODEL 7
REMARK VINA RESULT:      -7.9      2.290      3.390
REMARK  6 active torsions:
REMARK  status: ('A' for Active; 'I' for Inactive)
REMARK    1  A    between atoms: C_16  and  C_14 
REMARK    2  A    between atoms: C_20  and  C_14 
REMARK    3  A    between atoms: C_24  and  C_17 
REMARK    4  A    between atoms: N_26  and  C_19 
REMARK    5  A    between atoms: N_26  and  C_21 
REMARK    6  A    between atoms: O_32  and  C_23 
ROOT
HETATM    1  C   UNK N   1      34.264  16.990   9.196  0.00  0.00     0.015 A 
HETATM    2  C   UNK N   1      32.947  14.963   9.189  0.00  0.00     0.015 A 
HETATM    3  C   UNK N   1      33.285  17.625   8.404  0.00  0.00     0.030 A 
HETATM    4  C   UNK N   1      31.989  15.587   8.417  0.00  0.00     0.030 A 
HETATM    5  C   UNK N   1      34.101  15.642   9.579  0.00  0.00    -0.012 A 
HETATM    6  C   UNK N   1      32.151  16.909   7.990  0.00  0.00     0.032 A 
ENDROOT
BRANCH   6   7
HETATM    7  N   UNK N   1      31.153  17.506   7.166  0.00  0.00    -0.359 N 
HETATM    8  H   UNK N   1      30.433  18.037   7.577  0.00  0.00     0.166 HD
BRANCH   7   9
HETATM    9  C   UNK N   1      31.191  17.337   5.746  0.00  0.00     0.019 C 
HETATM   10  C   UNK N   1      32.510  17.483   5.017  0.00  0.00     0.058 C 
HETATM   11  C   UNK N   1      32.660  16.406   3.963  0.00  0.00     0.014 C 
HETATM   12  C   UNK N   1      31.554  16.587   2.932  0.00  0.00     0.084 C 
HETATM   13  C   UNK N   1      30.202  16.678   3.592  0.00  0.00     0.157 C 
HETATM   14  C   UNK N   1      30.077  17.025   5.045  0.00  0.00     0.014 C 
HETATM   15  O   UNK N   1      29.217  16.357   2.947  0.00  0.00    -0.293 OA
BRANCH  14  16
HETATM   16  C   UNK N   1      28.741  16.915   5.736  0.00  0.00     0.083 C 
BRANCH  16  17
HETATM   17  C   UNK N   1      27.986  18.213   5.750  0.00  0.00    -0.052 A 
HETATM   18  C   UNK N   1      28.085  19.096   6.834  0.00  0.00     0.007 A 
HETATM   19  C   UNK N   1      27.390  20.307   6.827  0.00  0.00     0.002 A 
HETATM   20  C   UNK N   1      26.601  20.650   5.727  0.00  0.00     0.018 A 
HETATM   21  C   UNK N   1      26.505  19.779   4.639  0.00  0.00     0.006 A 
HETATM   22  C   UNK N   1      27.195  18.561   4.650  0.00  0.00     0.025 A 
HETATM   23  I   UNK N   1      25.339  20.314   2.975  0.00  0.00    -0.045 I 
ENDBRANCH  16  17
ENDBRANCH  14  16
ENDBRANCH   7   9
ENDBRANCH   6   7
BRANCH   5  24
HETATM   24  C   UNK N   1      35.125  14.882  10.349  0.00  0.00     0.040 A 
HETATM   25  C   UNK N   1      36.498  14.600   9.774  0.00  0.00     0.041 A 
HETATM   26  C   UNK N   1      36.380  13.788   8.497  0.00  0.00     0.017 C 
HETATM   27  C   UNK N   1      37.433  13.842  10.718  0.00  0.00     0.096 A 
HETATM   28  C   UNK N   1      36.820  13.388  12.009  0.00  0.00     0.130 A 
HETATM   29  N   UNK N   1      35.616  13.695  12.330  0.00  0.00    -0.283 N 
HETATM   30  N   UNK N   1      34.791  14.448  11.520  0.00  0.00    -0.302 N 
ATOM     31  HN  UNK N   1      35.253  13.369  13.225  1.00  0.00     0.188 HD
ATOM     32  HN  UNK N   1      33.859  14.676  11.867  1.00  0.00     0.186 HD
BRANCH  28  33
HETATM   33  O   UNK N   1      37.555  12.644  12.857  0.00  0.00    -0.348 OA
HETATM   34  H   UNK N   1      37.312  12.587  13.760  0.00  0.00     0.219 HD
ENDBRANCH  28  33
ENDBRANCH   5  24
TORSDOF 6
ENDMDL
MODEL 8
REMARK VINA RESULT:      -7.8      2.994      4.979
REMARK  6 active torsions:
REMARK  status: ('A' for Active; 'I' for Inactive)
REMARK    1  A    between atoms: C_16  and  C_14 
REMARK    2  A    between atoms: C_20  and  C_14 
REMARK    3  A    between atoms: C_24  and  C_17 
REMARK    4  A    between atoms: N_26  and  C_19 
REMARK    5  A    between atoms: N_26  and  C_21 
REMARK    6  A    between atoms: O_32  and  C_23 
ROOT
HETATM    1  C   UNK N   1      31.422  16.773   7.481  0.00  0.00     0.015 A 
HETATM    2  C   UNK N   1      33.261  17.216   5.976  0.00  0.00     0.015 A 
HETATM    3  C   UNK N   1      30.510  17.160   6.477  0.00  0.00     0.030 A 
HETATM    4  C   UNK N   1      32.367  17.591   4.994  0.00  0.00     0.030 A 
HETATM    5  C   UNK N   1      32.810  16.816   7.235  0.00  0.00    -0.012 A 
HETATM    6  C   UNK N   1      30.990  17.596   5.232  0.00  0.00     0.032 A 
ENDROOT
BRANCH   6   7
HETATM    7  N   UNK N   1      30.103  18.022   4.201  0.00  0.00    -0.359 N 
HETATM    8  H   UNK N   1      30.362  18.764   3.608  0.00  0.00     0.166 HD
BRANCH   7   9
HETATM    9  C   UNK N   1      28.837  17.378   4.022  0.00  0.00     0.019 C 
HETATM   10  C   UNK N   1      27.622  17.919   4.746  0.00  0.00     0.058 C 
HETATM   11  C   UNK N   1      26.415  17.927   3.831  0.00  0.00     0.014 C 
HETATM   12  C   UNK N   1      26.102  16.489   3.438  0.00  0.00     0.084 C 
HETATM   13  C   UNK N   1      27.327  15.790   2.906  0.00  0.00     0.157 C 
HETATM   14  C   UNK N   1      28.701  16.312   3.201  0.00  0.00     0.014 C 
HETATM   15  O   UNK N   1      27.174  14.852   2.140  0.00  0.00    -0.293 OA
BRANCH  14  16
HETATM   16  C   UNK N   1      29.899  15.724   2.500  0.00  0.00     0.083 C 
BRANCH  16  17
HETATM   17  C   UNK N   1      30.696  14.806   3.383  0.00  0.00    -0.052 A 
HETATM   18  C   UNK N   1      30.078  14.054   4.391  0.00  0.00     0.007 A 
HETATM   19  C   UNK N   1      30.827  13.193   5.194  0.00  0.00     0.002 A 
HETATM   20  C   UNK N   1      32.202  13.066   4.983  0.00  0.00     0.018 A 
HETATM   21  C   UNK N   1      32.824  13.804   3.973  0.00  0.00     0.006 A 
HETATM   22  C   UNK N   1      32.073  14.675   3.174  0.00  0.00     0.025 A 
HETATM   23  I   UNK N   1      34.888  13.587   3.642  0.00  0.00    -0.045 I 
ENDBRANCH  16  17
ENDBRANCH  14  16
ENDBRANCH   7   9
ENDBRANCH   6   7
BRANCH   5  24
HETATM   24  C   UNK N   1      33.834  16.496   8.267  0.00  0.00     0.040 A 
HETATM   25  C   UNK N   1      34.666  15.233   8.190  0.00  0.00     0.041 A 
HETATM   26  C   UNK N   1      33.771  14.007   8.226  0.00  0.00     0.017 C 
HETATM   27  C   UNK N   1      35.696  15.086   9.312  0.00  0.00     0.096 A 
HETATM   28  C   UNK N   1      35.645  16.139  10.379  0.00  0.00     0.130 A 
HETATM   29  N   UNK N   1      34.847  17.142  10.300  0.00  0.00    -0.283 N 
HETATM   30  N   UNK N   1      33.972  17.326   9.250  0.00  0.00    -0.302 N 
ATOM     31  HN  UNK N   1      34.862  17.835  11.048  1.00  0.00     0.188 HD
ATOM     32  HN  UNK N   1      33.396  18.168   9.249  1.00  0.00     0.186 HD
BRANCH  28  33
HETATM   33  O   UNK N   1      36.463  16.035  11.442  0.00  0.00    -0.348 OA
HETATM   34  H   UNK N   1      36.731  15.190  11.746  0.00  0.00     0.219 HD
ENDBRANCH  28  33
ENDBRANCH   5  24
TORSDOF 6
ENDMDL
MODEL 9
REMARK VINA RESULT:      -7.8      8.070      9.988
REMARK  6 active torsions:
REMARK  status: ('A' for Active; 'I' for Inactive)
REMARK    1  A    between atoms: C_16  and  C_14 
REMARK    2  A    between atoms: C_20  and  C_14 
REMARK    3  A    between atoms: C_24  and  C_17 
REMARK    4  A    between atoms: N_26  and  C_19 
REMARK    5  A    between atoms: N_26  and  C_21 
REMARK    6  A    between atoms: O_32  and  C_23 
ROOT
HETATM    1  C   UNK N   1      21.195  12.499   7.196  0.00  0.00     0.015 A 
HETATM    2  C   UNK N   1      21.041  14.686   8.217  0.00  0.00     0.015 A 
HETATM    3  C   UNK N   1      20.633  13.016   6.011  0.00  0.00     0.030 A 
HETATM    4  C   UNK N   1      20.494  15.190   7.055  0.00  0.00     0.030 A 
HETATM    5  C   UNK N   1      21.387  13.337   8.314  0.00  0.00    -0.012 A 
HETATM    6  C   UNK N   1      20.256  14.368   5.949  0.00  0.00     0.032 A 
ENDROOT
BRANCH   6   7
HETATM    7  N   UNK N   1      19.659  14.921   4.780  0.00  0.00    -0.359 N 
HETATM    8  H   UNK N   1      19.014  15.661   4.864  0.00  0.00     0.166 HD
BRANCH   7   9
HETATM    9  C   UNK N   1      19.990  14.409   3.486  0.00  0.00     0.019 C 
HETATM   10  C   UNK N   1      19.115  13.341   2.865  0.00  0.00     0.058 C 
HETATM   11  C   UNK N   1      18.889  13.622   1.394  0.00  0.00     0.014 C 
HETATM   12  C   UNK N   1      20.236  13.568   0.685  0.00  0.00     0.084 C 
HETATM   13  C   UNK N   1      21.251  14.443   1.374  0.00  0.00     0.157 C 
HETATM   14  C   UNK N   1      21.054  14.878   2.796  0.00  0.00     0.014 C 
HETATM   15  O   UNK N   1      22.183  14.880   0.718  0.00  0.00    -0.293 OA
BRANCH  14  16
HETATM   16  C   UNK N   1      21.970  15.911   3.403  0.00  0.00     0.083 C 
BRANCH  16  17
HETATM   17  C   UNK N   1      22.996  15.309   4.321  0.00  0.00    -0.052 A 
HETATM   18  C   UNK N   1      23.499  16.028   5.414  0.00  0.00     0.007 A 
HETATM   19  C   UNK N   1      24.441  15.451   6.268  0.00  0.00     0.002 A 
HETATM   20  C   UNK N   1      24.876  14.143   6.043  0.00  0.00     0.018 A 
HETATM   21  C   UNK N   1      24.371  13.417   4.961  0.00  0.00     0.006 A 
HETATM   22  C   UNK N   1      23.433  14.000   4.099  0.00  0.00     0.025 A 
HETATM   23  I   UNK N   1      25.008  11.440   4.644  0.00  0.00    -0.045 I 
ENDBRANCH  16  17
ENDBRANCH  14  16
ENDBRANCH   7   9
ENDBRANCH   6   7
BRANCH   5  24
HETATM   24  C   UNK N   1      21.903  12.849   9.623  0.00  0.00     0.040 A 
HETATM   25  C   UNK N   1      23.390  12.776   9.909  0.00  0.00     0.041 A 
HETATM   26  C   UNK N   1      24.073  11.849   8.920  0.00  0.00     0.017 C 
HETATM   27  C   UNK N   1      23.738  12.288  11.316  0.00  0.00     0.096 A 
HETATM   28  C   UNK N   1      22.576  11.841  12.152  0.00  0.00     0.130 A 
HETATM   29  N   UNK N   1      21.366  11.948  11.738  0.00  0.00    -0.283 N 
HETATM   30  N   UNK N   1      21.037  12.463  10.502  0.00  0.00    -0.302 N 
ATOM     31  HN  UNK N   1      20.613  11.638  12.353  1.00  0.00     0.188 HD
ATOM     32  HN  UNK N   1      20.047  12.543  10.265  1.00  0.00     0.186 HD
BRANCH  28  33
HETATM   33  O   UNK N   1      22.808  11.322  13.372  0.00  0.00    -0.348 OA
HETATM   34  H   UNK N   1      23.599  10.847  13.536  0.00  0.00     0.219 HD
ENDBRANCH  28  33
ENDBRANCH   5  24
TORSDOF 6
ENDMDL
