MODEL 1
REMARK VINA RESULT:      -4.3      0.000      0.000
REMARK  1 active torsions:
REMARK  status: ('A' for Active; 'I' for Inactive)
REMARK    1  A    between atoms: C_4  and  N_2 
ROOT
HETATM    1  C   UNK N   1      26.588  28.743  -4.682  0.00  0.00     0.082 A 
HETATM    2  C   UNK N   1      25.347  27.862  -4.572  0.00  0.00     0.029 A 
HETATM    3  C   UNK N   1      25.112  26.894  -5.731  0.00  0.00     0.035 A 
HETATM    4  C   UNK N   1      26.104  26.891  -6.863  0.00  0.00    -0.087 A 
HETATM    5  C   UNK N   1      25.872  25.946  -7.991  0.00  0.00     0.043 C 
HETATM    6  C   UNK N   1      27.180  27.687  -6.912  0.00  0.00    -0.022 A 
HETATM    7  C   UNK N   1      27.554  28.688  -5.861  0.00  0.00     0.052 A 
ENDROOT
BRANCH   1   8
HETATM    8  N   UNK N   1      26.862  29.691  -3.597  0.00  0.00    -0.416 N 
HETATM    9  C   UNK N   1      26.371  31.060  -3.646  0.00  0.00     0.143 C 
HETATM   10  C   UNK N   1      27.637  29.293  -2.431  0.00  0.00     0.143 C 
ENDBRANCH   1   8
TORSDOF 1
ENDMDL
MODEL 2
REMARK VINA RESULT:      -4.3     27.176     29.055
REMARK  1 active torsions:
REMARK  status: ('A' for Active; 'I' for Inactive)
REMARK    1  A    between atoms: C_4  and  N_2 
ROOT
HETATM    1  C   UNK N   1      35.710  12.775  16.387  0.00  0.00     0.082 A 
HETATM    2  C   UNK N   1      35.289  13.682  17.539  0.00  0.00     0.029 A 
HETATM    3  C   UNK N   1      35.116  12.999  18.896  0.00  0.00     0.035 A 
HETATM    4  C   UNK N   1      35.371  11.518  18.980  0.00  0.00    -0.087 A 
HETATM    5  C   UNK N   1      35.202  10.856  20.303  0.00  0.00     0.043 C 
HETATM    6  C   UNK N   1      35.740  10.766  17.935  0.00  0.00    -0.022 A 
HETATM    7  C   UNK N   1      35.953  11.278  16.543  0.00  0.00     0.052 A 
ENDROOT
BRANCH   1   8
HETATM    8  N   UNK N   1      35.891  13.379  15.062  0.00  0.00    -0.416 N 
HETATM    9  C   UNK N   1      35.180  12.874  13.898  0.00  0.00     0.143 C 
HETATM   10  C   UNK N   1      36.790  14.506  14.868  0.00  0.00     0.143 C 
ENDBRANCH   1   8
TORSDOF 1
ENDMDL
MODEL 3
REMARK VINA RESULT:      -4.2     21.184     22.294
REMARK  1 active torsions:
REMARK  status: ('A' for Active; 'I' for Inactive)
REMARK    1  A    between atoms: C_4  and  N_2 
ROOT
HETATM    1  C   UNK N   1      22.915  12.656   8.838  0.00  0.00     0.082 A 
HETATM    2  C   UNK N   1      24.321  12.479   9.403  0.00  0.00     0.029 A 
HETATM    3  C   UNK N   1      24.405  12.183  10.899  0.00  0.00     0.035 A 
HETATM    4  C   UNK N   1      23.120  12.092  11.677  0.00  0.00    -0.087 A 
HETATM    5  C   UNK N   1      23.206  11.804  13.135  0.00  0.00     0.043 C 
HETATM    6  C   UNK N   1      21.907  12.256  11.131  0.00  0.00    -0.022 A 
HETATM    7  C   UNK N   1      21.651  12.551   9.685  0.00  0.00     0.052 A 
ENDROOT
BRANCH   1   8
HETATM    8  N   UNK N   1      22.775  12.942   7.406  0.00  0.00    -0.416 N 
HETATM    9  C   UNK N   1      21.936  12.119   6.548  0.00  0.00     0.143 C 
HETATM   10  C   UNK N   1      23.473  14.063   6.793  0.00  0.00     0.143 C 
ENDBRANCH   1   8
TORSDOF 1
ENDMDL
MODEL 4
REMARK VINA RESULT:      -4.2     27.112     28.993
REMARK  1 active torsions:
REMARK  status: ('A' for Active; 'I' for Inactive)
REMARK    1  A    between atoms: C_4  and  N_2 
ROOT
HETATM    1  C   UNK N   1      35.756  12.828  16.329  0.00  0.00     0.082 A 
HETATM    2  C   UNK N   1      36.022  11.328  16.417  0.00  0.00     0.029 A 
HETATM    3  C   UNK N   1      35.801  10.691  17.788  0.00  0.00     0.035 A 
HETATM    4  C   UNK N   1      35.348  11.578  18.916  0.00  0.00    -0.087 A 
HETATM    5  C   UNK N   1      35.133  10.954  20.251  0.00  0.00     0.043 C 
HETATM    6  C   UNK N   1      35.127  12.893  18.786  0.00  0.00    -0.022 A 
HETATM    7  C   UNK N   1      35.297  13.669  17.516  0.00  0.00     0.052 A 
ENDROOT
BRANCH   1   8
HETATM    8  N   UNK N   1      35.952  13.492  15.036  0.00  0.00    -0.416 N 
HETATM    9  C   UNK N   1      35.286  13.017  13.833  0.00  0.00     0.143 C 
HETATM   10  C   UNK N   1      36.824  14.651  14.913  0.00  0.00     0.143 C 
ENDBRANCH   1   8
TORSDOF 1
ENDMDL
MODEL 5
REMARK VINA RESULT:      -4.2      0.167      1.992
REMARK  1 active torsions:
REMARK  status: ('A' for Active; 'I' for Inactive)
REMARK    1  A    between atoms: C_4  and  N_2 
ROOT
HETATM    1  C   UNK N   1      26.638  28.754  -4.816  0.00  0.00     0.082 A 
HETATM    2  C   UNK N   1      27.615  28.772  -5.988  0.00  0.00     0.029 A 
HETATM    3  C   UNK N   1      27.321  27.783  -7.115  0.00  0.00     0.035 A 
HETATM    4  C   UNK N   1      26.116  26.891  -6.979  0.00  0.00    -0.087 A 
HETATM    5  C   UNK N   1      25.832  25.929  -8.079  0.00  0.00     0.043 C 
HETATM    6  C   UNK N   1      25.288  26.916  -5.926  0.00  0.00    -0.022 A 
HETATM    7  C   UNK N   1      25.434  27.821  -4.742  0.00  0.00     0.052 A 
ENDROOT
BRANCH   1   8
HETATM    8  N   UNK N   1      26.873  29.683  -3.705  0.00  0.00    -0.416 N 
HETATM    9  C   UNK N   1      27.628  29.280  -2.528  0.00  0.00     0.143 C 
HETATM   10  C   UNK N   1      26.356  31.043  -3.743  0.00  0.00     0.143 C 
ENDBRANCH   1   8
TORSDOF 1
ENDMDL
MODEL 6
REMARK VINA RESULT:      -4.2     26.708     28.523
REMARK  1 active torsions:
REMARK  status: ('A' for Active; 'I' for Inactive)
REMARK    1  A    between atoms: C_4  and  N_2 
ROOT
HETATM    1  C   UNK N   1      34.759  11.661  15.291  0.00  0.00     0.082 A 
HETATM    2  C   UNK N   1      34.834  10.361  16.085  0.00  0.00     0.029 A 
HETATM    3  C   UNK N   1      35.065  10.510  17.589  0.00  0.00     0.035 A 
HETATM    4  C   UNK N   1      35.196  11.901  18.150  0.00  0.00    -0.087 A 
HETATM    5  C   UNK N   1      35.421  12.044  19.615  0.00  0.00     0.043 C 
HETATM    6  C   UNK N   1      35.122  13.013  17.406  0.00  0.00    -0.022 A 
HETATM    7  C   UNK N   1      34.900  13.041  15.925  0.00  0.00     0.052 A 
ENDROOT
BRANCH   1   8
HETATM    8  N   UNK N   1      34.538  11.576  13.843  0.00  0.00    -0.416 N 
HETATM    9  C   UNK N   1      34.945  12.651  12.951  0.00  0.00     0.143 C 
HETATM   10  C   UNK N   1      33.903  10.409  13.249  0.00  0.00     0.143 C 
ENDBRANCH   1   8
TORSDOF 1
ENDMDL
MODEL 7
REMARK VINA RESULT:      -4.2      2.011      4.798
REMARK  1 active torsions:
REMARK  status: ('A' for Active; 'I' for Inactive)
REMARK    1  A    between atoms: C_4  and  N_2 
ROOT
HETATM    1  C   UNK N   1      26.125  26.735  -6.730  0.00  0.00     0.082 A 
HETATM    2  C   UNK N   1      27.226  27.777  -6.903  0.00  0.00     0.029 A 
HETATM    3  C   UNK N   1      27.326  28.830  -5.801  0.00  0.00     0.035 A 
HETATM    4  C   UNK N   1      26.350  28.754  -4.657  0.00  0.00    -0.087 A 
HETATM    5  C   UNK N   1      26.450  29.781  -3.584  0.00  0.00     0.043 C 
HETATM    6  C   UNK N   1      25.399  27.815  -4.553  0.00  0.00    -0.022 A 
HETATM    7  C   UNK N   1      25.167  26.716  -5.544  0.00  0.00     0.052 A 
ENDROOT
BRANCH   1   8
HETATM    8  N   UNK N   1      25.984  25.700  -7.760  0.00  0.00    -0.416 N 
HETATM    9  C   UNK N   1      25.996  26.035  -9.176  0.00  0.00     0.143 C 
HETATM   10  C   UNK N   1      25.826  24.299  -7.399  0.00  0.00     0.143 C 
ENDBRANCH   1   8
TORSDOF 1
ENDMDL
MODEL 8
REMARK VINA RESULT:      -4.2      1.964      4.587
REMARK  1 active torsions:
REMARK  status: ('A' for Active; 'I' for Inactive)
REMARK    1  A    between atoms: C_4  and  N_2 
ROOT
HETATM    1  C   UNK N   1      26.107  26.800  -6.636  0.00  0.00     0.082 A 
HETATM    2  C   UNK N   1      25.122  26.842  -5.472  0.00  0.00     0.029 A 
HETATM    3  C   UNK N   1      25.335  27.966  -4.459  0.00  0.00     0.035 A 
HETATM    4  C   UNK N   1      26.477  28.920  -4.689  0.00  0.00    -0.087 A 
HETATM    5  C   UNK N   1      26.682  30.014  -3.700  0.00  0.00     0.043 C 
HETATM    6  C   UNK N   1      27.315  28.839  -5.731  0.00  0.00    -0.022 A 
HETATM    7  C   UNK N   1      27.245  27.801  -6.809  0.00  0.00     0.052 A 
ENDROOT
BRANCH   1   8
HETATM    8  N   UNK N   1      25.949  25.741  -7.639  0.00  0.00    -0.416 N 
HETATM    9  C   UNK N   1      25.893  24.339  -7.256  0.00  0.00     0.143 C 
HETATM   10  C   UNK N   1      25.841  26.059  -9.055  0.00  0.00     0.143 C 
ENDBRANCH   1   8
TORSDOF 1
ENDMDL
MODEL 9
REMARK VINA RESULT:      -4.1     13.565     14.794
REMARK  1 active torsions:
REMARK  status: ('A' for Active; 'I' for Inactive)
REMARK    1  A    between atoms: C_4  and  N_2 
ROOT
HETATM    1  C   UNK N   1      28.172  18.775   6.548  0.00  0.00     0.082 A 
HETATM    2  C   UNK N   1      27.523  20.138   6.768  0.00  0.00     0.029 A 
HETATM    3  C   UNK N   1      26.854  20.763   5.544  0.00  0.00     0.035 A 
HETATM    4  C   UNK N   1      26.890  19.997   4.249  0.00  0.00    -0.087 A 
HETATM    5  C   UNK N   1      26.237  20.608   3.058  0.00  0.00     0.043 C 
HETATM    6  C   UNK N   1      27.475  18.800   4.109  0.00  0.00    -0.022 A 
HETATM    7  C   UNK N   1      28.172  18.053   5.205  0.00  0.00     0.052 A 
ENDROOT
BRANCH   1   8
HETATM    8  N   UNK N   1      28.829  18.129   7.689  0.00  0.00    -0.416 N 
HETATM    9  C   UNK N   1      28.244  18.167   9.020  0.00  0.00     0.143 C 
HETATM   10  C   UNK N   1      30.094  17.427   7.528  0.00  0.00     0.143 C 
ENDBRANCH   1   8
TORSDOF 1
ENDMDL
