MODEL 1
REMARK VINA RESULT:      -6.6      0.000      0.000
REMARK  22 active torsions:
REMARK  status: ('A' for Active; 'I' for Inactive)
REMARK    1  A    between atoms: C_5  and  C_1 
REMARK    2  A    between atoms: O_38  and  C_1 
REMARK    3  A    between atoms: C_6  and  C_2 
REMARK    4  A    between atoms: O_39  and  C_2 
REMARK    5  A    between atoms: C_8  and  O_24 
REMARK    6  A    between atoms: C_9  and  O_25 
REMARK    7  A    between atoms: C_10  and  O_26 
REMARK    8  A    between atoms: C_11  and  O_27 
REMARK    9  A    between atoms: N_22  and  C_14 
REMARK   10  A    between atoms: C_15  and  N_23 
REMARK   11  A    between atoms: P_44  and  O_28 
REMARK   12  A    between atoms: P_44  and  O_29 
REMARK   13  A    between atoms: P_45  and  O_31 
REMARK   14  A    between atoms: P_45  and  O_32 
REMARK   15  A    between atoms: P_46  and  O_34 
REMARK   16  A    between atoms: P_47  and  O_36 
REMARK   17  A    between atoms: P_44  and  O_38 
REMARK   18  A    between atoms: P_46  and  O_39 
REMARK   19  A    between atoms: P_45  and  O_42 
REMARK   20  A    between atoms: P_47  and  O_42 
REMARK   21  A    between atoms: P_46  and  O_43 
REMARK   22  A    between atoms: P_47  and  O_43 
ROOT
HETATM    1  C   UNK N   1      26.430  16.233   6.556  0.00  0.00     0.188 A 
HETATM    2  C   UNK N   1      23.116  14.949   3.911  0.00  0.00     0.189 A 
HETATM    3  C   UNK N   1      24.759  14.959   6.105  0.00  0.00     0.122 A 
HETATM    4  C   UNK N   1      23.659  14.111   6.084  0.00  0.00     0.135 A 
HETATM    5  C   UNK N   1      24.981  15.747   5.058  0.00  0.00     0.142 A 
HETATM    6  N   UNK N   1      23.410  13.358   7.092  0.00  0.00    -0.383 N 
ATOM      7  HN  UNK N   1      22.661  12.672   6.995  1.00  0.00     0.157 HD
HETATM    8  N   UNK N   1      25.672  15.210   7.066  0.00  0.00    -0.346 N 
ATOM      9  HN  UNK N   1      25.776  14.744   7.968  1.00  0.00     0.167 HD
HETATM   10  N   UNK N   1      24.199  15.760   3.953  0.00  0.00    -0.336 N 
ATOM     11  HN  UNK N   1      24.421  16.371   3.167  1.00  0.00     0.168 HD
HETATM   12  N   UNK N   1      22.828  14.134   4.974  0.00  0.00    -0.297 N 
HETATM   13  N   UNK N   1      26.007  16.563   5.313  0.00  0.00    -0.297 N 
HETATM   14  H   UNK N   1      23.886  13.393   7.952  0.00  0.00     0.157 HD
ENDROOT
BRANCH  13  15
HETATM   15  C   UNK N   1      26.316  17.623   4.367  0.00  0.00     0.262 C 
HETATM   16  C   UNK N   1      27.464  18.597   4.594  0.00  0.00     0.198 C 
HETATM   17  C   UNK N   1      26.953  19.838   3.791  0.00  0.00     0.182 C 
HETATM   18  C   UNK N   1      25.511  19.416   3.460  0.00  0.00     0.180 C 
HETATM   19  O   UNK N   1      25.214  18.470   4.404  0.00  0.00    -0.353 OA
BRANCH  16  20
HETATM   20  O   UNK N   1      28.682  18.102   4.127  0.00  0.00    -0.388 OA
HETATM   21  H   UNK N   1      29.575  18.472   4.047  0.00  0.00     0.210 HD
ENDBRANCH  16  20
BRANCH  17  22
HETATM   22  O   UNK N   1      26.985  20.975   4.600  0.00  0.00    -0.390 OA
HETATM   23  H   UNK N   1      27.073  21.443   5.446  0.00  0.00     0.210 HD
ENDBRANCH  17  22
BRANCH  18  24
HETATM   24  C   UNK N   1      24.295  20.310   3.410  0.00  0.00     0.215 C 
BRANCH  24  25
HETATM   25  O   UNK N   1      23.234  19.435   3.086  0.00  0.00    -0.294 OA
BRANCH  25  26
HETATM   26  P   UNK N   1      21.802  20.348   2.735  0.00  0.00     0.401 P 
HETATM   27  O   UNK N   1      21.376  20.069   1.268  0.00  0.00    -0.631 OA
BRANCH  26  28
HETATM   28  O   UNK N   1      22.154  22.050   2.832  0.00  0.00    -0.307 OA
HETATM   29  H   UNK N   1      22.334  22.644   2.086  0.00  0.00     0.222 HD
ENDBRANCH  26  28
BRANCH  26  30
HETATM   30  O   UNK N   1      20.508  19.905   3.813  0.00  0.00    -0.195 OA
BRANCH  30  31
HETATM   31  P   UNK N   1      20.288  18.175   3.631  0.00  0.00     0.410 P 
HETATM   32  O   UNK N   1      18.873  17.991   3.012  0.00  0.00    -0.631 OA
BRANCH  31  33
HETATM   33  O   UNK N   1      21.330  17.487   2.429  0.00  0.00    -0.307 OA
HETATM   34  H   UNK N   1      20.961  16.929   1.726  0.00  0.00     0.222 HD
ENDBRANCH  31  33
BRANCH  31  35
HETATM   35  O   UNK N   1      20.203  17.252   5.115  0.00  0.00    -0.195 OA
BRANCH  35  36
HETATM   36  P   UNK N   1      21.316  17.844   6.334  0.00  0.00     0.399 P 
HETATM   37  O   UNK N   1      21.514  16.538   7.139  0.00  0.00    -0.631 OA
BRANCH  36  38
HETATM   38  O   UNK N   1      20.697  18.885   7.583  0.00  0.00    -0.307 OA
HETATM   39  H   UNK N   1      20.574  19.036   8.533  0.00  0.00     0.222 HD
ENDBRANCH  36  38
BRANCH  36  40
HETATM   40  O   UNK N   1      22.951  18.168   5.848  0.00  0.00    -0.307 OA
HETATM   41  H   UNK N   1      23.175  19.018   5.436  0.00  0.00     0.222 HD
ENDBRANCH  36  40
ENDBRANCH  35  36
ENDBRANCH  31  35
ENDBRANCH  30  31
ENDBRANCH  26  30
ENDBRANCH  25  26
ENDBRANCH  24  25
ENDBRANCH  18  24
ENDBRANCH  13  15
BRANCH  12  42
HETATM   42  C   UNK N   1      21.629  13.298   4.944  0.00  0.00     0.262 C 
HETATM   43  C   UNK N   1      20.334  13.885   5.498  0.00  0.00     0.198 C 
HETATM   44  C   UNK N   1      19.336  12.890   4.928  0.00  0.00     0.182 C 
HETATM   45  C   UNK N   1      20.109  12.329   3.712  0.00  0.00     0.180 C 
HETATM   46  O   UNK N   1      21.310  13.030   3.612  0.00  0.00    -0.353 OA
BRANCH  43  47
HETATM   47  O   UNK N   1      20.293  13.957   6.893  0.00  0.00    -0.388 OA
HETATM   48  H   UNK N   1      20.811  13.490   7.568  0.00  0.00     0.210 HD
ENDBRANCH  43  47
BRANCH  44  49
HETATM   49  O   UNK N   1      18.132  13.517   4.595  0.00  0.00    -0.390 OA
HETATM   50  H   UNK N   1      17.252  13.705   4.958  0.00  0.00     0.210 HD
ENDBRANCH  44  49
BRANCH  45  51
HETATM   51  C   UNK N   1      19.423  12.358   2.349  0.00  0.00     0.215 C 
BRANCH  51  52
HETATM   52  O   UNK N   1      18.602  13.483   2.188  0.00  0.00    -0.294 OA
BRANCH  52  53
HETATM   53  P   UNK N   1      19.149  14.330   0.752  0.00  0.00     0.390 P 
HETATM   54  O   UNK N   1      20.079  13.093   0.635  0.00  0.00    -0.632 OA
BRANCH  53  55
HETATM   55  O   UNK N   1      20.686  15.124   0.663  0.00  0.00    -0.307 OA
HETATM   56  H   UNK N   1      20.761  16.075   0.483  0.00  0.00     0.222 HD
ENDBRANCH  53  55
BRANCH  53  57
HETATM   57  O   UNK N   1      19.553  15.148   2.227  0.00  0.00    -0.307 OA
HETATM   58  H   UNK N   1      19.358  14.732   3.081  0.00  0.00     0.222 HD
ENDBRANCH  53  57
ENDBRANCH  52  53
ENDBRANCH  51  52
ENDBRANCH  45  51
ENDBRANCH  12  42
TORSDOF 22
ENDMDL
MODEL 2
REMARK VINA RESULT:      -6.4      9.995     13.479
REMARK  22 active torsions:
REMARK  status: ('A' for Active; 'I' for Inactive)
REMARK    1  A    between atoms: C_5  and  C_1 
REMARK    2  A    between atoms: O_38  and  C_1 
REMARK    3  A    between atoms: C_6  and  C_2 
REMARK    4  A    between atoms: O_39  and  C_2 
REMARK    5  A    between atoms: C_8  and  O_24 
REMARK    6  A    between atoms: C_9  and  O_25 
REMARK    7  A    between atoms: C_10  and  O_26 
REMARK    8  A    between atoms: C_11  and  O_27 
REMARK    9  A    between atoms: N_22  and  C_14 
REMARK   10  A    between atoms: C_15  and  N_23 
REMARK   11  A    between atoms: P_44  and  O_28 
REMARK   12  A    between atoms: P_44  and  O_29 
REMARK   13  A    between atoms: P_45  and  O_31 
REMARK   14  A    between atoms: P_45  and  O_32 
REMARK   15  A    between atoms: P_46  and  O_34 
REMARK   16  A    between atoms: P_47  and  O_36 
REMARK   17  A    between atoms: P_44  and  O_38 
REMARK   18  A    between atoms: P_46  and  O_39 
REMARK   19  A    between atoms: P_45  and  O_42 
REMARK   20  A    between atoms: P_47  and  O_42 
REMARK   21  A    between atoms: P_46  and  O_43 
REMARK   22  A    between atoms: P_47  and  O_43 
ROOT
HETATM    1  C   UNK N   1      33.051  14.035   7.511  0.00  0.00     0.188 A 
HETATM    2  C   UNK N   1      30.552  17.591   8.371  0.00  0.00     0.189 A 
HETATM    3  C   UNK N   1      31.423  15.357   7.043  0.00  0.00     0.122 A 
HETATM    4  C   UNK N   1      30.264  15.994   6.615  0.00  0.00     0.135 A 
HETATM    5  C   UNK N   1      32.075  15.849   8.091  0.00  0.00     0.142 A 
HETATM    6  N   UNK N   1      29.604  15.525   5.620  0.00  0.00    -0.383 N 
ATOM      7  HN  UNK N   1      28.824  16.080   5.268  1.00  0.00     0.157 HD
HETATM    8  N   UNK N   1      32.024  14.225   6.623  0.00  0.00    -0.346 N 
ATOM      9  HN  UNK N   1      31.773  13.641   5.824  1.00  0.00     0.167 HD
HETATM   10  N   UNK N   1      31.682  16.956   8.763  0.00  0.00    -0.336 N 
ATOM     11  HN  UNK N   1      32.227  17.305   9.551  1.00  0.00     0.168 HD
HETATM   12  N   UNK N   1      29.829  17.111   7.311  0.00  0.00    -0.297 N 
HETATM   13  N   UNK N   1      33.087  15.041   8.417  0.00  0.00    -0.297 N 
HETATM   14  H   UNK N   1      29.793  14.669   5.172  0.00  0.00     0.157 HD
ENDROOT
BRANCH  13  15
HETATM   15  C   UNK N   1      33.832  15.302   9.638  0.00  0.00     0.262 C 
HETATM   16  C   UNK N   1      35.001  16.275   9.677  0.00  0.00     0.198 C 
HETATM   17  C   UNK N   1      35.826  15.690  10.869  0.00  0.00     0.182 C 
HETATM   18  C   UNK N   1      35.093  14.362  11.125  0.00  0.00     0.180 C 
HETATM   19  O   UNK N   1      34.456  14.097   9.942  0.00  0.00    -0.353 OA
BRANCH  16  20
HETATM   20  O   UNK N   1      34.589  17.593   9.886  0.00  0.00    -0.388 OA
HETATM   21  H   UNK N   1      33.931  18.168   9.466  0.00  0.00     0.210 HD
ENDBRANCH  16  20
BRANCH  17  22
HETATM   22  O   UNK N   1      37.150  15.480  10.475  0.00  0.00    -0.390 OA
HETATM   23  H   UNK N   1      37.892  14.940  10.162  0.00  0.00     0.210 HD
ENDBRANCH  17  22
BRANCH  18  24
HETATM   24  C   UNK N   1      35.715  13.047  11.533  0.00  0.00     0.215 C 
BRANCH  24  25
HETATM   25  O   UNK N   1      36.840  13.419  12.303  0.00  0.00    -0.294 OA
BRANCH  25  26
HETATM   26  P   UNK N   1      36.402  13.518  13.978  0.00  0.00     0.401 P 
HETATM   27  O   UNK N   1      36.642  14.970  14.474  0.00  0.00    -0.631 OA
BRANCH  26  28
HETATM   28  O   UNK N   1      37.450  12.495  14.919  0.00  0.00    -0.307 OA
HETATM   29  H   UNK N   1      37.243  11.605  15.246  0.00  0.00     0.222 HD
ENDBRANCH  26  28
BRANCH  26  30
HETATM   30  O   UNK N   1      34.729  13.093  14.205  0.00  0.00    -0.195 OA
BRANCH  30  31
HETATM   31  P   UNK N   1      34.720  11.452  14.824  0.00  0.00     0.410 P 
HETATM   32  O   UNK N   1      33.256  10.950  14.669  0.00  0.00    -0.631 OA
BRANCH  31  33
HETATM   33  O   UNK N   1      35.614  10.352  13.827  0.00  0.00    -0.307 OA
HETATM   34  H   UNK N   1      36.583  10.396  13.801  0.00  0.00     0.222 HD
ENDBRANCH  31  33
BRANCH  31  35
HETATM   35  O   UNK N   1      35.028  11.276  16.537  0.00  0.00    -0.195 OA
BRANCH  35  36
HETATM   36  P   UNK N   1      35.888   9.795  16.912  0.00  0.00     0.399 P 
HETATM   37  O   UNK N   1      37.221  10.095  16.187  0.00  0.00    -0.631 OA
BRANCH  36  38
HETATM   38  O   UNK N   1      35.414   8.334  16.094  0.00  0.00    -0.307 OA
HETATM   39  H   UNK N   1      35.674   7.604  15.513  0.00  0.00     0.222 HD
ENDBRANCH  36  38
BRANCH  36  40
HETATM   40  O   UNK N   1      36.454   9.577  18.539  0.00  0.00    -0.307 OA
HETATM   41  H   UNK N   1      37.002  10.260  18.957  0.00  0.00     0.222 HD
ENDBRANCH  36  40
ENDBRANCH  35  36
ENDBRANCH  31  35
ENDBRANCH  30  31
ENDBRANCH  26  30
ENDBRANCH  25  26
ENDBRANCH  24  25
ENDBRANCH  18  24
ENDBRANCH  13  15
BRANCH  12  42
HETATM   42  C   UNK N   1      28.582  17.771   6.925  0.00  0.00     0.262 C 
HETATM   43  C   UNK N   1      28.159  19.012   7.706  0.00  0.00     0.198 C 
HETATM   44  C   UNK N   1      27.098  19.558   6.763  0.00  0.00     0.182 C 
HETATM   45  C   UNK N   1      27.528  18.940   5.413  0.00  0.00     0.180 C 
HETATM   46  O   UNK N   1      28.722  18.250   5.622  0.00  0.00    -0.353 OA
BRANCH  43  47
HETATM   47  O   UNK N   1      27.660  18.737   8.983  0.00  0.00    -0.388 OA
HETATM   48  H   UNK N   1      26.808  18.956   9.392  0.00  0.00     0.210 HD
ENDBRANCH  43  47
BRANCH  44  49
HETATM   49  O   UNK N   1      27.091  20.957   6.770  0.00  0.00    -0.390 OA
HETATM   50  H   UNK N   1      27.532  21.716   6.359  0.00  0.00     0.210 HD
ENDBRANCH  44  49
BRANCH  45  51
HETATM   51  C   UNK N   1      27.719  19.875   4.222  0.00  0.00     0.215 C 
BRANCH  51  52
HETATM   52  O   UNK N   1      26.668  20.794   4.091  0.00  0.00    -0.294 OA
BRANCH  52  53
HETATM   53  P   UNK N   1      25.444  20.050   3.078  0.00  0.00     0.390 P 
HETATM   54  O   UNK N   1      25.889  21.160   2.088  0.00  0.00    -0.632 OA
BRANCH  53  55
HETATM   55  O   UNK N   1      23.912  20.793   2.761  0.00  0.00    -0.307 OA
HETATM   56  H   UNK N   1      23.285  20.419   2.122  0.00  0.00     0.222 HD
ENDBRANCH  53  55
BRANCH  53  57
HETATM   57  O   UNK N   1      24.791  20.832   4.480  0.00  0.00    -0.307 OA
HETATM   58  H   UNK N   1      25.214  20.712   5.344  0.00  0.00     0.222 HD
ENDBRANCH  53  57
ENDBRANCH  52  53
ENDBRANCH  51  52
ENDBRANCH  45  51
ENDBRANCH  12  42
TORSDOF 22
ENDMDL
MODEL 3
REMARK VINA RESULT:      -6.4      9.486     13.119
REMARK  22 active torsions:
REMARK  status: ('A' for Active; 'I' for Inactive)
REMARK    1  A    between atoms: C_5  and  C_1 
REMARK    2  A    between atoms: O_38  and  C_1 
REMARK    3  A    between atoms: C_6  and  C_2 
REMARK    4  A    between atoms: O_39  and  C_2 
REMARK    5  A    between atoms: C_8  and  O_24 
REMARK    6  A    between atoms: C_9  and  O_25 
REMARK    7  A    between atoms: C_10  and  O_26 
REMARK    8  A    between atoms: C_11  and  O_27 
REMARK    9  A    between atoms: N_22  and  C_14 
REMARK   10  A    between atoms: C_15  and  N_23 
REMARK   11  A    between atoms: P_44  and  O_28 
REMARK   12  A    between atoms: P_44  and  O_29 
REMARK   13  A    between atoms: P_45  and  O_31 
REMARK   14  A    between atoms: P_45  and  O_32 
REMARK   15  A    between atoms: P_46  and  O_34 
REMARK   16  A    between atoms: P_47  and  O_36 
REMARK   17  A    between atoms: P_44  and  O_38 
REMARK   18  A    between atoms: P_46  and  O_39 
REMARK   19  A    between atoms: P_45  and  O_42 
REMARK   20  A    between atoms: P_47  and  O_42 
REMARK   21  A    between atoms: P_46  and  O_43 
REMARK   22  A    between atoms: P_47  and  O_43 
ROOT
HETATM    1  C   UNK N   1      33.152  14.072   7.709  0.00  0.00     0.188 A 
HETATM    2  C   UNK N   1      30.632  17.647   8.414  0.00  0.00     0.189 A 
HETATM    3  C   UNK N   1      31.511  15.358   7.188  0.00  0.00     0.122 A 
HETATM    4  C   UNK N   1      30.345  15.965   6.738  0.00  0.00     0.135 A 
HETATM    5  C   UNK N   1      32.166  15.905   8.208  0.00  0.00     0.142 A 
HETATM    6  N   UNK N   1      29.683  15.444   5.771  0.00  0.00    -0.383 N 
ATOM      7  HN  UNK N   1      28.897  15.976   5.398  1.00  0.00     0.157 HD
HETATM    8  N   UNK N   1      32.118  14.211   6.819  0.00  0.00    -0.346 N 
ATOM      9  HN  UNK N   1      31.866  13.588   6.051  1.00  0.00     0.167 HD
HETATM   10  N   UNK N   1      31.769  17.040   8.829  0.00  0.00    -0.336 N 
ATOM     11  HN  UNK N   1      32.316  17.430   9.595  1.00  0.00     0.168 HD
HETATM   12  N   UNK N   1      29.906  17.112   7.383  0.00  0.00    -0.297 N 
HETATM   13  N   UNK N   1      33.186  15.120   8.565  0.00  0.00    -0.297 N 
HETATM   14  H   UNK N   1      29.875  14.570   5.364  0.00  0.00     0.157 HD
ENDROOT
BRANCH  13  15
HETATM   15  C   UNK N   1      33.937  15.445   9.768  0.00  0.00     0.262 C 
HETATM   16  C   UNK N   1      35.182  16.319   9.730  0.00  0.00     0.198 C 
HETATM   17  C   UNK N   1      35.942  15.795  10.991  0.00  0.00     0.182 C 
HETATM   18  C   UNK N   1      35.099  14.564  11.368  0.00  0.00     0.180 C 
HETATM   19  O   UNK N   1      34.455  14.232  10.206  0.00  0.00    -0.353 OA
BRANCH  16  20
HETATM   20  O   UNK N   1      34.877  17.680   9.795  0.00  0.00    -0.388 OA
HETATM   21  H   UNK N   1      34.601  18.276  10.509  0.00  0.00     0.210 HD
ENDBRANCH  16  20
BRANCH  17  22
HETATM   22  O   UNK N   1      37.248  15.440  10.646  0.00  0.00    -0.390 OA
HETATM   23  H   UNK N   1      38.002  15.368  10.040  0.00  0.00     0.210 HD
ENDBRANCH  17  22
BRANCH  18  24
HETATM   24  C   UNK N   1      35.606  13.253  11.920  0.00  0.00     0.215 C 
BRANCH  24  25
HETATM   25  O   UNK N   1      34.717  12.954  12.976  0.00  0.00    -0.294 OA
BRANCH  25  26
HETATM   26  P   UNK N   1      35.575  12.936  14.483  0.00  0.00     0.401 P 
HETATM   27  O   UNK N   1      34.580  13.259  15.631  0.00  0.00    -0.631 OA
BRANCH  26  28
HETATM   28  O   UNK N   1      36.770  14.202  14.492  0.00  0.00    -0.307 OA
HETATM   29  H   UNK N   1      37.152  14.626  15.276  0.00  0.00     0.222 HD
ENDBRANCH  26  28
BRANCH  26  30
HETATM   30  O   UNK N   1      36.300  11.377  14.761  0.00  0.00    -0.195 OA
BRANCH  30  31
HETATM   31  P   UNK N   1      34.997  10.207  14.678  0.00  0.00     0.410 P 
HETATM   32  O   UNK N   1      35.005   9.466  16.046  0.00  0.00    -0.631 OA
BRANCH  31  33
HETATM   33  O   UNK N   1      33.430  10.947  14.648  0.00  0.00    -0.307 OA
HETATM   34  H   UNK N   1      33.078  11.377  15.443  0.00  0.00     0.222 HD
ENDBRANCH  31  33
BRANCH  31  35
HETATM   35  O   UNK N   1      35.199   8.915  13.516  0.00  0.00    -0.195 OA
BRANCH  35  36
HETATM   36  P   UNK N   1      34.761   9.404  11.890  0.00  0.00     0.399 P 
HETATM   37  O   UNK N   1      34.148   8.075  11.391  0.00  0.00    -0.631 OA
BRANCH  36  38
HETATM   38  O   UNK N   1      36.032   9.615  10.721  0.00  0.00    -0.307 OA
HETATM   39  H   UNK N   1      36.326  10.047   9.904  0.00  0.00     0.222 HD
ENDBRANCH  36  38
BRANCH  36  40
HETATM   40  O   UNK N   1      33.404  10.471  11.703  0.00  0.00    -0.307 OA
HETATM   41  H   UNK N   1      32.514  10.105  11.580  0.00  0.00     0.222 HD
ENDBRANCH  36  40
ENDBRANCH  35  36
ENDBRANCH  31  35
ENDBRANCH  30  31
ENDBRANCH  26  30
ENDBRANCH  25  26
ENDBRANCH  24  25
ENDBRANCH  18  24
ENDBRANCH  13  15
BRANCH  12  42
HETATM   42  C   UNK N   1      28.652  17.743   6.973  0.00  0.00     0.262 C 
HETATM   43  C   UNK N   1      28.188  18.976   7.744  0.00  0.00     0.198 C 
HETATM   44  C   UNK N   1      27.133  19.498   6.782  0.00  0.00     0.182 C 
HETATM   45  C   UNK N   1      27.599  18.886   5.440  0.00  0.00     0.180 C 
HETATM   46  O   UNK N   1      28.804  18.222   5.672  0.00  0.00    -0.353 OA
BRANCH  43  47
HETATM   47  O   UNK N   1      27.673  18.693   9.013  0.00  0.00    -0.388 OA
HETATM   48  H   UNK N   1      27.005  19.155   9.544  0.00  0.00     0.210 HD
ENDBRANCH  43  47
BRANCH  44  49
HETATM   49  O   UNK N   1      27.094  20.895   6.784  0.00  0.00    -0.390 OA
HETATM   50  H   UNK N   1      27.363  21.657   7.321  0.00  0.00     0.210 HD
ENDBRANCH  44  49
BRANCH  45  51
HETATM   51  C   UNK N   1      27.790  19.822   4.251  0.00  0.00     0.215 C 
BRANCH  51  52
HETATM   52  O   UNK N   1      26.748  20.753   4.130  0.00  0.00    -0.294 OA
BRANCH  52  53
HETATM   53  P   UNK N   1      25.554  20.066   3.044  0.00  0.00     0.390 P 
HETATM   54  O   UNK N   1      26.017  21.236   2.135  0.00  0.00    -0.632 OA
BRANCH  53  55
HETATM   55  O   UNK N   1      24.026  20.820   2.734  0.00  0.00    -0.307 OA
HETATM   56  H   UNK N   1      23.954  21.770   2.547  0.00  0.00     0.222 HD
ENDBRANCH  53  55
BRANCH  53  57
HETATM   57  O   UNK N   1      24.861  20.760   4.474  0.00  0.00    -0.307 OA
HETATM   58  H   UNK N   1      25.058  20.376   5.343  0.00  0.00     0.222 HD
ENDBRANCH  53  57
ENDBRANCH  52  53
ENDBRANCH  51  52
ENDBRANCH  45  51
ENDBRANCH  12  42
TORSDOF 22
ENDMDL
MODEL 4
REMARK VINA RESULT:      -6.4      5.698     10.049
REMARK  22 active torsions:
REMARK  status: ('A' for Active; 'I' for Inactive)
REMARK    1  A    between atoms: C_5  and  C_1 
REMARK    2  A    between atoms: O_38  and  C_1 
REMARK    3  A    between atoms: C_6  and  C_2 
REMARK    4  A    between atoms: O_39  and  C_2 
REMARK    5  A    between atoms: C_8  and  O_24 
REMARK    6  A    between atoms: C_9  and  O_25 
REMARK    7  A    between atoms: C_10  and  O_26 
REMARK    8  A    between atoms: C_11  and  O_27 
REMARK    9  A    between atoms: N_22  and  C_14 
REMARK   10  A    between atoms: C_15  and  N_23 
REMARK   11  A    between atoms: P_44  and  O_28 
REMARK   12  A    between atoms: P_44  and  O_29 
REMARK   13  A    between atoms: P_45  and  O_31 
REMARK   14  A    between atoms: P_45  and  O_32 
REMARK   15  A    between atoms: P_46  and  O_34 
REMARK   16  A    between atoms: P_47  and  O_36 
REMARK   17  A    between atoms: P_44  and  O_38 
REMARK   18  A    between atoms: P_46  and  O_39 
REMARK   19  A    between atoms: P_45  and  O_42 
REMARK   20  A    between atoms: P_47  and  O_42 
REMARK   21  A    between atoms: P_46  and  O_43 
REMARK   22  A    between atoms: P_47  and  O_43 
ROOT
HETATM    1  C   UNK N   1      27.545  18.662   7.786  0.00  0.00     0.188 A 
HETATM    2  C   UNK N   1      31.169  17.039   5.822  0.00  0.00     0.189 A 
HETATM    3  C   UNK N   1      29.583  17.983   7.848  0.00  0.00     0.122 A 
HETATM    4  C   UNK N   1      30.845  17.485   8.148  0.00  0.00     0.135 A 
HETATM    5  C   UNK N   1      29.178  17.982   6.582  0.00  0.00     0.142 A 
HETATM    6  N   UNK N   1      31.249  17.453   9.365  0.00  0.00    -0.383 N 
ATOM      7  HN  UNK N   1      32.219  17.185   9.533  1.00  0.00     0.157 HD
HETATM    8  N   UNK N   1      28.591  18.435   8.643  0.00  0.00    -0.346 N 
ATOM      9  HN  UNK N   1      28.615  18.578   9.653  1.00  0.00     0.167 HD
HETATM   10  N   UNK N   1      29.938  17.536   5.554  0.00  0.00    -0.336 N 
ATOM     11  HN  UNK N   1      29.590  17.573   4.597  1.00  0.00     0.168 HD
HETATM   12  N   UNK N   1      31.625  16.994   7.112  0.00  0.00    -0.297 N 
HETATM   13  N   UNK N   1      27.907  18.387   6.511  0.00  0.00    -0.297 N 
HETATM   14  H   UNK N   1      30.694  17.667  10.149  0.00  0.00     0.157 HD
ENDROOT
BRANCH  13  15
HETATM   15  C   UNK N   1      27.211  18.303   5.237  0.00  0.00     0.262 C 
HETATM   16  C   UNK N   1      26.962  19.530   4.372  0.00  0.00     0.198 C 
HETATM   17  C   UNK N   1      25.680  19.082   3.597  0.00  0.00     0.182 C 
HETATM   18  C   UNK N   1      25.311  17.786   4.339  0.00  0.00     0.180 C 
HETATM   19  O   UNK N   1      25.916  17.916   5.560  0.00  0.00    -0.353 OA
BRANCH  16  20
HETATM   20  O   UNK N   1      28.040  19.819   3.534  0.00  0.00    -0.388 OA
HETATM   21  H   UNK N   1      28.126  20.247   2.668  0.00  0.00     0.210 HD
ENDBRANCH  16  20
BRANCH  17  22
HETATM   22  O   UNK N   1      24.683  20.051   3.724  0.00  0.00    -0.390 OA
HETATM   23  H   UNK N   1      23.954  20.602   3.398  0.00  0.00     0.210 HD
ENDBRANCH  17  22
BRANCH  18  24
HETATM   24  C   UNK N   1      23.921  17.282   4.646  0.00  0.00     0.215 C 
BRANCH  24  25
HETATM   25  O   UNK N   1      23.363  18.283   5.472  0.00  0.00    -0.294 OA
BRANCH  25  26
HETATM   26  P   UNK N   1      21.643  18.084   5.562  0.00  0.00     0.401 P 
HETATM   27  O   UNK N   1      21.161  18.510   6.975  0.00  0.00    -0.631 OA
BRANCH  26  28
HETATM   28  O   UNK N   1      21.239  16.399   5.389  0.00  0.00    -0.307 OA
HETATM   29  H   UNK N   1      20.468  16.037   4.924  0.00  0.00     0.222 HD
ENDBRANCH  26  28
BRANCH  26  30
HETATM   30  O   UNK N   1      20.845  19.054   4.356  0.00  0.00    -0.195 OA
BRANCH  30  31
HETATM   31  P   UNK N   1      20.248  17.937   3.144  0.00  0.00     0.410 P 
HETATM   32  O   UNK N   1      19.123  17.119   3.839  0.00  0.00    -0.631 OA
BRANCH  31  33
HETATM   33  O   UNK N   1      19.408  18.731   1.853  0.00  0.00    -0.307 OA
HETATM   34  H   UNK N   1      18.438  18.749   1.841  0.00  0.00     0.222 HD
ENDBRANCH  31  33
BRANCH  31  35
HETATM   35  O   UNK N   1      21.373  16.707   2.613  0.00  0.00    -0.195 OA
BRANCH  35  36
HETATM   36  P   UNK N   1      20.676  15.638   1.410  0.00  0.00     0.399 P 
HETATM   37  O   UNK N   1      20.420  16.669   0.285  0.00  0.00    -0.631 OA
BRANCH  36  38
HETATM   38  O   UNK N   1      19.058  15.052   1.664  0.00  0.00    -0.307 OA
HETATM   39  H   UNK N   1      18.182  14.885   1.285  0.00  0.00     0.222 HD
ENDBRANCH  36  38
BRANCH  36  40
HETATM   40  O   UNK N   1      21.740  14.535   0.593  0.00  0.00    -0.307 OA
HETATM   41  H   UNK N   1      21.547  13.584   0.596  0.00  0.00     0.222 HD
ENDBRANCH  36  40
ENDBRANCH  35  36
ENDBRANCH  31  35
ENDBRANCH  30  31
ENDBRANCH  26  30
ENDBRANCH  25  26
ENDBRANCH  24  25
ENDBRANCH  18  24
ENDBRANCH  13  15
BRANCH  12  42
HETATM   42  C   UNK N   1      32.935  16.409   7.400  0.00  0.00     0.262 C 
HETATM   43  C   UNK N   1      33.992  17.304   8.040  0.00  0.00     0.198 C 
HETATM   44  C   UNK N   1      34.981  16.245   8.499  0.00  0.00     0.182 C 
HETATM   45  C   UNK N   1      34.077  14.996   8.609  0.00  0.00     0.180 C 
HETATM   46  O   UNK N   1      32.767  15.394   8.342  0.00  0.00    -0.353 OA
BRANCH  43  47
HETATM   47  O   UNK N   1      34.559  18.233   7.162  0.00  0.00    -0.388 OA
HETATM   48  H   UNK N   1      35.475  18.534   7.062  0.00  0.00     0.210 HD
ENDBRANCH  43  47
BRANCH  44  49
HETATM   49  O   UNK N   1      35.590  16.612   9.703  0.00  0.00    -0.390 OA
HETATM   50  H   UNK N   1      36.346  16.386  10.266  0.00  0.00     0.210 HD
ENDBRANCH  44  49
BRANCH  45  51
HETATM   51  C   UNK N   1      34.082  14.218   9.921  0.00  0.00     0.215 C 
BRANCH  51  52
HETATM   52  O   UNK N   1      35.320  13.612  10.180  0.00  0.00    -0.294 OA
BRANCH  52  53
HETATM   53  P   UNK N   1      35.649  13.802  11.893  0.00  0.00     0.390 P 
HETATM   54  O   UNK N   1      34.425  14.754  11.806  0.00  0.00    -0.632 OA
BRANCH  53  55
HETATM   55  O   UNK N   1      36.347  15.241  12.558  0.00  0.00    -0.307 OA
HETATM   56  H   UNK N   1      35.798  15.978  12.870  0.00  0.00     0.222 HD
ENDBRANCH  53  55
BRANCH  53  57
HETATM   57  O   UNK N   1      36.893  14.459  10.879  0.00  0.00    -0.307 OA
HETATM   58  H   UNK N   1      37.615  14.974  11.270  0.00  0.00     0.222 HD
ENDBRANCH  53  57
ENDBRANCH  52  53
ENDBRANCH  51  52
ENDBRANCH  45  51
ENDBRANCH  12  42
TORSDOF 22
ENDMDL
MODEL 5
REMARK VINA RESULT:      -6.3      6.263      9.510
REMARK  22 active torsions:
REMARK  status: ('A' for Active; 'I' for Inactive)
REMARK    1  A    between atoms: C_5  and  C_1 
REMARK    2  A    between atoms: O_38  and  C_1 
REMARK    3  A    between atoms: C_6  and  C_2 
REMARK    4  A    between atoms: O_39  and  C_2 
REMARK    5  A    between atoms: C_8  and  O_24 
REMARK    6  A    between atoms: C_9  and  O_25 
REMARK    7  A    between atoms: C_10  and  O_26 
REMARK    8  A    between atoms: C_11  and  O_27 
REMARK    9  A    between atoms: N_22  and  C_14 
REMARK   10  A    between atoms: C_15  and  N_23 
REMARK   11  A    between atoms: P_44  and  O_28 
REMARK   12  A    between atoms: P_44  and  O_29 
REMARK   13  A    between atoms: P_45  and  O_31 
REMARK   14  A    between atoms: P_45  and  O_32 
REMARK   15  A    between atoms: P_46  and  O_34 
REMARK   16  A    between atoms: P_47  and  O_36 
REMARK   17  A    between atoms: P_44  and  O_38 
REMARK   18  A    between atoms: P_46  and  O_39 
REMARK   19  A    between atoms: P_45  and  O_42 
REMARK   20  A    between atoms: P_47  and  O_42 
REMARK   21  A    between atoms: P_46  and  O_43 
REMARK   22  A    between atoms: P_47  and  O_43 
ROOT
HETATM    1  C   UNK N   1      27.431  15.811   6.068  0.00  0.00     0.188 A 
HETATM    2  C   UNK N   1      25.676  18.977   3.514  0.00  0.00     0.189 A 
HETATM    3  C   UNK N   1      25.749  16.926   5.331  0.00  0.00     0.122 A 
HETATM    4  C   UNK N   1      24.547  17.581   5.093  0.00  0.00     0.135 A 
HETATM    5  C   UNK N   1      26.834  17.318   4.671  0.00  0.00     0.142 A 
HETATM    6  N   UNK N   1      23.490  17.237   5.734  0.00  0.00    -0.383 N 
ATOM      7  HN  UNK N   1      22.608  17.664   5.453  1.00  0.00     0.157 HD
HETATM    8  N   UNK N   1      26.074  15.951   6.205  0.00  0.00    -0.346 N 
ATOM      9  HN  UNK N   1      25.451  15.433   6.826  1.00  0.00     0.167 HD
HETATM   10  N   UNK N   1      26.834  18.317   3.759  0.00  0.00    -0.336 N 
ATOM     11  HN  UNK N   1      27.689  18.570   3.265  1.00  0.00     0.168 HD
HETATM   12  N   UNK N   1      24.534  18.629   4.185  0.00  0.00    -0.297 N 
HETATM   13  N   UNK N   1      27.902  16.652   5.118  0.00  0.00    -0.297 N 
HETATM   14  H   UNK N   1      23.468  16.592   6.477  0.00  0.00     0.157 HD
ENDROOT
BRANCH  13  15
HETATM   15  C   UNK N   1      29.222  17.043   4.650  0.00  0.00     0.262 C 
HETATM   16  C   UNK N   1      29.946  16.281   3.549  0.00  0.00     0.198 C 
HETATM   17  C   UNK N   1      31.434  16.593   3.911  0.00  0.00     0.182 C 
HETATM   18  C   UNK N   1      31.280  17.275   5.282  0.00  0.00     0.180 C 
HETATM   19  O   UNK N   1      30.064  16.839   5.737  0.00  0.00    -0.353 OA
BRANCH  16  20
HETATM   20  O   UNK N   1      29.586  16.719   2.274  0.00  0.00    -0.388 OA
HETATM   21  H   UNK N   1      29.040  17.448   1.940  0.00  0.00     0.210 HD
ENDBRANCH  16  20
BRANCH  17  22
HETATM   22  O   UNK N   1      32.161  15.405   4.006  0.00  0.00    -0.390 OA
HETATM   23  H   UNK N   1      32.921  14.829   3.824  0.00  0.00     0.210 HD
ENDBRANCH  17  22
BRANCH  18  24
HETATM   24  C   UNK N   1      32.207  17.147   6.467  0.00  0.00     0.215 C 
BRANCH  24  25
HETATM   25  O   UNK N   1      32.025  15.818   6.909  0.00  0.00    -0.294 OA
BRANCH  25  26
HETATM   26  P   UNK N   1      32.507  15.676   8.568  0.00  0.00     0.401 P 
HETATM   27  O   UNK N   1      32.779  14.180   8.886  0.00  0.00    -0.631 OA
BRANCH  26  28
HETATM   28  O   UNK N   1      31.198  16.171   9.604  0.00  0.00    -0.307 OA
HETATM   29  H   UNK N   1      31.227  16.250  10.570  0.00  0.00     0.222 HD
ENDBRANCH  26  28
BRANCH  26  30
HETATM   30  O   UNK N   1      33.946  16.608   8.875  0.00  0.00    -0.195 OA
BRANCH  30  31
HETATM   31  P   UNK N   1      34.750  15.837  10.229  0.00  0.00     0.410 P 
HETATM   32  O   UNK N   1      35.366  16.992  11.070  0.00  0.00    -0.631 OA
BRANCH  31  33
HETATM   33  O   UNK N   1      33.642  15.098  11.338  0.00  0.00    -0.307 OA
HETATM   34  H   UNK N   1      33.752  14.168  11.591  0.00  0.00     0.222 HD
ENDBRANCH  31  33
BRANCH  31  35
HETATM   35  O   UNK N   1      36.135  14.842   9.835  0.00  0.00    -0.195 OA
BRANCH  35  36
HETATM   36  P   UNK N   1      36.789  14.021  11.239  0.00  0.00     0.399 P 
HETATM   37  O   UNK N   1      35.867  12.779  11.248  0.00  0.00    -0.631 OA
BRANCH  36  38
HETATM   38  O   UNK N   1      36.443  14.674  12.814  0.00  0.00    -0.307 OA
HETATM   39  H   UNK N   1      36.788  14.950  13.677  0.00  0.00     0.222 HD
ENDBRANCH  36  38
BRANCH  36  40
HETATM   40  O   UNK N   1      38.343  13.262  11.082  0.00  0.00    -0.307 OA
HETATM   41  H   UNK N   1      39.042  13.452  11.726  0.00  0.00     0.222 HD
ENDBRANCH  36  40
ENDBRANCH  35  36
ENDBRANCH  31  35
ENDBRANCH  30  31
ENDBRANCH  26  30
ENDBRANCH  25  26
ENDBRANCH  24  25
ENDBRANCH  18  24
ENDBRANCH  13  15
BRANCH  12  42
HETATM   42  C   UNK N   1      23.299  19.378   3.954  0.00  0.00     0.262 C 
HETATM   43  C   UNK N   1      23.265  20.355   2.782  0.00  0.00     0.198 C 
HETATM   44  C   UNK N   1      21.766  20.586   2.684  0.00  0.00     0.182 C 
HETATM   45  C   UNK N   1      21.206  19.303   3.340  0.00  0.00     0.180 C 
HETATM   46  O   UNK N   1      22.286  18.472   3.639  0.00  0.00    -0.353 OA
BRANCH  43  47
HETATM   47  O   UNK N   1      23.982  21.535   3.005  0.00  0.00    -0.388 OA
HETATM   48  H   UNK N   1      24.937  21.705   3.011  0.00  0.00     0.210 HD
ENDBRANCH  43  47
BRANCH  44  49
HETATM   49  O   UNK N   1      21.369  20.763   1.355  0.00  0.00    -0.390 OA
HETATM   50  H   UNK N   1      21.596  20.481   0.455  0.00  0.00     0.210 HD
ENDBRANCH  44  49
BRANCH  45  51
HETATM   51  C   UNK N   1      20.177  18.487   2.563  0.00  0.00     0.215 C 
BRANCH  51  52
HETATM   52  O   UNK N   1      20.622  18.154   1.275  0.00  0.00    -0.294 OA
BRANCH  52  53
HETATM   53  P   UNK N   1      19.843  16.647   0.825  0.00  0.00     0.390 P 
HETATM   54  O   UNK N   1      20.245  17.110  -0.601  0.00  0.00    -0.632 OA
BRANCH  53  55
HETATM   55  O   UNK N   1      18.296  16.588   0.049  0.00  0.00    -0.307 OA
HETATM   56  H   UNK N   1      17.655  17.313   0.132  0.00  0.00     0.222 HD
ENDBRANCH  53  55
BRANCH  53  57
HETATM   57  O   UNK N   1      18.742  17.825   1.464  0.00  0.00    -0.307 OA
HETATM   58  H   UNK N   1      18.869  18.171   2.361  0.00  0.00     0.222 HD
ENDBRANCH  53  57
ENDBRANCH  52  53
ENDBRANCH  51  52
ENDBRANCH  45  51
ENDBRANCH  12  42
TORSDOF 22
ENDMDL
MODEL 6
REMARK VINA RESULT:      -6.3      4.843      9.139
REMARK  22 active torsions:
REMARK  status: ('A' for Active; 'I' for Inactive)
REMARK    1  A    between atoms: C_5  and  C_1 
REMARK    2  A    between atoms: O_38  and  C_1 
REMARK    3  A    between atoms: C_6  and  C_2 
REMARK    4  A    between atoms: O_39  and  C_2 
REMARK    5  A    between atoms: C_8  and  O_24 
REMARK    6  A    between atoms: C_9  and  O_25 
REMARK    7  A    between atoms: C_10  and  O_26 
REMARK    8  A    between atoms: C_11  and  O_27 
REMARK    9  A    between atoms: N_22  and  C_14 
REMARK   10  A    between atoms: C_15  and  N_23 
REMARK   11  A    between atoms: P_44  and  O_28 
REMARK   12  A    between atoms: P_44  and  O_29 
REMARK   13  A    between atoms: P_45  and  O_31 
REMARK   14  A    between atoms: P_45  and  O_32 
REMARK   15  A    between atoms: P_46  and  O_34 
REMARK   16  A    between atoms: P_47  and  O_36 
REMARK   17  A    between atoms: P_44  and  O_38 
REMARK   18  A    between atoms: P_46  and  O_39 
REMARK   19  A    between atoms: P_45  and  O_42 
REMARK   20  A    between atoms: P_47  and  O_42 
REMARK   21  A    between atoms: P_46  and  O_43 
REMARK   22  A    between atoms: P_47  and  O_43 
ROOT
HETATM    1  C   UNK N   1      26.301  20.534   6.950  0.00  0.00     0.188 A 
HETATM    2  C   UNK N   1      29.010  17.248   5.731  0.00  0.00     0.189 A 
HETATM    3  C   UNK N   1      27.975  19.236   7.308  0.00  0.00     0.122 A 
HETATM    4  C   UNK N   1      29.002  18.441   7.803  0.00  0.00     0.135 A 
HETATM    5  C   UNK N   1      27.520  19.006   6.081  0.00  0.00     0.142 A 
HETATM    6  N   UNK N   1      29.443  18.629   8.993  0.00  0.00    -0.383 N 
ATOM      7  HN  UNK N   1      30.267  18.101   9.279  1.00  0.00     0.157 HD
HETATM    8  N   UNK N   1      27.252  20.219   7.885  0.00  0.00    -0.346 N 
ATOM      9  HN  UNK N   1      27.384  20.634   8.808  1.00  0.00     0.167 HD
HETATM   10  N   UNK N   1      28.014  18.042   5.269  0.00  0.00    -0.336 N 
ATOM     11  HN  UNK N   1      27.643  17.915   4.329  1.00  0.00     0.168 HD
HETATM   12  N   UNK N   1      29.499  17.428   6.997  0.00  0.00    -0.297 N 
HETATM   13  N   UNK N   1      26.467  19.789   5.833  0.00  0.00    -0.297 N 
HETATM   14  H   UNK N   1      29.044  19.242   9.651  0.00  0.00     0.157 HD
ENDROOT
BRANCH  13  15
HETATM   15  C   UNK N   1      25.710  19.583   4.608  0.00  0.00     0.262 C 
HETATM   16  C   UNK N   1      25.469  20.707   3.611  0.00  0.00     0.198 C 
HETATM   17  C   UNK N   1      24.136  20.227   2.950  0.00  0.00     0.182 C 
HETATM   18  C   UNK N   1      23.750  19.047   3.860  0.00  0.00     0.180 C 
HETATM   19  O   UNK N   1      24.417  19.296   5.030  0.00  0.00    -0.353 OA
BRANCH  16  20
HETATM   20  O   UNK N   1      26.518  20.844   2.700  0.00  0.00    -0.388 OA
HETATM   21  H   UNK N   1      26.850  21.577   2.159  0.00  0.00     0.210 HD
ENDBRANCH  16  20
BRANCH  17  22
HETATM   22  O   UNK N   1      23.185  21.248   2.999  0.00  0.00    -0.390 OA
HETATM   23  H   UNK N   1      22.561  21.880   2.607  0.00  0.00     0.210 HD
ENDBRANCH  17  22
BRANCH  18  24
HETATM   24  C   UNK N   1      22.357  18.647   4.283  0.00  0.00     0.215 C 
BRANCH  24  25
HETATM   25  O   UNK N   1      21.686  18.385   3.068  0.00  0.00    -0.294 OA
BRANCH  25  26
HETATM   26  P   UNK N   1      20.601  17.048   3.270  0.00  0.00     0.401 P 
HETATM   27  O   UNK N   1      21.312  15.749   2.803  0.00  0.00    -0.631 OA
BRANCH  26  28
HETATM   28  O   UNK N   1      19.218  17.255   2.233  0.00  0.00    -0.307 OA
HETATM   29  H   UNK N   1      19.205  17.704   1.374  0.00  0.00     0.222 HD
ENDBRANCH  26  28
BRANCH  26  30
HETATM   30  O   UNK N   1      20.126  16.884   4.937  0.00  0.00    -0.195 OA
BRANCH  30  31
HETATM   31  P   UNK N   1      19.225  15.384   5.046  0.00  0.00     0.410 P 
HETATM   32  O   UNK N   1      17.837  15.764   5.634  0.00  0.00    -0.631 OA
BRANCH  31  33
HETATM   33  O   UNK N   1      18.822  14.727   3.493  0.00  0.00    -0.307 OA
HETATM   34  H   UNK N   1      19.383  14.045   3.092  0.00  0.00     0.222 HD
ENDBRANCH  31  33
BRANCH  31  35
HETATM   35  O   UNK N   1      19.836  14.203   6.183  0.00  0.00    -0.195 OA
BRANCH  35  36
HETATM   36  P   UNK N   1      20.701  14.944   7.516  0.00  0.00     0.399 P 
HETATM   37  O   UNK N   1      19.915  14.322   8.694  0.00  0.00    -0.631 OA
BRANCH  36  38
HETATM   38  O   UNK N   1      20.441  16.636   7.831  0.00  0.00    -0.307 OA
HETATM   39  H   UNK N   1      19.825  17.327   8.119  0.00  0.00     0.222 HD
ENDBRANCH  36  38
BRANCH  36  40
HETATM   40  O   UNK N   1      22.302  14.369   7.863  0.00  0.00    -0.307 OA
HETATM   41  H   UNK N   1      22.458  13.421   7.995  0.00  0.00     0.222 HD
ENDBRANCH  36  40
ENDBRANCH  35  36
ENDBRANCH  31  35
ENDBRANCH  30  31
ENDBRANCH  26  30
ENDBRANCH  25  26
ENDBRANCH  24  25
ENDBRANCH  18  24
ENDBRANCH  13  15
BRANCH  12  42
HETATM   42  C   UNK N   1      30.539  16.535   7.508  0.00  0.00     0.262 C 
HETATM   43  C   UNK N   1      31.230  15.603   6.516  0.00  0.00     0.198 C 
HETATM   44  C   UNK N   1      32.430  15.185   7.351  0.00  0.00     0.182 C 
HETATM   45  C   UNK N   1      32.546  16.362   8.347  0.00  0.00     0.180 C 
HETATM   46  O   UNK N   1      31.589  17.313   7.995  0.00  0.00    -0.353 OA
BRANCH  43  47
HETATM   47  O   UNK N   1      30.445  14.518   6.114  0.00  0.00    -0.388 OA
HETATM   48  H   UNK N   1      30.637  13.568   6.094  0.00  0.00     0.210 HD
ENDBRANCH  43  47
BRANCH  44  49
HETATM   49  O   UNK N   1      33.562  15.005   6.551  0.00  0.00    -0.390 OA
HETATM   50  H   UNK N   1      33.843  14.586   5.723  0.00  0.00     0.210 HD
ENDBRANCH  44  49
BRANCH  45  51
HETATM   51  C   UNK N   1      33.894  17.064   8.475  0.00  0.00     0.215 C 
BRANCH  51  52
HETATM   52  O   UNK N   1      34.948  16.165   8.696  0.00  0.00    -0.294 OA
BRANCH  52  53
HETATM   53  P   UNK N   1      35.252  16.128  10.424  0.00  0.00     0.390 P 
HETATM   54  O   UNK N   1      35.670  17.601  10.167  0.00  0.00    -0.632 OA
BRANCH  53  55
HETATM   55  O   UNK N   1      36.849  16.101  11.092  0.00  0.00    -0.307 OA
HETATM   56  H   UNK N   1      37.188  15.332  11.577  0.00  0.00     0.222 HD
ENDBRANCH  53  55
BRANCH  53  57
HETATM   57  O   UNK N   1      36.327  15.115   9.516  0.00  0.00    -0.307 OA
HETATM   58  H   UNK N   1      36.005  14.650   8.729  0.00  0.00     0.222 HD
ENDBRANCH  53  57
ENDBRANCH  52  53
ENDBRANCH  51  52
ENDBRANCH  45  51
ENDBRANCH  12  42
TORSDOF 22
ENDMDL
MODEL 7
REMARK VINA RESULT:      -6.2      5.744      9.988
REMARK  22 active torsions:
REMARK  status: ('A' for Active; 'I' for Inactive)
REMARK    1  A    between atoms: C_5  and  C_1 
REMARK    2  A    between atoms: O_38  and  C_1 
REMARK    3  A    between atoms: C_6  and  C_2 
REMARK    4  A    between atoms: O_39  and  C_2 
REMARK    5  A    between atoms: C_8  and  O_24 
REMARK    6  A    between atoms: C_9  and  O_25 
REMARK    7  A    between atoms: C_10  and  O_26 
REMARK    8  A    between atoms: C_11  and  O_27 
REMARK    9  A    between atoms: N_22  and  C_14 
REMARK   10  A    between atoms: C_15  and  N_23 
REMARK   11  A    between atoms: P_44  and  O_28 
REMARK   12  A    between atoms: P_44  and  O_29 
REMARK   13  A    between atoms: P_45  and  O_31 
REMARK   14  A    between atoms: P_45  and  O_32 
REMARK   15  A    between atoms: P_46  and  O_34 
REMARK   16  A    between atoms: P_47  and  O_36 
REMARK   17  A    between atoms: P_44  and  O_38 
REMARK   18  A    between atoms: P_46  and  O_39 
REMARK   19  A    between atoms: P_45  and  O_42 
REMARK   20  A    between atoms: P_47  and  O_42 
REMARK   21  A    between atoms: P_46  and  O_43 
REMARK   22  A    between atoms: P_47  and  O_43 
ROOT
HETATM    1  C   UNK N   1      27.466  18.634   7.745  0.00  0.00     0.188 A 
HETATM    2  C   UNK N   1      31.048  16.912   5.787  0.00  0.00     0.189 A 
HETATM    3  C   UNK N   1      29.507  17.964   7.795  0.00  0.00     0.122 A 
HETATM    4  C   UNK N   1      30.778  17.487   8.092  0.00  0.00     0.135 A 
HETATM    5  C   UNK N   1      29.072  17.891   6.541  0.00  0.00     0.142 A 
HETATM    6  N   UNK N   1      31.212  17.525   9.299  0.00  0.00    -0.383 N 
ATOM      7  HN  UNK N   1      32.186  17.270   9.458  1.00  0.00     0.157 HD
HETATM    8  N   UNK N   1      28.533  18.458   8.587  0.00  0.00    -0.346 N 
ATOM      9  HN  UNK N   1      28.580  18.658   9.587  1.00  0.00     0.167 HD
HETATM   10  N   UNK N   1      29.808  17.390   5.523  0.00  0.00    -0.336 N 
ATOM     11  HN  UNK N   1      29.437  17.371   4.574  1.00  0.00     0.168 HD
HETATM   12  N   UNK N   1      31.535  16.941   7.067  0.00  0.00    -0.297 N 
HETATM   13  N   UNK N   1      27.798  18.288   6.479  0.00  0.00    -0.297 N 
HETATM   14  H   UNK N   1      30.674  17.781  10.083  0.00  0.00     0.157 HD
ENDROOT
BRANCH  13  15
HETATM   15  C   UNK N   1      27.072  18.131   5.229  0.00  0.00     0.262 C 
HETATM   16  C   UNK N   1      26.789  19.308   4.307  0.00  0.00     0.198 C 
HETATM   17  C   UNK N   1      25.494  18.808   3.588  0.00  0.00     0.182 C 
HETATM   18  C   UNK N   1      25.155  17.550   4.407  0.00  0.00     0.180 C 
HETATM   19  O   UNK N   1      25.789  17.749   5.604  0.00  0.00    -0.353 OA
BRANCH  16  20
HETATM   20  O   UNK N   1      27.844  19.561   3.428  0.00  0.00    -0.388 OA
HETATM   21  H   UNK N   1      27.904  19.943   2.539  0.00  0.00     0.210 HD
ENDBRANCH  16  20
BRANCH  17  22
HETATM   22  O   UNK N   1      24.490  19.774   3.690  0.00  0.00    -0.390 OA
HETATM   23  H   UNK N   1      23.747  20.299   3.353  0.00  0.00     0.210 HD
ENDBRANCH  17  22
BRANCH  18  24
HETATM   24  C   UNK N   1      23.778  17.051   4.775  0.00  0.00     0.215 C 
BRANCH  24  25
HETATM   25  O   UNK N   1      23.253  18.062   5.609  0.00  0.00    -0.294 OA
BRANCH  25  26
HETATM   26  P   UNK N   1      21.531  17.902   5.720  0.00  0.00     0.401 P 
HETATM   27  O   UNK N   1      20.867  19.096   4.983  0.00  0.00    -0.631 OA
BRANCH  26  28
HETATM   28  O   UNK N   1      21.038  18.012   7.386  0.00  0.00    -0.307 OA
HETATM   29  H   UNK N   1      20.325  17.509   7.810  0.00  0.00     0.222 HD
ENDBRANCH  26  28
BRANCH  26  30
HETATM   30  O   UNK N   1      21.002  16.407   5.000  0.00  0.00    -0.195 OA
BRANCH  30  31
HETATM   31  P   UNK N   1      20.478  15.383   6.324  0.00  0.00     0.410 P 
HETATM   32  O   UNK N   1      19.230  16.084   6.932  0.00  0.00    -0.631 OA
BRANCH  31  33
HETATM   33  O   UNK N   1      19.845  13.861   5.788  0.00  0.00    -0.307 OA
HETATM   34  H   UNK N   1      19.823  13.649   4.842  0.00  0.00     0.222 HD
ENDBRANCH  31  33
BRANCH  31  35
HETATM   35  O   UNK N   1      21.576  15.262   7.681  0.00  0.00    -0.195 OA
BRANCH  35  36
HETATM   36  P   UNK N   1      20.948  14.236   8.958  0.00  0.00     0.399 P 
HETATM   37  O   UNK N   1      20.758  12.930   8.151  0.00  0.00    -0.631 OA
BRANCH  36  38
HETATM   38  O   UNK N   1      19.318  14.501   9.505  0.00  0.00    -0.307 OA
HETATM   39  H   UNK N   1      18.465  14.109   9.747  0.00  0.00     0.222 HD
ENDBRANCH  36  38
BRANCH  36  40
HETATM   40  O   UNK N   1      22.057  13.695  10.180  0.00  0.00    -0.307 OA
HETATM   41  H   UNK N   1      21.864  13.860  11.116  0.00  0.00     0.222 HD
ENDBRANCH  36  40
ENDBRANCH  35  36
ENDBRANCH  31  35
ENDBRANCH  30  31
ENDBRANCH  26  30
ENDBRANCH  25  26
ENDBRANCH  24  25
ENDBRANCH  18  24
ENDBRANCH  13  15
BRANCH  12  42
HETATM   42  C   UNK N   1      32.853  16.376   7.355  0.00  0.00     0.262 C 
HETATM   43  C   UNK N   1      33.904  17.295   7.973  0.00  0.00     0.198 C 
HETATM   44  C   UNK N   1      34.909  16.255   8.443  0.00  0.00     0.182 C 
HETATM   45  C   UNK N   1      34.020  14.997   8.581  0.00  0.00     0.180 C 
HETATM   46  O   UNK N   1      32.704  15.376   8.316  0.00  0.00    -0.353 OA
BRANCH  43  47
HETATM   47  O   UNK N   1      34.454  18.214   7.075  0.00  0.00    -0.388 OA
HETATM   48  H   UNK N   1      35.366  18.525   6.964  0.00  0.00     0.210 HD
ENDBRANCH  43  47
BRANCH  44  49
HETATM   49  O   UNK N   1      35.521  16.650   9.636  0.00  0.00    -0.390 OA
HETATM   50  H   UNK N   1      36.284  16.443  10.198  0.00  0.00     0.210 HD
ENDBRANCH  44  49
BRANCH  45  51
HETATM   51  C   UNK N   1      34.043  14.242   9.906  0.00  0.00     0.215 C 
BRANCH  51  52
HETATM   52  O   UNK N   1      35.293  13.661  10.169  0.00  0.00    -0.294 OA
BRANCH  52  53
HETATM   53  P   UNK N   1      35.618  13.871  11.881  0.00  0.00     0.390 P 
HETATM   54  O   UNK N   1      34.384  14.808  11.784  0.00  0.00    -0.632 OA
BRANCH  53  55
HETATM   55  O   UNK N   1      36.300  15.323  12.533  0.00  0.00    -0.307 OA
HETATM   56  H   UNK N   1      35.744  16.057  12.837  0.00  0.00     0.222 HD
ENDBRANCH  53  55
BRANCH  53  57
HETATM   57  O   UNK N   1      36.856  14.531  10.861  0.00  0.00    -0.307 OA
HETATM   58  H   UNK N   1      37.572  15.057  11.248  0.00  0.00     0.222 HD
ENDBRANCH  53  57
ENDBRANCH  52  53
ENDBRANCH  51  52
ENDBRANCH  45  51
ENDBRANCH  12  42
TORSDOF 22
ENDMDL
MODEL 8
REMARK VINA RESULT:      -6.1      8.143     11.971
REMARK  22 active torsions:
REMARK  status: ('A' for Active; 'I' for Inactive)
REMARK    1  A    between atoms: C_5  and  C_1 
REMARK    2  A    between atoms: O_38  and  C_1 
REMARK    3  A    between atoms: C_6  and  C_2 
REMARK    4  A    between atoms: O_39  and  C_2 
REMARK    5  A    between atoms: C_8  and  O_24 
REMARK    6  A    between atoms: C_9  and  O_25 
REMARK    7  A    between atoms: C_10  and  O_26 
REMARK    8  A    between atoms: C_11  and  O_27 
REMARK    9  A    between atoms: N_22  and  C_14 
REMARK   10  A    between atoms: C_15  and  N_23 
REMARK   11  A    between atoms: P_44  and  O_28 
REMARK   12  A    between atoms: P_44  and  O_29 
REMARK   13  A    between atoms: P_45  and  O_31 
REMARK   14  A    between atoms: P_45  and  O_32 
REMARK   15  A    between atoms: P_46  and  O_34 
REMARK   16  A    between atoms: P_47  and  O_36 
REMARK   17  A    between atoms: P_44  and  O_38 
REMARK   18  A    between atoms: P_46  and  O_39 
REMARK   19  A    between atoms: P_45  and  O_42 
REMARK   20  A    between atoms: P_47  and  O_42 
REMARK   21  A    between atoms: P_46  and  O_43 
REMARK   22  A    between atoms: P_47  and  O_43 
ROOT
HETATM    1  C   UNK N   1      32.473  18.273   8.302  0.00  0.00     0.188 A 
HETATM    2  C   UNK N   1      33.193  13.915   8.656  0.00  0.00     0.189 A 
HETATM    3  C   UNK N   1      33.627  16.600   9.001  0.00  0.00     0.122 A 
HETATM    4  C   UNK N   1      34.451  15.689   9.650  0.00  0.00     0.135 A 
HETATM    5  C   UNK N   1      32.645  16.140   8.232  0.00  0.00     0.142 A 
HETATM    6  N   UNK N   1      35.392  16.107  10.416  0.00  0.00    -0.383 N 
ATOM      7  HN  UNK N   1      36.042  15.413  10.786  1.00  0.00     0.157 HD
HETATM    8  N   UNK N   1      33.576  17.947   9.049  0.00  0.00    -0.346 N 
ATOM      9  HN  UNK N   1      34.214  18.581   9.532  1.00  0.00     0.167 HD
HETATM   10  N   UNK N   1      32.408  14.824   8.029  0.00  0.00    -0.336 N 
ATOM     11  HN  UNK N   1      31.653  14.521   7.415  1.00  0.00     0.168 HD
HETATM   12  N   UNK N   1      34.204  14.335   9.479  0.00  0.00    -0.297 N 
HETATM   13  N   UNK N   1      31.899  17.158   7.793  0.00  0.00    -0.297 N 
HETATM   14  H   UNK N   1      35.532  17.046  10.675  0.00  0.00     0.157 HD
ENDROOT
BRANCH  13  15
HETATM   15  C   UNK N   1      30.670  16.869   7.070  0.00  0.00     0.262 C 
HETATM   16  C   UNK N   1      30.650  16.671   5.561  0.00  0.00     0.198 C 
HETATM   17  C   UNK N   1      29.182  17.097   5.233  0.00  0.00     0.182 C 
HETATM   18  C   UNK N   1      28.724  17.681   6.581  0.00  0.00     0.180 C 
HETATM   19  O   UNK N   1      29.891  18.011   7.216  0.00  0.00    -0.353 OA
BRANCH  16  20
HETATM   20  O   UNK N   1      30.937  15.355   5.195  0.00  0.00    -0.388 OA
HETATM   21  H   UNK N   1      31.743  14.817   5.188  0.00  0.00     0.210 HD
ENDBRANCH  16  20
BRANCH  17  22
HETATM   22  O   UNK N   1      29.182  18.065   4.226  0.00  0.00    -0.390 OA
HETATM   23  H   UNK N   1      28.968  18.405   3.342  0.00  0.00     0.210 HD
ENDBRANCH  17  22
BRANCH  18  24
HETATM   24  C   UNK N   1      27.817  18.870   6.792  0.00  0.00     0.215 C 
BRANCH  24  25
HETATM   25  O   UNK N   1      26.875  18.779   5.744  0.00  0.00    -0.294 OA
BRANCH  25  26
HETATM   26  P   UNK N   1      26.625  20.342   5.038  0.00  0.00     0.401 P 
HETATM   27  O   UNK N   1      27.336  20.389   3.658  0.00  0.00    -0.631 OA
BRANCH  26  28
HETATM   28  O   UNK N   1      27.382  21.560   6.026  0.00  0.00    -0.307 OA
HETATM   29  H   UNK N   1      27.196  22.512   6.009  0.00  0.00     0.222 HD
ENDBRANCH  26  28
BRANCH  26  30
HETATM   30  O   UNK N   1      24.926  20.662   4.829  0.00  0.00    -0.195 OA
BRANCH  30  31
HETATM   31  P   UNK N   1      24.407  19.688   3.467  0.00  0.00     0.410 P 
HETATM   32  O   UNK N   1      24.457  20.629   2.229  0.00  0.00    -0.631 OA
BRANCH  31  33
HETATM   33  O   UNK N   1      25.544  18.446   3.056  0.00  0.00    -0.307 OA
HETATM   34  H   UNK N   1      25.847  18.346   2.139  0.00  0.00     0.222 HD
ENDBRANCH  31  33
BRANCH  31  35
HETATM   35  O   UNK N   1      22.742  19.150   3.498  0.00  0.00    -0.195 OA
BRANCH  35  36
HETATM   36  P   UNK N   1      21.647  20.325   2.795  0.00  0.00     0.399 P 
HETATM   37  O   UNK N   1      20.565  20.344   3.900  0.00  0.00    -0.631 OA
BRANCH  36  38
HETATM   38  O   UNK N   1      20.684  19.844   1.429  0.00  0.00    -0.307 OA
HETATM   39  H   UNK N   1      20.192  19.136   0.986  0.00  0.00     0.222 HD
ENDBRANCH  36  38
BRANCH  36  40
HETATM   40  O   UNK N   1      22.136  21.992   2.802  0.00  0.00    -0.307 OA
HETATM   41  H   UNK N   1      23.065  22.224   2.652  0.00  0.00     0.222 HD
ENDBRANCH  36  40
ENDBRANCH  35  36
ENDBRANCH  31  35
ENDBRANCH  30  31
ENDBRANCH  26  30
ENDBRANCH  25  26
ENDBRANCH  24  25
ENDBRANCH  18  24
ENDBRANCH  13  15
BRANCH  12  42
HETATM   42  C   UNK N   1      35.015  13.350  10.194  0.00  0.00     0.262 C 
HETATM   43  C   UNK N   1      36.523  13.359   9.958  0.00  0.00     0.198 C 
HETATM   44  C   UNK N   1      36.971  12.501  11.130  0.00  0.00     0.182 C 
HETATM   45  C   UNK N   1      35.796  12.679  12.119  0.00  0.00     0.180 C 
HETATM   46  O   UNK N   1      34.908  13.599  11.562  0.00  0.00    -0.353 OA
BRANCH  43  47
HETATM   47  O   UNK N   1      36.908  12.832   8.721  0.00  0.00    -0.388 OA
HETATM   48  H   UNK N   1      37.773  12.807   8.284  0.00  0.00     0.210 HD
ENDBRANCH  43  47
BRANCH  44  49
HETATM   49  O   UNK N   1      38.203  12.934  11.629  0.00  0.00    -0.390 OA
HETATM   50  H   UNK N   1      39.133  13.024  11.371  0.00  0.00     0.210 HD
ENDBRANCH  44  49
BRANCH  45  51
HETATM   51  C   UNK N   1      36.115  13.123  13.542  0.00  0.00     0.215 C 
BRANCH  51  52
HETATM   52  O   UNK N   1      34.961  13.423  14.281  0.00  0.00    -0.294 OA
BRANCH  52  53
HETATM   53  P   UNK N   1      34.937  12.353  15.672  0.00  0.00     0.390 P 
HETATM   54  O   UNK N   1      33.803  13.313  16.124  0.00  0.00    -0.632 OA
BRANCH  53  55
HETATM   55  O   UNK N   1      35.549  12.821  17.223  0.00  0.00    -0.307 OA
HETATM   56  H   UNK N   1      36.426  13.222  17.326  0.00  0.00     0.222 HD
ENDBRANCH  53  55
BRANCH  53  57
HETATM   57  O   UNK N   1      36.393  13.287  15.550  0.00  0.00    -0.307 OA
HETATM   58  H   UNK N   1      36.766  13.708  16.339  0.00  0.00     0.222 HD
ENDBRANCH  53  57
ENDBRANCH  52  53
ENDBRANCH  51  52
ENDBRANCH  45  51
ENDBRANCH  12  42
TORSDOF 22
ENDMDL
MODEL 9
REMARK VINA RESULT:      -6.1      4.006      8.378
REMARK  22 active torsions:
REMARK  status: ('A' for Active; 'I' for Inactive)
REMARK    1  A    between atoms: C_5  and  C_1 
REMARK    2  A    between atoms: O_38  and  C_1 
REMARK    3  A    between atoms: C_6  and  C_2 
REMARK    4  A    between atoms: O_39  and  C_2 
REMARK    5  A    between atoms: C_8  and  O_24 
REMARK    6  A    between atoms: C_9  and  O_25 
REMARK    7  A    between atoms: C_10  and  O_26 
REMARK    8  A    between atoms: C_11  and  O_27 
REMARK    9  A    between atoms: N_22  and  C_14 
REMARK   10  A    between atoms: C_15  and  N_23 
REMARK   11  A    between atoms: P_44  and  O_28 
REMARK   12  A    between atoms: P_44  and  O_29 
REMARK   13  A    between atoms: P_45  and  O_31 
REMARK   14  A    between atoms: P_45  and  O_32 
REMARK   15  A    between atoms: P_46  and  O_34 
REMARK   16  A    between atoms: P_47  and  O_36 
REMARK   17  A    between atoms: P_44  and  O_38 
REMARK   18  A    between atoms: P_46  and  O_39 
REMARK   19  A    between atoms: P_45  and  O_42 
REMARK   20  A    between atoms: P_47  and  O_42 
REMARK   21  A    between atoms: P_46  and  O_43 
REMARK   22  A    between atoms: P_47  and  O_43 
ROOT
HETATM    1  C   UNK N   1      23.912  18.729   3.692  0.00  0.00     0.188 A 
HETATM    2  C   UNK N   1      27.049  16.492   5.879  0.00  0.00     0.189 A 
HETATM    3  C   UNK N   1      25.715  18.659   4.860  0.00  0.00     0.122 A 
HETATM    4  C   UNK N   1      26.808  18.864   5.692  0.00  0.00     0.135 A 
HETATM    5  C   UNK N   1      25.344  17.412   4.584  0.00  0.00     0.142 A 
HETATM    6  N   UNK N   1      27.172  20.057   5.992  0.00  0.00    -0.383 N 
ATOM      7  HN  UNK N   1      28.041  20.168   6.513  1.00  0.00     0.157 HD
HETATM    8  N   UNK N   1      24.854  19.526   4.289  0.00  0.00    -0.346 N 
ATOM      9  HN  UNK N   1      24.896  20.546   4.298  1.00  0.00     0.167 HD
HETATM   10  N   UNK N   1      25.985  16.319   5.059  0.00  0.00    -0.336 N 
ATOM     11  HN  UNK N   1      25.673  15.383   4.805  1.00  0.00     0.168 HD
HETATM   12  N   UNK N   1      27.459  17.755   6.214  0.00  0.00    -0.297 N 
HETATM   13  N   UNK N   1      24.215  17.422   3.870  0.00  0.00    -0.297 N 
HETATM   14  H   UNK N   1      26.674  20.873   5.757  0.00  0.00     0.157 HD
ENDROOT
BRANCH  13  15
HETATM   15  C   UNK N   1      23.541  16.161   3.601  0.00  0.00     0.262 C 
HETATM   16  C   UNK N   1      23.907  15.290   2.408  0.00  0.00     0.198 C 
HETATM   17  C   UNK N   1      22.555  14.542   2.170  0.00  0.00     0.182 C 
HETATM   18  C   UNK N   1      21.613  15.303   3.121  0.00  0.00     0.180 C 
HETATM   19  O   UNK N   1      22.229  16.512   3.305  0.00  0.00    -0.353 OA
BRANCH  16  20
HETATM   20  O   UNK N   1      24.971  14.430   2.684  0.00  0.00    -0.388 OA
HETATM   21  H   UNK N   1      25.053  13.469   2.785  0.00  0.00     0.210 HD
ENDBRANCH  16  20
BRANCH  17  22
HETATM   22  O   UNK N   1      22.162  14.680   0.837  0.00  0.00    -0.390 OA
HETATM   23  H   UNK N   1      22.317  14.853  -0.105  0.00  0.00     0.210 HD
ENDBRANCH  17  22
BRANCH  18  24
HETATM   24  C   UNK N   1      20.161  15.640   2.879  0.00  0.00     0.215 C 
BRANCH  24  25
HETATM   25  O   UNK N   1      19.458  14.825   3.794  0.00  0.00    -0.294 OA
BRANCH  25  26
HETATM   26  P   UNK N   1      19.306  15.641   5.316  0.00  0.00     0.401 P 
HETATM   27  O   UNK N   1      17.799  15.853   5.624  0.00  0.00    -0.631 OA
BRANCH  26  28
HETATM   28  O   UNK N   1      20.016  17.227   5.204  0.00  0.00    -0.307 OA
HETATM   29  H   UNK N   1      19.540  18.072   5.212  0.00  0.00     0.222 HD
ENDBRANCH  26  28
BRANCH  26  30
HETATM   30  O   UNK N   1      20.036  14.708   6.593  0.00  0.00    -0.195 OA
BRANCH  30  31
HETATM   31  P   UNK N   1      20.307  15.821   7.920  0.00  0.00     0.410 P 
HETATM   32  O   UNK N   1      21.455  16.762   7.457  0.00  0.00    -0.631 OA
BRANCH  31  33
HETATM   33  O   UNK N   1      18.984  16.914   8.163  0.00  0.00    -0.307 OA
HETATM   34  H   UNK N   1      18.309  16.722   8.833  0.00  0.00     0.222 HD
ENDBRANCH  31  33
BRANCH  31  35
HETATM   35  O   UNK N   1      20.932  15.118   9.396  0.00  0.00    -0.195 OA
BRANCH  35  36
HETATM   36  P   UNK N   1      21.635  13.533   9.135  0.00  0.00     0.399 P 
HETATM   37  O   UNK N   1      22.896  13.952   8.343  0.00  0.00    -0.631 OA
BRANCH  36  38
HETATM   38  O   UNK N   1      20.881  12.475   7.978  0.00  0.00    -0.307 OA
HETATM   39  H   UNK N   1      20.710  12.276   7.044  0.00  0.00     0.222 HD
ENDBRANCH  36  38
BRANCH  36  40
HETATM   40  O   UNK N   1      22.364  12.737  10.495  0.00  0.00    -0.307 OA
HETATM   41  H   UNK N   1      21.832  12.152  11.057  0.00  0.00     0.222 HD
ENDBRANCH  36  40
ENDBRANCH  35  36
ENDBRANCH  31  35
ENDBRANCH  30  31
ENDBRANCH  26  30
ENDBRANCH  25  26
ENDBRANCH  24  25
ENDBRANCH  18  24
ENDBRANCH  13  15
BRANCH  12  42
HETATM   42  C   UNK N   1      28.576  17.935   7.140  0.00  0.00     0.262 C 
HETATM   43  C   UNK N   1      28.363  17.545   8.600  0.00  0.00     0.198 C 
HETATM   44  C   UNK N   1      29.808  17.519   9.072  0.00  0.00     0.182 C 
HETATM   45  C   UNK N   1      30.568  17.281   7.747  0.00  0.00     0.180 C 
HETATM   46  O   UNK N   1      29.620  17.102   6.740  0.00  0.00    -0.353 OA
BRANCH  43  47
HETATM   47  O   UNK N   1      27.573  18.447   9.320  0.00  0.00    -0.388 OA
HETATM   48  H   UNK N   1      27.798  19.290   9.744  0.00  0.00     0.210 HD
ENDBRANCH  43  47
BRANCH  44  49
HETATM   49  O   UNK N   1      30.008  16.519  10.028  0.00  0.00    -0.390 OA
HETATM   50  H   UNK N   1      30.645  15.833  10.282  0.00  0.00     0.210 HD
ENDBRANCH  44  49
BRANCH  45  51
HETATM   51  C   UNK N   1      31.558  16.122   7.684  0.00  0.00     0.215 C 
BRANCH  51  52
HETATM   52  O   UNK N   1      32.458  16.128   8.760  0.00  0.00    -0.294 OA
BRANCH  52  53
HETATM   53  P   UNK N   1      33.188  14.534   8.841  0.00  0.00     0.390 P 
HETATM   54  O   UNK N   1      32.258  14.279   7.625  0.00  0.00    -0.632 OA
BRANCH  53  55
HETATM   55  O   UNK N   1      32.333  13.141   9.412  0.00  0.00    -0.307 OA
HETATM   56  H   UNK N   1      31.783  13.171  10.211  0.00  0.00     0.222 HD
ENDBRANCH  53  55
BRANCH  53  57
HETATM   57  O   UNK N   1      32.178  14.896  10.203  0.00  0.00    -0.307 OA
HETATM   58  H   UNK N   1      31.343  14.419  10.327  0.00  0.00     0.222 HD
ENDBRANCH  53  57
ENDBRANCH  52  53
ENDBRANCH  51  52
ENDBRANCH  45  51
ENDBRANCH  12  42
TORSDOF 22
ENDMDL
