MODEL 1
REMARK VINA RESULT:      -5.5      0.000      0.000
REMARK  6 active torsions:
REMARK  status: ('A' for Active; 'I' for Inactive)
REMARK    1  A    between atoms: C_2  and  N_1 
REMARK    2  A    between atoms: C_2  and  C_3 
REMARK    3  A    between atoms: C_2  and  C_12 
REMARK    4  A    between atoms: C_3  and  C_4 
REMARK    5  A    between atoms: C_7  and  O_8 
REMARK    6  A    between atoms: C_12  and  O_13 
ROOT
HETATM    1  C   UNK N   1      31.084  17.493   7.928  0.00  0.00    -0.054 A 
HETATM    2  C   UNK N   1      30.794  18.181   9.110  0.00  0.00     0.010 A 
HETATM    3  C   UNK N   1      29.528  18.742   9.303  0.00  0.00     0.038 A 
HETATM    4  C   UNK N   1      28.547  18.612   8.316  0.00  0.00     0.082 A 
HETATM    5  C   UNK N   1      28.838  17.928   7.125  0.00  0.00     0.040 A 
HETATM    6  I   UNK N   1      27.391  17.706   5.606  0.00  0.00    -0.042 I 
HETATM    7  C   UNK N   1      30.103  17.367   6.938  0.00  0.00     0.028 A 
ENDROOT
BRANCH   1   8
HETATM    8  C   UNK N   1      32.412  16.830   7.776  0.00  0.00     0.074 C 
BRANCH   8   9
HETATM    9  C   UNK N   1      33.517  17.755   7.281  0.00  0.00     0.177 C 
BRANCH   9  10
HETATM   10  N   UNK N   1      34.294  17.095   6.241  0.00  0.00    -0.417 N 
HETATM   11  H   UNK N   1      34.555  17.605   5.397  0.00  0.00     0.150 HD
HETATM   12  H   UNK N   1      34.577  16.121   6.355  0.00  0.00     0.150 HD
ENDBRANCH   9  10
BRANCH   9  13
HETATM   13  C   UNK N   1      34.396  18.104   8.447  0.00  0.00     0.163 C 
HETATM   14  O   UNK N   1      35.176  19.039   8.357  0.00  0.00    -0.648 OA
BRANCH  13  15
HETATM   15  O   UNK N   1      34.326  17.405   9.597  0.00  0.00    -0.775 OA
HETATM   16  H   UNK N   1      34.705  17.725  10.392  0.00  0.00     0.167 HD
ENDBRANCH  13  15
ENDBRANCH   9  13
ENDBRANCH   8   9
ENDBRANCH   1   8
BRANCH   4  17
HETATM   17  O   UNK N   1      27.328  19.140   8.518  0.00  0.00    -0.359 OA
HETATM   18  H   UNK N   1      26.556  18.634   8.353  0.00  0.00     0.217 HD
ENDBRANCH   4  17
TORSDOF 6
ENDMDL
MODEL 2
REMARK VINA RESULT:      -5.4      2.943      5.487
REMARK  6 active torsions:
REMARK  status: ('A' for Active; 'I' for Inactive)
REMARK    1  A    between atoms: C_2  and  N_1 
REMARK    2  A    between atoms: C_2  and  C_3 
REMARK    3  A    between atoms: C_2  and  C_12 
REMARK    4  A    between atoms: C_3  and  C_4 
REMARK    5  A    between atoms: C_7  and  O_8 
REMARK    6  A    between atoms: C_12  and  O_13 
ROOT
HETATM    1  C   UNK N   1      30.442  17.350   7.179  0.00  0.00    -0.054 A 
HETATM    2  C   UNK N   1      31.375  17.688   8.163  0.00  0.00     0.010 A 
HETATM    3  C   UNK N   1      32.735  17.751   7.850  0.00  0.00     0.038 A 
HETATM    4  C   UNK N   1      33.167  17.482   6.547  0.00  0.00     0.082 A 
HETATM    5  C   UNK N   1      32.234  17.135   5.558  0.00  0.00     0.040 A 
HETATM    6  I   UNK N   1      32.836  16.719   3.579  0.00  0.00    -0.042 I 
HETATM    7  C   UNK N   1      30.875  17.076   5.876  0.00  0.00     0.028 A 
ENDROOT
BRANCH   1   8
HETATM    8  C   UNK N   1      28.987  17.369   7.512  0.00  0.00     0.074 C 
BRANCH   8   9
HETATM    9  C   UNK N   1      28.497  18.693   8.083  0.00  0.00     0.177 C 
BRANCH   9  10
HETATM   10  N   UNK N   1      27.626  18.454   9.225  0.00  0.00    -0.417 N 
HETATM   11  H   UNK N   1      28.022  18.162  10.118  0.00  0.00     0.150 HD
HETATM   12  H   UNK N   1      26.617  18.577   9.131  0.00  0.00     0.150 HD
ENDBRANCH   9  10
BRANCH   9  13
HETATM   13  C   UNK N   1      27.755  19.425   7.003  0.00  0.00     0.163 C 
HETATM   14  O   UNK N   1      28.034  19.220   5.832  0.00  0.00    -0.648 OA
BRANCH  13  15
HETATM   15  O   UNK N   1      26.775  20.299   7.310  0.00  0.00    -0.775 OA
HETATM   16  H   UNK N   1      26.145  20.117   7.980  0.00  0.00     0.167 HD
ENDBRANCH  13  15
ENDBRANCH   9  13
ENDBRANCH   8   9
ENDBRANCH   1   8
BRANCH   4  17
HETATM   17  O   UNK N   1      34.475  17.563   6.252  0.00  0.00    -0.359 OA
HETATM   18  H   UNK N   1      34.837  18.354   5.901  0.00  0.00     0.217 HD
ENDBRANCH   4  17
TORSDOF 6
ENDMDL
MODEL 3
REMARK VINA RESULT:      -5.4     10.876     12.099
REMARK  6 active torsions:
REMARK  status: ('A' for Active; 'I' for Inactive)
REMARK    1  A    between atoms: C_2  and  N_1 
REMARK    2  A    between atoms: C_2  and  C_3 
REMARK    3  A    between atoms: C_2  and  C_12 
REMARK    4  A    between atoms: C_3  and  C_4 
REMARK    5  A    between atoms: C_7  and  O_8 
REMARK    6  A    between atoms: C_12  and  O_13 
ROOT
HETATM    1  C   UNK N   1      35.248  12.623  16.967  0.00  0.00    -0.054 A 
HETATM    2  C   UNK N   1      35.042  13.431  18.089  0.00  0.00     0.010 A 
HETATM    3  C   UNK N   1      35.233  12.913  19.372  0.00  0.00     0.038 A 
HETATM    4  C   UNK N   1      35.635  11.584  19.538  0.00  0.00     0.082 A 
HETATM    5  C   UNK N   1      35.835  10.768  18.414  0.00  0.00     0.040 A 
HETATM    6  I   UNK N   1      36.441   8.757  18.612  0.00  0.00    -0.042 I 
HETATM    7  C   UNK N   1      35.646  11.292  17.133  0.00  0.00     0.028 A 
ENDROOT
BRANCH   1   8
HETATM    8  C   UNK N   1      35.121  13.218  15.604  0.00  0.00     0.074 C 
BRANCH   8   9
HETATM    9  C   UNK N   1      36.443  13.360  14.861  0.00  0.00     0.177 C 
BRANCH   9  10
HETATM   10  N   UNK N   1      37.225  14.446  15.434  0.00  0.00    -0.417 N 
HETATM   11  H   UNK N   1      37.711  15.104  14.824  0.00  0.00     0.150 HD
HETATM   12  H   UNK N   1      37.289  14.550  16.448  0.00  0.00     0.150 HD
ENDBRANCH   9  10
BRANCH   9  13
HETATM   13  C   UNK N   1      36.144  13.637  13.417  0.00  0.00     0.163 C 
HETATM   14  O   UNK N   1      34.989  13.810  13.061  0.00  0.00    -0.648 OA
BRANCH  13  15
HETATM   15  O   UNK N   1      37.137  13.709  12.508  0.00  0.00    -0.775 OA
HETATM   16  H   UNK N   1      37.854  13.106  12.514  0.00  0.00     0.167 HD
ENDBRANCH  13  15
ENDBRANCH   9  13
ENDBRANCH   8   9
ENDBRANCH   1   8
BRANCH   4  17
HETATM   17  O   UNK N   1      35.833  11.100  20.776  0.00  0.00    -0.359 OA
HETATM   18  H   UNK N   1      36.061  10.199  20.905  0.00  0.00     0.217 HD
ENDBRANCH   4  17
TORSDOF 6
ENDMDL
MODEL 4
REMARK VINA RESULT:      -5.4      5.059      7.011
REMARK  6 active torsions:
REMARK  status: ('A' for Active; 'I' for Inactive)
REMARK    1  A    between atoms: C_2  and  N_1 
REMARK    2  A    between atoms: C_2  and  C_3 
REMARK    3  A    between atoms: C_2  and  C_12 
REMARK    4  A    between atoms: C_3  and  C_4 
REMARK    5  A    between atoms: C_7  and  O_8 
REMARK    6  A    between atoms: C_12  and  O_13 
ROOT
HETATM    1  C   UNK N   1      34.979  15.192   9.624  0.00  0.00    -0.054 A 
HETATM    2  C   UNK N   1      34.583  15.283  10.961  0.00  0.00     0.010 A 
HETATM    3  C   UNK N   1      35.357  14.693  11.964  0.00  0.00     0.038 A 
HETATM    4  C   UNK N   1      36.533  14.014  11.633  0.00  0.00     0.082 A 
HETATM    5  C   UNK N   1      36.930  13.914  10.290  0.00  0.00     0.040 A 
HETATM    6  I   UNK N   1      38.695  12.899   9.739  0.00  0.00    -0.042 I 
HETATM    7  C   UNK N   1      36.154  14.508   9.291  0.00  0.00     0.028 A 
ENDROOT
BRANCH   1   8
HETATM    8  C   UNK N   1      34.185  15.899   8.577  0.00  0.00     0.074 C 
BRANCH   8   9
HETATM    9  C   UNK N   1      33.797  17.325   8.947  0.00  0.00     0.177 C 
BRANCH   9  10
HETATM   10  N   UNK N   1      32.360  17.508   8.796  0.00  0.00    -0.417 N 
HETATM   11  H   UNK N   1      31.716  17.069   9.455  0.00  0.00     0.150 HD
HETATM   12  H   UNK N   1      31.996  18.074   8.029  0.00  0.00     0.150 HD
ENDBRANCH   9  10
BRANCH   9  13
HETATM   13  C   UNK N   1      34.541  18.265   8.044  0.00  0.00     0.163 C 
HETATM   14  O   UNK N   1      34.450  18.138   6.832  0.00  0.00    -0.648 OA
BRANCH  13  15
HETATM   15  O   UNK N   1      35.300  19.256   8.553  0.00  0.00    -0.775 OA
HETATM   16  H   UNK N   1      35.663  19.204   9.415  0.00  0.00     0.167 HD
ENDBRANCH  13  15
ENDBRANCH   9  13
ENDBRANCH   8   9
ENDBRANCH   1   8
BRANCH   4  17
HETATM   17  O   UNK N   1      37.280  13.465  12.606  0.00  0.00    -0.359 OA
HETATM   18  H   UNK N   1      37.228  13.787  13.486  0.00  0.00     0.217 HD
ENDBRANCH   4  17
TORSDOF 6
ENDMDL
MODEL 5
REMARK VINA RESULT:      -5.2      4.283      5.455
REMARK  6 active torsions:
REMARK  status: ('A' for Active; 'I' for Inactive)
REMARK    1  A    between atoms: C_2  and  N_1 
REMARK    2  A    between atoms: C_2  and  C_3 
REMARK    3  A    between atoms: C_2  and  C_12 
REMARK    4  A    between atoms: C_3  and  C_4 
REMARK    5  A    between atoms: C_7  and  O_8 
REMARK    6  A    between atoms: C_12  and  O_13 
ROOT
HETATM    1  C   UNK N   1      33.509  17.107   5.677  0.00  0.00    -0.054 A 
HETATM    2  C   UNK N   1      32.851  17.558   4.529  0.00  0.00     0.010 A 
HETATM    3  C   UNK N   1      32.882  16.797   3.358  0.00  0.00     0.038 A 
HETATM    4  C   UNK N   1      33.568  15.579   3.331  0.00  0.00     0.082 A 
HETATM    5  C   UNK N   1      34.236  15.127   4.480  0.00  0.00     0.040 A 
HETATM    6  I   UNK N   1      35.286  13.297   4.490  0.00  0.00    -0.042 I 
HETATM    7  C   UNK N   1      34.199  15.890   5.650  0.00  0.00     0.028 A 
ENDROOT
BRANCH   1   8
HETATM    8  C   UNK N   1      33.394  17.891   6.941  0.00  0.00     0.074 C 
BRANCH   8   9
HETATM    9  C   UNK N   1      33.799  17.120   8.191  0.00  0.00     0.177 C 
BRANCH   9  10
HETATM   10  N   UNK N   1      32.640  16.908   9.046  0.00  0.00    -0.417 N 
HETATM   11  H   UNK N   1      32.170  17.704   9.479  0.00  0.00     0.150 HD
HETATM   12  H   UNK N   1      32.296  15.962   9.214  0.00  0.00     0.150 HD
ENDBRANCH   9  10
BRANCH   9  13
HETATM   13  C   UNK N   1      34.844  17.916   8.917  0.00  0.00     0.163 C 
HETATM   14  O   UNK N   1      35.350  17.465   9.934  0.00  0.00    -0.648 OA
BRANCH  13  15
HETATM   15  O   UNK N   1      35.242  19.118   8.454  0.00  0.00    -0.775 OA
HETATM   16  H   UNK N   1      36.087  19.468   8.657  0.00  0.00     0.167 HD
ENDBRANCH  13  15
ENDBRANCH   9  13
ENDBRANCH   8   9
ENDBRANCH   1   8
BRANCH   4  17
HETATM   17  O   UNK N   1      33.577  14.847   2.205  0.00  0.00    -0.359 OA
HETATM   18  H   UNK N   1      33.531  15.262   1.365  0.00  0.00     0.217 HD
ENDBRANCH   4  17
TORSDOF 6
ENDMDL
MODEL 6
REMARK VINA RESULT:      -5.2      7.925     10.804
REMARK  6 active torsions:
REMARK  status: ('A' for Active; 'I' for Inactive)
REMARK    1  A    between atoms: C_2  and  N_1 
REMARK    2  A    between atoms: C_2  and  C_3 
REMARK    3  A    between atoms: C_2  and  C_12 
REMARK    4  A    between atoms: C_3  and  C_4 
REMARK    5  A    between atoms: C_7  and  O_8 
REMARK    6  A    between atoms: C_12  and  O_13 
ROOT
HETATM    1  C   UNK N   1      23.690  19.551   3.513  0.00  0.00    -0.054 A 
HETATM    2  C   UNK N   1      24.394  20.569   2.864  0.00  0.00     0.010 A 
HETATM    3  C   UNK N   1      25.790  20.602   2.918  0.00  0.00     0.038 A 
HETATM    4  C   UNK N   1      26.488  19.612   3.617  0.00  0.00     0.082 A 
HETATM    5  C   UNK N   1      25.783  18.592   4.276  0.00  0.00     0.040 A 
HETATM    6  I   UNK N   1      26.790  17.078   5.345  0.00  0.00    -0.042 I 
HETATM    7  C   UNK N   1      24.388  18.563   4.217  0.00  0.00     0.028 A 
ENDROOT
BRANCH   1   8
HETATM    8  C   UNK N   1      22.206  19.485   3.374  0.00  0.00     0.074 C 
BRANCH   8   9
HETATM    9  C   UNK N   1      21.640  20.401   2.296  0.00  0.00     0.177 C 
BRANCH   9  10
HETATM   10  N   UNK N   1      20.791  21.419   2.900  0.00  0.00    -0.417 N 
HETATM   11  H   UNK N   1      21.209  22.236   3.345  0.00  0.00     0.150 HD
HETATM   12  H   UNK N   1      19.776  21.314   2.878  0.00  0.00     0.150 HD
ENDBRANCH   9  10
BRANCH   9  13
HETATM   13  C   UNK N   1      20.849  19.563   1.335  0.00  0.00     0.163 C 
HETATM   14  O   UNK N   1      20.372  18.503   1.707  0.00  0.00    -0.648 OA
BRANCH  13  15
HETATM   15  O   UNK N   1      20.648  19.973   0.066  0.00  0.00    -0.775 OA
HETATM   16  H   UNK N   1      20.805  19.408  -0.664  0.00  0.00     0.167 HD
ENDBRANCH  13  15
ENDBRANCH   9  13
ENDBRANCH   8   9
ENDBRANCH   1   8
BRANCH   4  17
HETATM   17  O   UNK N   1      27.831  19.643   3.648  0.00  0.00    -0.359 OA
HETATM   18  H   UNK N   1      28.328  19.552   2.859  0.00  0.00     0.217 HD
ENDBRANCH   4  17
TORSDOF 6
ENDMDL
MODEL 7
REMARK VINA RESULT:      -5.1      2.709      3.397
REMARK  6 active torsions:
REMARK  status: ('A' for Active; 'I' for Inactive)
REMARK    1  A    between atoms: C_2  and  N_1 
REMARK    2  A    between atoms: C_2  and  C_3 
REMARK    3  A    between atoms: C_2  and  C_12 
REMARK    4  A    between atoms: C_3  and  C_4 
REMARK    5  A    between atoms: C_7  and  O_8 
REMARK    6  A    between atoms: C_12  and  O_13 
ROOT
HETATM    1  C   UNK N   1      33.223  16.988   6.512  0.00  0.00    -0.054 A 
HETATM    2  C   UNK N   1      33.523  17.356   5.197  0.00  0.00     0.010 A 
HETATM    3  C   UNK N   1      32.494  17.614   4.288  0.00  0.00     0.038 A 
HETATM    4  C   UNK N   1      31.160  17.509   4.692  0.00  0.00     0.082 A 
HETATM    5  C   UNK N   1      30.855  17.133   6.009  0.00  0.00     0.040 A 
HETATM    6  I   UNK N   1      28.857  16.960   6.667  0.00  0.00    -0.042 I 
HETATM    7  C   UNK N   1      31.887  16.879   6.915  0.00  0.00     0.028 A 
ENDROOT
BRANCH   1   8
HETATM    8  C   UNK N   1      34.334  16.799   7.490  0.00  0.00     0.074 C 
BRANCH   8   9
HETATM    9  C   UNK N   1      34.225  17.675   8.731  0.00  0.00     0.177 C 
BRANCH   9  10
HETATM   10  N   UNK N   1      34.924  18.935   8.517  0.00  0.00    -0.417 N 
HETATM   11  H   UNK N   1      35.772  19.145   9.044  0.00  0.00     0.150 HD
HETATM   12  H   UNK N   1      34.565  19.609   7.840  0.00  0.00     0.150 HD
ENDBRANCH   9  10
BRANCH   9  13
HETATM   13  C   UNK N   1      34.831  16.932   9.886  0.00  0.00     0.163 C 
HETATM   14  O   UNK N   1      35.855  17.350  10.405  0.00  0.00    -0.648 OA
BRANCH  13  15
HETATM   15  O   UNK N   1      34.252  15.814  10.367  0.00  0.00    -0.775 OA
HETATM   16  H   UNK N   1      33.555  15.385   9.911  0.00  0.00     0.167 HD
ENDBRANCH  13  15
ENDBRANCH   9  13
ENDBRANCH   8   9
ENDBRANCH   1   8
BRANCH   4  17
HETATM   17  O   UNK N   1      30.178  17.776   3.815  0.00  0.00    -0.359 OA
HETATM   18  H   UNK N   1      30.184  17.391   2.959  0.00  0.00     0.217 HD
ENDBRANCH   4  17
TORSDOF 6
ENDMDL
MODEL 8
REMARK VINA RESULT:      -4.9     17.270     18.261
REMARK  6 active torsions:
REMARK  status: ('A' for Active; 'I' for Inactive)
REMARK    1  A    between atoms: C_2  and  N_1 
REMARK    2  A    between atoms: C_2  and  C_3 
REMARK    3  A    between atoms: C_2  and  C_12 
REMARK    4  A    between atoms: C_3  and  C_4 
REMARK    5  A    between atoms: C_7  and  O_8 
REMARK    6  A    between atoms: C_12  and  O_13 
ROOT
HETATM    1  C   UNK N   1      26.165  26.919  -6.780  0.00  0.00    -0.054 A 
HETATM    2  C   UNK N   1      25.154  26.719  -5.836  0.00  0.00     0.010 A 
HETATM    3  C   UNK N   1      25.093  27.520  -4.693  0.00  0.00     0.038 A 
HETATM    4  C   UNK N   1      26.041  28.528  -4.491  0.00  0.00     0.082 A 
HETATM    5  C   UNK N   1      27.062  28.726  -5.434  0.00  0.00     0.040 A 
HETATM    6  I   UNK N   1      28.517  30.232  -5.175  0.00  0.00    -0.042 I 
HETATM    7  C   UNK N   1      27.117  27.924  -6.577  0.00  0.00     0.028 A 
ENDROOT
BRANCH   1   8
HETATM    8  C   UNK N   1      26.165  26.110  -8.034  0.00  0.00     0.074 C 
BRANCH   8   9
HETATM    9  C   UNK N   1      26.165  24.605  -7.804  0.00  0.00     0.177 C 
BRANCH   9  10
HETATM   10  N   UNK N   1      27.500  24.065  -8.025  0.00  0.00    -0.417 N 
HETATM   11  H   UNK N   1      28.108  24.478  -8.732  0.00  0.00     0.150 HD
HETATM   12  H   UNK N   1      27.827  23.271  -7.473  0.00  0.00     0.150 HD
ENDBRANCH   9  10
BRANCH   9  13
HETATM   13  C   UNK N   1      25.186  23.983  -8.756  0.00  0.00     0.163 C 
HETATM   14  O   UNK N   1      24.512  23.030  -8.394  0.00  0.00    -0.648 OA
BRANCH  13  15
HETATM   15  O   UNK N   1      25.032  24.470 -10.004  0.00  0.00    -0.775 OA
HETATM   16  H   UNK N   1      25.131  25.382 -10.191  0.00  0.00     0.167 HD
ENDBRANCH  13  15
ENDBRANCH   9  13
ENDBRANCH   8   9
ENDBRANCH   1   8
BRANCH   4  17
HETATM   17  O   UNK N   1      25.963  29.304  -3.397  0.00  0.00    -0.359 OA
HETATM   18  H   UNK N   1      25.132  29.505  -3.013  0.00  0.00     0.217 HD
ENDBRANCH   4  17
TORSDOF 6
ENDMDL
MODEL 9
REMARK VINA RESULT:      -4.9      7.235      9.126
REMARK  6 active torsions:
REMARK  status: ('A' for Active; 'I' for Inactive)
REMARK    1  A    between atoms: C_2  and  N_1 
REMARK    2  A    between atoms: C_2  and  C_3 
REMARK    3  A    between atoms: C_2  and  C_12 
REMARK    4  A    between atoms: C_3  and  C_4 
REMARK    5  A    between atoms: C_7  and  O_8 
REMARK    6  A    between atoms: C_12  and  O_13 
ROOT
HETATM    1  C   UNK N   1      36.071  13.150  12.040  0.00  0.00    -0.054 A 
HETATM    2  C   UNK N   1      37.106  12.234  11.831  0.00  0.00     0.010 A 
HETATM    3  C   UNK N   1      37.598  11.475  12.897  0.00  0.00     0.038 A 
HETATM    4  C   UNK N   1      37.052  11.626  14.175  0.00  0.00     0.082 A 
HETATM    5  C   UNK N   1      36.017  12.550  14.389  0.00  0.00     0.040 A 
HETATM    6  I   UNK N   1      35.161  12.815  16.299  0.00  0.00    -0.042 I 
HETATM    7  C   UNK N   1      35.527  13.304  13.320  0.00  0.00     0.028 A 
ENDROOT
BRANCH   1   8
HETATM    8  C   UNK N   1      35.503  13.890  10.875  0.00  0.00     0.074 C 
BRANCH   8   9
HETATM    9  C   UNK N   1      34.669  15.106  11.257  0.00  0.00     0.177 C 
BRANCH   9  10
HETATM   10  N   UNK N   1      33.312  14.962  10.749  0.00  0.00    -0.417 N 
HETATM   11  H   UNK N   1      33.120  15.097   9.756  0.00  0.00     0.150 HD
HETATM   12  H   UNK N   1      32.551  14.726  11.387  0.00  0.00     0.150 HD
ENDBRANCH   9  10
BRANCH   9  13
HETATM   13  C   UNK N   1      35.319  16.325  10.670  0.00  0.00     0.163 C 
HETATM   14  O   UNK N   1      36.535  16.439  10.708  0.00  0.00    -0.648 OA
BRANCH  13  15
HETATM   15  O   UNK N   1      34.579  17.291  10.091  0.00  0.00    -0.775 OA
HETATM   16  H   UNK N   1      34.892  18.170  10.012  0.00  0.00     0.167 HD
ENDBRANCH  13  15
ENDBRANCH   9  13
ENDBRANCH   8   9
ENDBRANCH   1   8
BRANCH   4  17
HETATM   17  O   UNK N   1      37.519  10.879  15.189  0.00  0.00    -0.359 OA
HETATM   18  H   UNK N   1      37.217  10.000  15.313  0.00  0.00     0.217 HD
ENDBRANCH   4  17
TORSDOF 6
ENDMDL
