REMARK  12 active torsions:
REMARK  status: ('A' for Active; 'I' for Inactive)
REMARK    1  A    between atoms: C_40  and  C_7 
REMARK    2  A    between atoms: C_24  and  N_41 
REMARK    3  A    between atoms: O_43  and  C_26 
REMARK    4  A    between atoms: C_27  and  O_44 
REMARK    5  A    between atoms: C_28  and  O_52 
REMARK    6  A    between atoms: C_29  and  O_53 
REMARK    7  A    between atoms: C_30  and  O_52 
REMARK    8  A    between atoms: C_31  and  O_54 
REMARK    9  A    between atoms: O_46  and  C_36 
REMARK   10  A    between atoms: C_38  and  O_54 
REMARK   11  A    between atoms: C_39  and  O_53 
REMARK   12  A    between atoms: C_40  and  O_48 
ROOT
HETATM    1  C   UNK N   1       1.861   5.038   1.405  0.00  0.00     0.042 C 
HETATM    2  C   UNK N   1       2.583   6.451  -0.913  0.00  0.00     0.099 C 
HETATM    3  C   UNK N   1       0.638   5.371   0.541  0.00  0.00     0.151 C 
HETATM    4  C   UNK N   1       1.693   7.508  -0.138  0.00  0.00     0.258 C 
HETATM    5  C   UNK N   1       1.796   5.241  -1.505  0.00  0.00     0.263 C 
HETATM    6  C   UNK N   1       0.382   6.884   0.519  0.00  0.00     0.186 C 
HETATM    7  O   UNK N   1       0.596   4.982  -0.824  0.00  0.00    -0.354 OA
ENDROOT
BRANCH   5   8
HETATM    8  O   UNK N   1       2.556   4.038  -1.651  0.00  0.00    -0.351 OA
BRANCH   8   9
HETATM    9  C   UNK N   1       2.116   2.909  -0.859  0.00  0.00     0.163 C 
HETATM   10  C   UNK N   1       1.352   1.939  -1.759  0.00  0.00     0.075 C 
HETATM   11  C   UNK N   1       1.032   0.596  -1.090  0.00  0.00     0.064 C 
HETATM   12  C   UNK N   1       2.318  -0.064  -0.556  0.00  0.00     0.077 C 
HETATM   13  C   UNK N   1       3.451   0.867  -0.182  0.00  0.00    -0.043 C 
HETATM   14  C   UNK N   1       4.694   0.318   0.139  0.00  0.00     0.024 C 
HETATM   15  C   UNK N   1       3.323   2.271  -0.249  0.00  0.00     0.011 C 
HETATM   16  C   UNK N   1       5.801   1.147   0.378  0.00  0.00     0.032 C 
HETATM   17  C   UNK N   1       5.635   2.546   0.425  0.00  0.00     0.063 C 
HETATM   18  C   UNK N   1       7.160   0.580   0.449  0.00  0.00     0.194 C 
HETATM   19  C   UNK N   1       4.390   3.090   0.149  0.00  0.00     0.090 C 
HETATM   20  C   UNK N   1       6.806   3.436   0.613  0.00  0.00     0.199 C 
HETATM   21  C   UNK N   1       8.166   2.888   0.499  0.00  0.00     0.062 A 
HETATM   22  O   UNK N   1       6.649   4.647   0.751  0.00  0.00    -0.286 OA
HETATM   23  C   UNK N   1       8.338   1.484   0.421  0.00  0.00     0.032 A 
HETATM   24  C   UNK N   1       9.295   3.733   0.420  0.00  0.00     0.080 A 
HETATM   25  C   UNK N   1       9.624   0.958   0.271  0.00  0.00     0.017 A 
HETATM   26  C   UNK N   1      10.731   1.803   0.190  0.00  0.00     0.004 A 
HETATM   27  C   UNK N   1      10.565   3.186   0.262  0.00  0.00     0.037 A 
HETATM   28  O   UNK N   1       7.318  -0.636   0.400  0.00  0.00    -0.287 OA
BRANCH  11  29
HETATM   29  C   UNK N   1      -0.096   0.688  -0.041  0.00  0.00     0.034 C 
HETATM   30  C   UNK N   1       0.239   1.372   1.274  0.00  0.00     0.008 C 
ENDBRANCH  11  29
BRANCH  11  31
HETATM   31  O   UNK N   1       0.543  -0.241  -2.091  0.00  0.00    -0.389 OA
HETATM   32  H   UNK N   1      -0.132  -0.238  -2.788  0.00  0.00     0.210 HD
ENDBRANCH  11  31
BRANCH  19  33
HETATM   33  O   UNK N   1       4.247   4.429   0.161  0.00  0.00    -0.359 OA
HETATM   34  H   UNK N   1       5.004   4.981   0.169  0.00  0.00     0.217 HD
ENDBRANCH  19  33
BRANCH  24  35
HETATM   35  O   UNK N   1       9.166   5.074   0.467  0.00  0.00    -0.360 OA
HETATM   36  H   UNK N   1       9.928   5.618   0.499  0.00  0.00     0.217 HD
ENDBRANCH  24  35
ENDBRANCH   8   9
ENDBRANCH   5   8
BRANCH   4  37
HETATM   37  N   UNK N   1       1.428   8.688  -0.988  0.00  0.00     0.087 N 
HETATM   38  C   UNK N   1       0.723   9.721  -0.241  0.00  0.00     0.310 C 
HETATM   39  C   UNK N   1       2.691   9.294  -1.400  0.00  0.00     0.310 C 
ENDBRANCH   4  37
BRANCH   6  40
HETATM   40  O   UNK N   1      -0.769   7.271  -0.246  0.00  0.00    -0.351 OA
BRANCH  40  41
HETATM   41  C   UNK N   1      -2.004   6.585  -0.017  0.00  0.00     0.263 C 
HETATM   42  C   UNK N   1      -3.091   7.461   0.621  0.00  0.00     0.095 C 
HETATM   43  C   UNK N   1      -4.218   6.556   1.209  0.00  0.00     0.154 C 
HETATM   44  C   UNK N   1      -4.287   5.225   0.376  0.00  0.00     0.182 C 
HETATM   45  C   UNK N   1      -2.944   4.526   0.641  0.00  0.00     0.152 C 
HETATM   46  C   UNK N   1      -2.582   3.496  -0.419  0.00  0.00     0.042 C 
HETATM   47  O   UNK N   1      -1.900   5.459   0.812  0.00  0.00    -0.354 OA
BRANCH  43  48
HETATM   48  O   UNK N   1      -5.398   7.288   1.208  0.00  0.00    -0.393 OA
HETATM   49  H   UNK N   1      -5.367   8.257   1.206  0.00  0.00     0.210 HD
ENDBRANCH  43  48
BRANCH  44  50
HETATM   50  O   UNK N   1      -5.327   4.308   0.682  0.00  0.00    -0.351 OA
BRANCH  50  51
HETATM   51  C   UNK N   1      -6.604   4.859   0.436  0.00  0.00     0.261 C 
HETATM   52  C   UNK N   1      -7.620   3.764   0.161  0.00  0.00     0.068 C 
HETATM   53  C   UNK N   1      -9.018   4.388   0.013  0.00  0.00     0.086 C 
HETATM   54  C   UNK N   1      -9.004   5.860  -0.347  0.00  0.00     0.155 C 
HETATM   55  C   UNK N   1      -7.709   6.575  -0.673  0.00  0.00     0.190 C 
HETATM   56  O   UNK N   1     -10.044   6.495  -0.302  0.00  0.00    -0.295 OA
HETATM   57  C   UNK N   1      -7.812   7.240  -2.032  0.00  0.00     0.048 C 
HETATM   58  O   UNK N   1      -6.611   5.693  -0.711  0.00  0.00    -0.349 OA
ENDBRANCH  50  51
ENDBRANCH  44  50
ENDBRANCH  40  41
ENDBRANCH   6  40
TORSDOF 12
