MODEL 1
REMARK VINA RESULT:      -5.4      0.000      0.000
REMARK  0 active torsions:
REMARK  status: ('A' for Active; 'I' for Inactive)
REMARK       I    between atoms: N_8  and  C_6 
ROOT
HETATM    1  C   UNK N   1      22.356  16.188   4.568  0.00  0.00     0.163 C 
HETATM    2  C   UNK N   1      25.171  20.206   3.876  0.00  0.00     0.164 C 
HETATM    3  C   UNK N   1      21.631  19.467   3.020  0.00  0.00     0.162 A 
HETATM    4  C   UNK N   1      21.515  18.205   3.488  0.00  0.00     0.160 A 
HETATM    5  C   UNK N   1      22.825  20.157   3.134  0.00  0.00     0.282 A 
HETATM    6  C   UNK N   1      19.664  18.781   2.655  0.00  0.00     0.678 A 
HETATM    7  C   UNK N   1      23.752  18.211   4.213  0.00  0.00     0.332 A 
HETATM    8  N   UNK N   1      18.445  18.745   2.271  0.00  0.00    -0.234 N 
ATOM      9  HN  UNK N   1      17.886  17.906   2.426  1.00  0.00     0.174 HD
HETATM   10  N   UNK N   1      20.466  19.862   2.483  0.00  0.00    -0.183 N 
HETATM   11  N   UNK N   1      20.276  17.741   3.270  0.00  0.00    -0.174 N 
HETATM   12  N   UNK N   1      22.540  17.550   4.083  0.00  0.00    -0.287 N 
HETATM   13  N   UNK N   1      23.893  19.514   3.738  0.00  0.00    -0.269 N 
HETATM   14  O   UNK N   1      22.929  21.297   2.711  0.00  0.00    -0.265 OA
HETATM   15  O   UNK N   1      24.697  17.648   4.745  0.00  0.00    -0.246 OA
HETATM   16  H   UNK N   1      18.046  19.527   1.826  0.00  0.00     0.174 HD
HETATM   17  H   UNK N   1      20.246  20.726   2.065  0.00  0.00     0.184 HD
HETATM   18  H   UNK N   1      19.903  16.860   3.501  0.00  0.00     0.186 HD
ENDROOT
TORSDOF 0
ENDMDL
MODEL 2
REMARK VINA RESULT:      -5.4      2.583      3.408
REMARK  0 active torsions:
REMARK  status: ('A' for Active; 'I' for Inactive)
REMARK       I    between atoms: N_8  and  C_6 
ROOT
HETATM    1  C   UNK N   1      20.121  16.126   1.038  0.00  0.00     0.163 C 
HETATM    2  C   UNK N   1      21.022  16.802   5.863  0.00  0.00     0.164 C 
HETATM    3  C   UNK N   1      20.739  19.183   3.024  0.00  0.00     0.162 A 
HETATM    4  C   UNK N   1      20.486  18.334   2.005  0.00  0.00     0.160 A 
HETATM    5  C   UNK N   1      20.921  18.709   4.311  0.00  0.00     0.282 A 
HETATM    6  C   UNK N   1      20.529  20.300   1.240  0.00  0.00     0.678 A 
HETATM    7  C   UNK N   1      20.574  16.484   3.453  0.00  0.00     0.332 A 
HETATM    8  N   UNK N   1      20.476  21.284   0.426  0.00  0.00    -0.234 N 
ATOM      9  HN  UNK N   1      20.288  21.119  -0.562  1.00  0.00     0.174 HD
HETATM   10  N   UNK N   1      20.773  20.445   2.567  0.00  0.00    -0.183 N 
HETATM   11  N   UNK N   1      20.347  19.013   0.857  0.00  0.00    -0.174 N 
HETATM   12  N   UNK N   1      20.396  16.994   2.175  0.00  0.00    -0.287 N 
HETATM   13  N   UNK N   1      20.835  17.342   4.520  0.00  0.00    -0.269 N 
HETATM   14  O   UNK N   1      21.150  19.478   5.232  0.00  0.00    -0.265 OA
HETATM   15  O   UNK N   1      20.499  15.279   3.642  0.00  0.00    -0.246 OA
HETATM   16  H   UNK N   1      20.617  22.202   0.753  0.00  0.00     0.174 HD
HETATM   17  H   UNK N   1      20.935  21.275   3.072  0.00  0.00     0.184 HD
HETATM   18  H   UNK N   1      20.159  18.664  -0.043  0.00  0.00     0.186 HD
ENDROOT
TORSDOF 0
ENDMDL
MODEL 3
REMARK VINA RESULT:      -5.3      9.173     10.638
REMARK  0 active torsions:
REMARK  status: ('A' for Active; 'I' for Inactive)
REMARK       I    between atoms: N_8  and  C_6 
ROOT
HETATM    1  C   UNK N   1      34.104  17.887   8.313  0.00  0.00     0.163 C 
HETATM    2  C   UNK N   1      32.181  17.204   3.798  0.00  0.00     0.164 C 
HETATM    3  C   UNK N   1      30.643  17.240   7.181  0.00  0.00     0.162 A 
HETATM    4  C   UNK N   1      31.728  17.477   7.950  0.00  0.00     0.160 A 
HETATM    5  C   UNK N   1      30.759  17.144   5.805  0.00  0.00     0.282 A 
HETATM    6  C   UNK N   1      30.041  17.311   9.208  0.00  0.00     0.678 A 
HETATM    7  C   UNK N   1      33.122  17.543   6.059  0.00  0.00     0.332 A 
HETATM    8  N   UNK N   1      29.311  17.280  10.256  0.00  0.00    -0.234 N 
ATOM      9  HN  UNK N   1      29.731  17.424  11.174  1.00  0.00     0.174 HD
HETATM   10  N   UNK N   1      29.552  17.129   7.955  0.00  0.00    -0.183 N 
HETATM   11  N   UNK N   1      31.378  17.528   9.244  0.00  0.00    -0.174 N 
HETATM   12  N   UNK N   1      32.970  17.633   7.434  0.00  0.00    -0.287 N 
HETATM   13  N   UNK N   1      32.016  17.299   5.245  0.00  0.00    -0.269 N 
HETATM   14  O   UNK N   1      29.778  16.929   5.111  0.00  0.00    -0.265 OA
HETATM   15  O   UNK N   1      34.230  17.678   5.559  0.00  0.00    -0.246 OA
HETATM   16  H   UNK N   1      28.344  17.117  10.178  0.00  0.00     0.174 HD
HETATM   17  H   UNK N   1      28.622  16.957   7.681  0.00  0.00     0.184 HD
HETATM   18  H   UNK N   1      31.952  17.685  10.028  0.00  0.00     0.186 HD
ENDROOT
TORSDOF 0
ENDMDL
MODEL 4
REMARK VINA RESULT:      -5.3      6.689      8.869
REMARK  0 active torsions:
REMARK  status: ('A' for Active; 'I' for Inactive)
REMARK       I    between atoms: N_8  and  C_6 
ROOT
HETATM    1  C   UNK N   1      24.822  13.271   8.278  0.00  0.00     0.163 C 
HETATM    2  C   UNK N   1      20.416  15.248   7.171  0.00  0.00     0.164 C 
HETATM    3  C   UNK N   1      21.584  13.227  10.063  0.00  0.00     0.162 A 
HETATM    4  C   UNK N   1      22.877  13.028   9.728  0.00  0.00     0.160 A 
HETATM    5  C   UNK N   1      20.744  13.957   9.241  0.00  0.00     0.282 A 
HETATM    6  C   UNK N   1      22.512  12.074  11.574  0.00  0.00     0.678 A 
HETATM    7  C   UNK N   1      22.607  14.254   7.740  0.00  0.00     0.332 A 
HETATM    8  N   UNK N   1      22.692  11.401  12.645  0.00  0.00    -0.234 N 
ATOM      9  HN  UNK N   1      23.609  11.005  12.851  1.00  0.00     0.174 HD
HETATM   10  N   UNK N   1      21.322  12.630  11.237  0.00  0.00    -0.183 N 
HETATM   11  N   UNK N   1      23.494  12.298  10.668  0.00  0.00    -0.174 N 
HETATM   12  N   UNK N   1      23.420  13.519   8.589  0.00  0.00    -0.287 N 
HETATM   13  N   UNK N   1      21.269  14.473   8.067  0.00  0.00    -0.269 N 
HETATM   14  O   UNK N   1      19.576  14.137   9.545  0.00  0.00    -0.265 OA
HETATM   15  O   UNK N   1      23.065  14.712   6.703  0.00  0.00    -0.246 OA
HETATM   16  H   UNK N   1      21.945  11.264  13.272  0.00  0.00     0.174 HD
HETATM   17  H   UNK N   1      20.471  12.603  11.733  0.00  0.00     0.184 HD
HETATM   18  H   UNK N   1      24.431  11.998  10.694  0.00  0.00     0.186 HD
ENDROOT
TORSDOF 0
ENDMDL
MODEL 5
REMARK VINA RESULT:      -5.3     18.841     21.525
REMARK  0 active torsions:
REMARK  status: ('A' for Active; 'I' for Inactive)
REMARK       I    between atoms: N_8  and  C_6 
ROOT
HETATM    1  C   UNK N   1      44.729  19.565   3.261  0.00  0.00     0.163 C 
HETATM    2  C   UNK N   1      39.985  20.678   2.364  0.00  0.00     0.164 C 
HETATM    3  C   UNK N   1      43.059  22.764   2.453  0.00  0.00     0.162 A 
HETATM    4  C   UNK N   1      43.990  21.833   2.754  0.00  0.00     0.160 A 
HETATM    5  C   UNK N   1      41.727  22.416   2.317  0.00  0.00     0.282 A 
HETATM    6  C   UNK N   1      44.952  23.701   2.570  0.00  0.00     0.678 A 
HETATM    7  C   UNK N   1      42.357  20.142   2.809  0.00  0.00     0.332 A 
HETATM    8  N   UNK N   1      45.864  24.597   2.549  0.00  0.00    -0.234 N 
ATOM      9  HN  UNK N   1      46.833  24.342   2.736  1.00  0.00     0.174 HD
HETATM   10  N   UNK N   1      43.644  23.967   2.330  0.00  0.00    -0.183 N 
HETATM   11  N   UNK N   1      45.203  22.396   2.835  0.00  0.00    -0.174 N 
HETATM   12  N   UNK N   1      43.683  20.526   2.938  0.00  0.00    -0.287 N 
HETATM   13  N   UNK N   1      41.380  21.087   2.498  0.00  0.00    -0.269 N 
HETATM   14  O   UNK N   1      40.887  23.259   2.045  0.00  0.00    -0.265 OA
HETATM   15  O   UNK N   1      42.045  18.971   2.968  0.00  0.00    -0.246 OA
HETATM   16  H   UNK N   1      45.630  25.532   2.352  0.00  0.00     0.174 HD
HETATM   17  H   UNK N   1      43.224  24.832   2.116  0.00  0.00     0.184 HD
HETATM   18  H   UNK N   1      46.066  21.968   3.038  0.00  0.00     0.186 HD
ENDROOT
TORSDOF 0
ENDMDL
MODEL 6
REMARK VINA RESULT:      -5.2      2.041      3.234
REMARK  0 active torsions:
REMARK  status: ('A' for Active; 'I' for Inactive)
REMARK       I    between atoms: N_8  and  C_6 
ROOT
HETATM    1  C   UNK N   1      24.108  19.700   3.766  0.00  0.00     0.163 C 
HETATM    2  C   UNK N   1      20.987  16.302   5.572  0.00  0.00     0.164 C 
HETATM    3  C   UNK N   1      20.599  18.887   2.931  0.00  0.00     0.162 A 
HETATM    4  C   UNK N   1      21.824  19.456   2.950  0.00  0.00     0.160 A 
HETATM    5  C   UNK N   1      20.290  17.842   3.784  0.00  0.00     0.282 A 
HETATM    6  C   UNK N   1      20.658  20.432   1.487  0.00  0.00     0.678 A 
HETATM    7  C   UNK N   1      22.530  18.003   4.659  0.00  0.00     0.332 A 
HETATM    8  N   UNK N   1      20.305  21.237   0.560  0.00  0.00    -0.234 N 
ATOM      9  HN  UNK N   1      20.966  21.927   0.204  1.00  0.00     0.174 HD
HETATM   10  N   UNK N   1      19.833  19.489   2.007  0.00  0.00    -0.183 N 
HETATM   11  N   UNK N   1      21.893  20.441   2.044  0.00  0.00    -0.174 N 
HETATM   12  N   UNK N   1      22.806  19.048   3.789  0.00  0.00    -0.287 N 
HETATM   13  N   UNK N   1      21.273  17.401   4.655  0.00  0.00    -0.269 N 
HETATM   14  O   UNK N   1      19.183  17.329   3.766  0.00  0.00    -0.265 OA
HETATM   15  O   UNK N   1      23.394  17.610   5.430  0.00  0.00    -0.246 OA
HETATM   16  H   UNK N   1      19.394  21.191   0.188  0.00  0.00     0.174 HD
HETATM   17  H   UNK N   1      18.898  19.293   1.765  0.00  0.00     0.184 HD
HETATM   18  H   UNK N   1      22.655  21.028   1.834  0.00  0.00     0.186 HD
ENDROOT
TORSDOF 0
ENDMDL
MODEL 7
REMARK VINA RESULT:      -5.1     18.252     21.038
REMARK  0 active torsions:
REMARK  status: ('A' for Active; 'I' for Inactive)
REMARK       I    between atoms: N_8  and  C_6 
ROOT
HETATM    1  C   UNK N   1      42.616  24.186   0.501  0.00  0.00     0.163 C 
HETATM    2  C   UNK N   1      39.390  20.627   1.717  0.00  0.00     0.164 C 
HETATM    3  C   UNK N   1      42.736  21.522   3.064  0.00  0.00     0.162 A 
HETATM    4  C   UNK N   1      43.049  22.579   2.284  0.00  0.00     0.160 A 
HETATM    5  C   UNK N   1      41.534  20.856   2.903  0.00  0.00     0.282 A 
HETATM    6  C   UNK N   1      44.641  22.248   3.629  0.00  0.00     0.678 A 
HETATM    7  C   UNK N   1      41.012  22.396   1.124  0.00  0.00     0.332 A 
HETATM    8  N   UNK N   1      45.757  22.374   4.238  0.00  0.00    -0.234 N 
ATOM      9  HN  UNK N   1      46.404  23.116   3.970  1.00  0.00     0.174 HD
HETATM   10  N   UNK N   1      43.732  21.288   3.933  0.00  0.00    -0.183 N 
HETATM   11  N   UNK N   1      44.254  23.063   2.617  0.00  0.00    -0.174 N 
HETATM   12  N   UNK N   1      42.225  23.041   1.314  0.00  0.00    -0.287 N 
HETATM   13  N   UNK N   1      40.668  21.304   1.919  0.00  0.00    -0.269 N 
HETATM   14  O   UNK N   1      41.252  19.901   3.609  0.00  0.00    -0.265 OA
HETATM   15  O   UNK N   1      40.244  22.787   0.258  0.00  0.00    -0.246 OA
HETATM   16  H   UNK N   1      45.993  21.755   4.967  0.00  0.00     0.174 HD
HETATM   17  H   UNK N   1      43.790  20.588   4.623  0.00  0.00     0.184 HD
HETATM   18  H   UNK N   1      44.740  23.823   2.225  0.00  0.00     0.186 HD
ENDROOT
TORSDOF 0
ENDMDL
MODEL 8
REMARK VINA RESULT:      -5.1     13.842     15.860
REMARK  0 active torsions:
REMARK  status: ('A' for Active; 'I' for Inactive)
REMARK       I    between atoms: N_8  and  C_6 
ROOT
HETATM    1  C   UNK N   1      34.227  12.313   9.784  0.00  0.00     0.163 C 
HETATM    2  C   UNK N   1      34.448  16.991   8.168  0.00  0.00     0.164 C 
HETATM    3  C   UNK N   1      35.685  15.368  11.273  0.00  0.00     0.162 A 
HETATM    4  C   UNK N   1      35.291  14.093  11.067  0.00  0.00     0.160 A 
HETATM    5  C   UNK N   1      35.422  16.350  10.334  0.00  0.00     0.282 A 
HETATM    6  C   UNK N   1      36.275  14.194  12.931  0.00  0.00     0.678 A 
HETATM    7  C   UNK N   1      34.347  14.662   8.991  0.00  0.00     0.332 A 
HETATM    8  N   UNK N   1      36.777  13.852  14.055  0.00  0.00    -0.234 N 
ATOM      9  HN  UNK N   1      36.719  12.882  14.366  1.00  0.00     0.174 HD
HETATM   10  N   UNK N   1      36.316  15.464  12.455  0.00  0.00    -0.183 N 
HETATM   11  N   UNK N   1      35.651  13.321  12.103  0.00  0.00    -0.174 N 
HETATM   12  N   UNK N   1      34.628  13.704   9.952  0.00  0.00    -0.287 N 
HETATM   13  N   UNK N   1      34.745  15.985   9.182  0.00  0.00    -0.269 N 
HETATM   14  O   UNK N   1      35.779  17.502  10.522  0.00  0.00    -0.265 OA
HETATM   15  O   UNK N   1      33.750  14.346   7.972  0.00  0.00    -0.246 OA
HETATM   16  H   UNK N   1      37.219  14.524  14.622  0.00  0.00     0.174 HD
HETATM   17  H   UNK N   1      36.712  16.262  12.874  0.00  0.00     0.184 HD
HETATM   18  H   UNK N   1      35.500  12.358  12.232  0.00  0.00     0.186 HD
ENDROOT
TORSDOF 0
ENDMDL
MODEL 9
REMARK VINA RESULT:      -5.0     18.974     20.301
REMARK  0 active torsions:
REMARK  status: ('A' for Active; 'I' for Inactive)
REMARK       I    between atoms: N_8  and  C_6 
ROOT
HETATM    1  C   UNK N   1      41.686  19.255   1.496  0.00  0.00     0.163 C 
HETATM    2  C   UNK N   1      39.785  23.271  -0.697  0.00  0.00     0.164 C 
HETATM    3  C   UNK N   1      42.074  22.865   2.202  0.00  0.00     0.162 A 
HETATM    4  C   UNK N   1      42.179  21.519   2.256  0.00  0.00     0.160 A 
HETATM    5  C   UNK N   1      41.292  23.475   1.238  0.00  0.00     0.282 A 
HETATM    6  C   UNK N   1      43.352  22.342   3.804  0.00  0.00     0.678 A 
HETATM    7  C   UNK N   1      40.743  21.279   0.410  0.00  0.00     0.332 A 
HETATM    8  N   UNK N   1      44.134  22.438   4.810  0.00  0.00    -0.234 N 
ATOM      9  HN  UNK N   1      44.514  21.597   5.244  1.00  0.00     0.174 HD
HETATM   10  N   UNK N   1      42.812  23.417   3.177  0.00  0.00    -0.183 N 
HETATM   11  N   UNK N   1      42.984  21.155   3.265  0.00  0.00    -0.174 N 
HETATM   12  N   UNK N   1      41.536  20.701   1.389  0.00  0.00    -0.287 N 
HETATM   13  N   UNK N   1      40.621  22.666   0.335  0.00  0.00    -0.269 N 
HETATM   14  O   UNK N   1      41.198  24.691   1.189  0.00  0.00    -0.265 OA
HETATM   15  O   UNK N   1      40.149  20.569  -0.389  0.00  0.00    -0.246 OA
HETATM   16  H   UNK N   1      44.371  23.325   5.167  0.00  0.00     0.174 HD
HETATM   17  H   UNK N   1      42.933  24.372   3.387  0.00  0.00     0.184 HD
HETATM   18  H   UNK N   1      43.245  20.249   3.545  0.00  0.00     0.186 HD
ENDROOT
TORSDOF 0
ENDMDL
