MODEL 1
REMARK VINA RESULT:      -4.8      0.000      0.000
REMARK  9 active torsions:
REMARK  status: ('A' for Active; 'I' for Inactive)
REMARK    1  A    between atoms: C_2  and  N_5 
REMARK    2  A    between atoms: N_5  and  C_6 
REMARK    3  A    between atoms: C_6  and  C_7 
REMARK    4  A    between atoms: C_7  and  C_8 
REMARK    5  A    between atoms: C_8  and  C_10 
REMARK    6  A    between atoms: C_10  and  C_11 
REMARK    7  A    between atoms: C_11  and  N_12 
REMARK    8  A    between atoms: C_11  and  C_13 
REMARK    9  A    between atoms: C_13  and  O_14 
ROOT
HETATM    1  C   UNK N   1      35.711  15.625  10.542  0.00  0.00     0.174 C 
HETATM    2  F   UNK N   1      37.050  15.427  10.252  0.00  0.00    -0.249 F 
ENDROOT
BRANCH   1   3
HETATM    3  C   UNK N   1      35.366  15.144  11.948  0.00  0.00     0.057 C 
BRANCH   3   4
HETATM    4  C   UNK N   1      35.891  13.742  12.202  0.00  0.00     0.123 C 
BRANCH   4   5
HETATM    5  N   UNK N   1      36.907  13.791  13.225  0.00  0.00    -0.380 N 
HETATM    6  H   UNK N   1      37.854  13.727  12.963  0.00  0.00     0.160 HD
BRANCH   5   7
HETATM    7  C   UNK N   1      36.577  13.929  14.599  0.00  0.00     0.066 C 
HETATM    8  C   UNK N   1      35.448  13.142  15.170  0.00  0.00     0.088 C 
HETATM    9  N   UNK N   1      37.251  14.712  15.360  0.00  0.00    -0.389 N 
HETATM   10  H   UNK N   1      38.100  15.098  15.045  0.00  0.00     0.157 HD
ATOM     11  HN  UNK N   1      36.906  14.935  16.293  1.00  0.00     0.157 HD
ENDBRANCH   5   7
ENDBRANCH   4   5
ENDBRANCH   3   4
ENDBRANCH   1   3
BRANCH   1  12
HETATM   12  C   UNK N   1      35.317  17.071  10.306  0.00  0.00     0.072 C 
BRANCH  12  13
HETATM   13  C   UNK N   1      34.353  17.115   9.132  0.00  0.00     0.176 C 
BRANCH  13  14
HETATM   14  N   UNK N   1      34.323  15.818   8.475  0.00  0.00    -0.417 N 
HETATM   15  H   UNK N   1      35.171  15.383   8.114  0.00  0.00     0.150 HD
HETATM   16  H   UNK N   1      33.432  15.332   8.373  0.00  0.00     0.150 HD
ENDBRANCH  13  14
BRANCH  13  17
HETATM   17  C   UNK N   1      34.719  18.202   8.164  0.00  0.00     0.163 C 
HETATM   18  O   UNK N   1      34.457  18.074   6.977  0.00  0.00    -0.648 OA
BRANCH  17  19
HETATM   19  O   UNK N   1      35.361  19.310   8.586  0.00  0.00    -0.775 OA
HETATM   20  H   UNK N   1      35.632  19.446   9.472  0.00  0.00     0.167 HD
ENDBRANCH  17  19
ENDBRANCH  13  17
ENDBRANCH  12  13
ENDBRANCH   1  12
TORSDOF 9
ENDMDL
MODEL 2
REMARK VINA RESULT:      -4.8      5.264      8.637
REMARK  9 active torsions:
REMARK  status: ('A' for Active; 'I' for Inactive)
REMARK    1  A    between atoms: C_2  and  N_5 
REMARK    2  A    between atoms: N_5  and  C_6 
REMARK    3  A    between atoms: C_6  and  C_7 
REMARK    4  A    between atoms: C_7  and  C_8 
REMARK    5  A    between atoms: C_8  and  C_10 
REMARK    6  A    between atoms: C_10  and  C_11 
REMARK    7  A    between atoms: C_11  and  N_12 
REMARK    8  A    between atoms: C_11  and  C_13 
REMARK    9  A    between atoms: C_13  and  O_14 
ROOT
HETATM    1  C   UNK N   1      30.887  17.280   7.557  0.00  0.00     0.174 C 
HETATM    2  F   UNK N   1      31.070  15.908   7.557  0.00  0.00    -0.249 F 
ENDROOT
BRANCH   1   3
HETATM    3  C   UNK N   1      29.438  17.651   7.858  0.00  0.00     0.057 C 
BRANCH   3   4
HETATM    4  C   UNK N   1      28.601  17.702   6.592  0.00  0.00     0.123 C 
BRANCH   4   5
HETATM    5  N   UNK N   1      27.711  18.835   6.654  0.00  0.00    -0.380 N 
HETATM    6  H   UNK N   1      27.061  18.895   7.392  0.00  0.00     0.160 HD
BRANCH   5   7
HETATM    7  C   UNK N   1      27.747  19.867   5.680  0.00  0.00     0.066 C 
HETATM    8  C   UNK N   1      27.228  21.222   6.019  0.00  0.00     0.088 C 
HETATM    9  N   UNK N   1      28.237  19.651   4.513  0.00  0.00    -0.389 N 
HETATM   10  H   UNK N   1      28.740  18.825   4.334  0.00  0.00     0.157 HD
ATOM     11  HN  UNK N   1      28.104  20.338   3.771  1.00  0.00     0.157 HD
ENDBRANCH   5   7
ENDBRANCH   4   5
ENDBRANCH   3   4
ENDBRANCH   1   3
BRANCH   1  12
HETATM   12  C   UNK N   1      31.870  17.953   8.498  0.00  0.00     0.072 C 
BRANCH  12  13
HETATM   13  C   UNK N   1      33.213  17.256   8.358  0.00  0.00     0.176 C 
BRANCH  13  14
HETATM   14  N   UNK N   1      33.698  16.859   9.669  0.00  0.00    -0.417 N 
HETATM   15  H   UNK N   1      33.975  15.897   9.867  0.00  0.00     0.150 HD
HETATM   16  H   UNK N   1      33.763  17.558  10.409  0.00  0.00     0.150 HD
ENDBRANCH  13  14
BRANCH  13  17
HETATM   17  C   UNK N   1      34.211  18.130   7.655  0.00  0.00     0.163 C 
HETATM   18  O   UNK N   1      34.373  18.021   6.449  0.00  0.00    -0.648 OA
BRANCH  17  19
HETATM   19  O   UNK N   1      34.954  19.018   8.346  0.00  0.00    -0.775 OA
HETATM   20  H   UNK N   1      34.933  19.096   9.280  0.00  0.00     0.167 HD
ENDBRANCH  17  19
ENDBRANCH  13  17
ENDBRANCH  12  13
ENDBRANCH   1  12
TORSDOF 9
ENDMDL
MODEL 3
REMARK VINA RESULT:      -4.8      4.833      6.266
REMARK  9 active torsions:
REMARK  status: ('A' for Active; 'I' for Inactive)
REMARK    1  A    between atoms: C_2  and  N_5 
REMARK    2  A    between atoms: N_5  and  C_6 
REMARK    3  A    between atoms: C_6  and  C_7 
REMARK    4  A    between atoms: C_7  and  C_8 
REMARK    5  A    between atoms: C_8  and  C_10 
REMARK    6  A    between atoms: C_10  and  C_11 
REMARK    7  A    between atoms: C_11  and  N_12 
REMARK    8  A    between atoms: C_11  and  C_13 
REMARK    9  A    between atoms: C_13  and  O_14 
ROOT
HETATM    1  C   UNK N   1      30.530  17.252   7.765  0.00  0.00     0.174 C 
HETATM    2  F   UNK N   1      29.923  17.609   6.574  0.00  0.00    -0.249 F 
ENDROOT
BRANCH   1   3
HETATM    3  C   UNK N   1      31.944  16.727   7.537  0.00  0.00     0.057 C 
BRANCH   3   4
HETATM    4  C   UNK N   1      32.936  17.363   8.495  0.00  0.00     0.123 C 
BRANCH   4   5
HETATM    5  N   UNK N   1      33.317  16.399   9.498  0.00  0.00    -0.380 N 
HETATM    6  H   UNK N   1      32.627  15.816   9.890  0.00  0.00     0.160 HD
BRANCH   5   7
HETATM    7  C   UNK N   1      34.662  16.267   9.934  0.00  0.00     0.066 C 
HETATM    8  C   UNK N   1      35.533  15.218   9.336  0.00  0.00     0.088 C 
HETATM    9  N   UNK N   1      35.141  17.054  10.828  0.00  0.00    -0.389 N 
HETATM   10  H   UNK N   1      34.640  17.857  11.100  0.00  0.00     0.157 HD
ATOM     11  HN  UNK N   1      36.043  16.847  11.256  1.00  0.00     0.157 HD
ENDBRANCH   5   7
ENDBRANCH   4   5
ENDBRANCH   3   4
ENDBRANCH   1   3
BRANCH   1  12
HETATM   12  C   UNK N   1      30.486  18.401   8.756  0.00  0.00     0.072 C 
BRANCH  12  13
HETATM   13  C   UNK N   1      29.458  18.067   9.825  0.00  0.00     0.176 C 
BRANCH  13  14
HETATM   14  N   UNK N   1      29.824  16.824  10.484  0.00  0.00    -0.417 N 
HETATM   15  H   UNK N   1      30.766  16.439  10.413  0.00  0.00     0.150 HD
HETATM   16  H   UNK N   1      29.123  16.326  11.033  0.00  0.00     0.150 HD
ENDBRANCH  13  14
BRANCH  13  17
HETATM   17  C   UNK N   1      28.075  17.983   9.245  0.00  0.00     0.163 C 
HETATM   18  O   UNK N   1      27.437  16.946   9.342  0.00  0.00    -0.648 OA
BRANCH  17  19
HETATM   19  O   UNK N   1      27.539  19.034   8.592  0.00  0.00    -0.775 OA
HETATM   20  H   UNK N   1      27.195  18.982   7.722  0.00  0.00     0.167 HD
ENDBRANCH  17  19
ENDBRANCH  13  17
ENDBRANCH  12  13
ENDBRANCH   1  12
TORSDOF 9
ENDMDL
MODEL 4
REMARK VINA RESULT:      -4.7      2.139      2.733
REMARK  9 active torsions:
REMARK  status: ('A' for Active; 'I' for Inactive)
REMARK    1  A    between atoms: C_2  and  N_5 
REMARK    2  A    between atoms: N_5  and  C_6 
REMARK    3  A    between atoms: C_6  and  C_7 
REMARK    4  A    between atoms: C_7  and  C_8 
REMARK    5  A    between atoms: C_8  and  C_10 
REMARK    6  A    between atoms: C_10  and  C_11 
REMARK    7  A    between atoms: C_11  and  N_12 
REMARK    8  A    between atoms: C_11  and  C_13 
REMARK    9  A    between atoms: C_13  and  O_14 
ROOT
HETATM    1  C   UNK N   1      36.211  12.831  11.329  0.00  0.00     0.174 C 
HETATM    2  F   UNK N   1      37.570  13.079  11.247  0.00  0.00    -0.249 F 
ENDROOT
BRANCH   1   3
HETATM    3  C   UNK N   1      35.710  12.933  12.766  0.00  0.00     0.057 C 
BRANCH   3   4
HETATM    4  C   UNK N   1      36.479  12.007  13.692  0.00  0.00     0.123 C 
BRANCH   4   5
HETATM    5  N   UNK N   1      37.340  12.790  14.543  0.00  0.00    -0.380 N 
HETATM    6  H   UNK N   1      38.312  12.634  14.516  0.00  0.00     0.160 HD
BRANCH   5   7
HETATM    7  C   UNK N   1      36.823  13.780  15.420  0.00  0.00     0.066 C 
HETATM    8  C   UNK N   1      35.741  13.425  16.379  0.00  0.00     0.088 C 
HETATM    9  N   UNK N   1      37.290  14.976  15.407  0.00  0.00    -0.389 N 
HETATM   10  H   UNK N   1      38.116  15.179  14.912  0.00  0.00     0.157 HD
ATOM     11  HN  UNK N   1      36.803  15.717  15.912  1.00  0.00     0.157 HD
ENDBRANCH   5   7
ENDBRANCH   4   5
ENDBRANCH   3   4
ENDBRANCH   1   3
BRANCH   1  12
HETATM   12  C   UNK N   1      35.442  13.729  10.377  0.00  0.00     0.072 C 
BRANCH  12  13
HETATM   13  C   UNK N   1      34.907  14.912  11.169  0.00  0.00     0.176 C 
BRANCH  13  14
HETATM   14  N   UNK N   1      33.495  15.098  10.877  0.00  0.00    -0.417 N 
HETATM   15  H   UNK N   1      32.929  15.774  11.391  0.00  0.00     0.150 HD
HETATM   16  H   UNK N   1      33.061  14.541  10.142  0.00  0.00     0.150 HD
ENDBRANCH  13  14
BRANCH  13  17
HETATM   17  C   UNK N   1      35.688  16.161  10.880  0.00  0.00     0.163 C 
HETATM   18  O   UNK N   1      35.099  17.199  10.619  0.00  0.00    -0.648 OA
BRANCH  17  19
HETATM   19  O   UNK N   1      37.036  16.144  10.877  0.00  0.00    -0.775 OA
HETATM   20  H   UNK N   1      37.561  16.546  11.541  0.00  0.00     0.167 HD
ENDBRANCH  17  19
ENDBRANCH  13  17
ENDBRANCH  12  13
ENDBRANCH   1  12
TORSDOF 9
ENDMDL
MODEL 5
REMARK VINA RESULT:      -4.5      1.718      2.129
REMARK  9 active torsions:
REMARK  status: ('A' for Active; 'I' for Inactive)
REMARK    1  A    between atoms: C_2  and  N_5 
REMARK    2  A    between atoms: N_5  and  C_6 
REMARK    3  A    between atoms: C_6  and  C_7 
REMARK    4  A    between atoms: C_7  and  C_8 
REMARK    5  A    between atoms: C_8  and  C_10 
REMARK    6  A    between atoms: C_10  and  C_11 
REMARK    7  A    between atoms: C_11  and  N_12 
REMARK    8  A    between atoms: C_11  and  C_13 
REMARK    9  A    between atoms: C_13  and  O_14 
ROOT
HETATM    1  C   UNK N   1      35.464  15.699  10.336  0.00  0.00     0.174 C 
HETATM    2  F   UNK N   1      35.526  16.861  11.085  0.00  0.00    -0.249 F 
ENDROOT
BRANCH   1   3
HETATM    3  C   UNK N   1      34.855  14.551  11.134  0.00  0.00     0.057 C 
BRANCH   3   4
HETATM    4  C   UNK N   1      35.515  14.404  12.494  0.00  0.00     0.123 C 
BRANCH   4   5
HETATM    5  N   UNK N   1      35.495  13.017  12.887  0.00  0.00    -0.380 N 
HETATM    6  H   UNK N   1      34.702  12.660  13.349  0.00  0.00     0.160 HD
BRANCH   5   7
HETATM    7  C   UNK N   1      36.590  12.151  12.624  0.00  0.00     0.066 C 
HETATM    8  C   UNK N   1      36.457  11.083  11.594  0.00  0.00     0.088 C 
HETATM    9  N   UNK N   1      37.700  12.288  13.254  0.00  0.00    -0.389 N 
HETATM   10  H   UNK N   1      37.862  13.089  13.802  0.00  0.00     0.157 HD
ATOM     11  HN  UNK N   1      38.415  11.564  13.185  1.00  0.00     0.157 HD
ENDBRANCH   5   7
ENDBRANCH   4   5
ENDBRANCH   3   4
ENDBRANCH   1   3
BRANCH   1  12
HETATM   12  C   UNK N   1      34.745  15.944   9.022  0.00  0.00     0.072 C 
BRANCH  12  13
HETATM   13  C   UNK N   1      34.048  17.292   9.107  0.00  0.00     0.176 C 
BRANCH  13  14
HETATM   14  N   UNK N   1      32.621  17.119   8.895  0.00  0.00    -0.417 N 
HETATM   15  H   UNK N   1      32.173  16.208   8.992  0.00  0.00     0.150 HD
HETATM   16  H   UNK N   1      32.053  17.928   8.643  0.00  0.00     0.150 HD
ENDBRANCH  13  14
BRANCH  13  17
HETATM   17  C   UNK N   1      34.626  18.269   8.124  0.00  0.00     0.163 C 
HETATM   18  O   UNK N   1      35.281  19.219   8.525  0.00  0.00    -0.648 OA
BRANCH  17  19
HETATM   19  O   UNK N   1      34.407  18.124   6.802  0.00  0.00    -0.775 OA
HETATM   20  H   UNK N   1      34.569  18.799   6.173  0.00  0.00     0.167 HD
ENDBRANCH  17  19
ENDBRANCH  13  17
ENDBRANCH  12  13
ENDBRANCH   1  12
TORSDOF 9
ENDMDL
MODEL 6
REMARK VINA RESULT:      -4.4     13.230     15.504
REMARK  9 active torsions:
REMARK  status: ('A' for Active; 'I' for Inactive)
REMARK    1  A    between atoms: C_2  and  N_5 
REMARK    2  A    between atoms: N_5  and  C_6 
REMARK    3  A    between atoms: C_6  and  C_7 
REMARK    4  A    between atoms: C_7  and  C_8 
REMARK    5  A    between atoms: C_8  and  C_10 
REMARK    6  A    between atoms: C_10  and  C_11 
REMARK    7  A    between atoms: C_11  and  N_12 
REMARK    8  A    between atoms: C_11  and  C_13 
REMARK    9  A    between atoms: C_13  and  O_14 
ROOT
HETATM    1  C   UNK N   1      43.470  22.603   1.559  0.00  0.00     0.174 C 
HETATM    2  F   UNK N   1      43.760  21.568   0.686  0.00  0.00    -0.249 F 
ENDROOT
BRANCH   1   3
HETATM    3  C   UNK N   1      42.828  23.782   0.835  0.00  0.00     0.057 C 
BRANCH   3   4
HETATM    4  C   UNK N   1      43.867  24.643   0.138  0.00  0.00     0.123 C 
BRANCH   4   5
HETATM    5  N   UNK N   1      44.557  25.445   1.119  0.00  0.00    -0.380 N 
HETATM    6  H   UNK N   1      44.058  26.141   1.606  0.00  0.00     0.160 HD
BRANCH   5   7
HETATM    7  C   UNK N   1      45.936  25.258   1.400  0.00  0.00     0.066 C 
HETATM    8  C   UNK N   1      46.955  25.649   0.386  0.00  0.00     0.088 C 
HETATM    9  N   UNK N   1      46.316  24.771   2.524  0.00  0.00    -0.389 N 
HETATM   10  H   UNK N   1      45.674  24.675   3.264  0.00  0.00     0.157 HD
ATOM     11  HN  UNK N   1      47.286  24.482   2.651  1.00  0.00     0.157 HD
ENDBRANCH   5   7
ENDBRANCH   4   5
ENDBRANCH   3   4
ENDBRANCH   1   3
BRANCH   1  12
HETATM   12  C   UNK N   1      42.633  22.105   2.723  0.00  0.00     0.072 C 
BRANCH  12  13
HETATM   13  C   UNK N   1      43.423  22.325   4.003  0.00  0.00     0.176 C 
BRANCH  13  14
HETATM   14  N   UNK N   1      43.550  23.749   4.262  0.00  0.00    -0.417 N 
HETATM   15  H   UNK N   1      43.097  24.189   5.062  0.00  0.00     0.150 HD
HETATM   16  H   UNK N   1      44.107  24.323   3.628  0.00  0.00     0.150 HD
ENDBRANCH  13  14
BRANCH  13  17
HETATM   17  C   UNK N   1      44.770  21.666   3.932  0.00  0.00     0.163 C 
HETATM   18  O   UNK N   1      44.853  20.478   3.662  0.00  0.00    -0.648 OA
BRANCH  17  19
HETATM   19  O   UNK N   1      45.892  22.367   4.191  0.00  0.00    -0.775 OA
HETATM   20  H   UNK N   1      46.714  21.970   4.402  0.00  0.00     0.167 HD
ENDBRANCH  17  19
ENDBRANCH  13  17
ENDBRANCH  12  13
ENDBRANCH   1  12
TORSDOF 9
ENDMDL
MODEL 7
REMARK VINA RESULT:      -4.4      3.860      6.404
REMARK  9 active torsions:
REMARK  status: ('A' for Active; 'I' for Inactive)
REMARK    1  A    between atoms: C_2  and  N_5 
REMARK    2  A    between atoms: N_5  and  C_6 
REMARK    3  A    between atoms: C_6  and  C_7 
REMARK    4  A    between atoms: C_7  and  C_8 
REMARK    5  A    between atoms: C_8  and  C_10 
REMARK    6  A    between atoms: C_10  and  C_11 
REMARK    7  A    between atoms: C_11  and  N_12 
REMARK    8  A    between atoms: C_11  and  C_13 
REMARK    9  A    between atoms: C_13  and  O_14 
ROOT
HETATM    1  C   UNK N   1      32.877  16.964   8.381  0.00  0.00     0.174 C 
HETATM    2  F   UNK N   1      33.122  18.305   8.618  0.00  0.00    -0.249 F 
ENDROOT
BRANCH   1   3
HETATM    3  C   UNK N   1      32.068  16.760   7.104  0.00  0.00     0.057 C 
BRANCH   3   4
HETATM    4  C   UNK N   1      30.575  16.862   7.367  0.00  0.00     0.123 C 
BRANCH   4   5
HETATM    5  N   UNK N   1      30.342  16.878   8.790  0.00  0.00    -0.380 N 
HETATM    6  H   UNK N   1      30.825  16.239   9.362  0.00  0.00     0.160 HD
BRANCH   5   7
HETATM    7  C   UNK N   1      29.433  17.791   9.386  0.00  0.00     0.066 C 
HETATM    8  C   UNK N   1      27.968  17.607   9.193  0.00  0.00     0.088 C 
HETATM    9  N   UNK N   1      29.859  18.765  10.105  0.00  0.00    -0.389 N 
HETATM   10  H   UNK N   1      30.802  18.797  10.387  0.00  0.00     0.157 HD
ATOM     11  HN  UNK N   1      29.219  19.508  10.385  1.00  0.00     0.157 HD
ENDBRANCH   5   7
ENDBRANCH   4   5
ENDBRANCH   3   4
ENDBRANCH   1   3
BRANCH   1  12
HETATM   12  C   UNK N   1      34.171  16.171   8.385  0.00  0.00     0.072 C 
BRANCH  12  13
HETATM   13  C   UNK N   1      34.312  15.501   9.742  0.00  0.00     0.176 C 
BRANCH  13  14
HETATM   14  N   UNK N   1      32.997  15.301  10.328  0.00  0.00    -0.417 N 
HETATM   15  H   UNK N   1      32.280  16.025  10.290  0.00  0.00     0.150 HD
HETATM   16  H   UNK N   1      32.786  14.415  10.787  0.00  0.00     0.150 HD
ENDBRANCH  13  14
BRANCH  13  17
HETATM   17  C   UNK N   1      35.195  16.301  10.656  0.00  0.00     0.163 C 
HETATM   18  O   UNK N   1      35.476  15.866  11.763  0.00  0.00    -0.648 OA
BRANCH  17  19
HETATM   19  O   UNK N   1      35.659  17.509  10.280  0.00  0.00    -0.775 OA
HETATM   20  H   UNK N   1      35.312  17.996   9.559  0.00  0.00     0.167 HD
ENDBRANCH  17  19
ENDBRANCH  13  17
ENDBRANCH  12  13
ENDBRANCH   1  12
TORSDOF 9
ENDMDL
MODEL 8
REMARK VINA RESULT:      -4.4      3.172      4.297
REMARK  9 active torsions:
REMARK  status: ('A' for Active; 'I' for Inactive)
REMARK    1  A    between atoms: C_2  and  N_5 
REMARK    2  A    between atoms: N_5  and  C_6 
REMARK    3  A    between atoms: C_6  and  C_7 
REMARK    4  A    between atoms: C_7  and  C_8 
REMARK    5  A    between atoms: C_8  and  C_10 
REMARK    6  A    between atoms: C_10  and  C_11 
REMARK    7  A    between atoms: C_11  and  N_12 
REMARK    8  A    between atoms: C_11  and  C_13 
REMARK    9  A    between atoms: C_13  and  O_14 
ROOT
HETATM    1  C   UNK N   1      35.018  12.736  13.422  0.00  0.00     0.174 C 
HETATM    2  F   UNK N   1      35.088  11.823  12.384  0.00  0.00    -0.249 F 
ENDROOT
BRANCH   1   3
HETATM    3  C   UNK N   1      35.174  12.055  14.778  0.00  0.00     0.057 C 
BRANCH   3   4
HETATM    4  C   UNK N   1      35.749  13.003  15.816  0.00  0.00     0.123 C 
BRANCH   4   5
HETATM    5  N   UNK N   1      34.773  13.221  16.856  0.00  0.00    -0.380 N 
HETATM    6  H   UNK N   1      33.816  13.188  16.630  0.00  0.00     0.160 HD
BRANCH   5   7
HETATM    7  C   UNK N   1      35.159  13.482  18.197  0.00  0.00     0.066 C 
HETATM    8  C   UNK N   1      35.284  12.354  19.162  0.00  0.00     0.088 C 
HETATM    9  N   UNK N   1      35.417  14.678  18.585  0.00  0.00    -0.389 N 
HETATM   10  H   UNK N   1      35.512  15.402  17.925  0.00  0.00     0.157 HD
ATOM     11  HN  UNK N   1      35.524  14.878  19.579  1.00  0.00     0.157 HD
ENDBRANCH   5   7
ENDBRANCH   4   5
ENDBRANCH   3   4
ENDBRANCH   1   3
BRANCH   1  12
HETATM   12  C   UNK N   1      36.015  13.862  13.216  0.00  0.00     0.072 C 
BRANCH  12  13
HETATM   13  C   UNK N   1      36.298  13.978  11.726  0.00  0.00     0.176 C 
BRANCH  13  14
HETATM   14  N   UNK N   1      37.660  13.551  11.452  0.00  0.00    -0.417 N 
HETATM   15  H   UNK N   1      37.892  13.012  10.618  0.00  0.00     0.150 HD
HETATM   16  H   UNK N   1      38.401  13.798  12.108  0.00  0.00     0.150 HD
ENDBRANCH  13  14
BRANCH  13  17
HETATM   17  C   UNK N   1      36.059  15.375  11.232  0.00  0.00     0.163 C 
HETATM   18  O   UNK N   1      34.928  15.836  11.234  0.00  0.00    -0.648 OA
BRANCH  17  19
HETATM   19  O   UNK N   1      37.078  16.120  10.760  0.00  0.00    -0.775 OA
HETATM   20  H   UNK N   1      37.927  16.149  11.156  0.00  0.00     0.167 HD
ENDBRANCH  17  19
ENDBRANCH  13  17
ENDBRANCH  12  13
ENDBRANCH   1  12
TORSDOF 9
ENDMDL
MODEL 9
REMARK VINA RESULT:      -4.3     14.675     15.628
REMARK  9 active torsions:
REMARK  status: ('A' for Active; 'I' for Inactive)
REMARK    1  A    between atoms: C_2  and  N_5 
REMARK    2  A    between atoms: N_5  and  C_6 
REMARK    3  A    between atoms: C_6  and  C_7 
REMARK    4  A    between atoms: C_7  and  C_8 
REMARK    5  A    between atoms: C_8  and  C_10 
REMARK    6  A    between atoms: C_10  and  C_11 
REMARK    7  A    between atoms: C_11  and  N_12 
REMARK    8  A    between atoms: C_11  and  C_13 
REMARK    9  A    between atoms: C_13  and  O_14 
ROOT
HETATM    1  C   UNK N   1      20.666  15.455   7.659  0.00  0.00     0.174 C 
HETATM    2  F   UNK N   1      21.625  15.967   6.803  0.00  0.00    -0.249 F 
ENDROOT
BRANCH   1   3
HETATM    3  C   UNK N   1      21.018  14.042   8.114  0.00  0.00     0.057 C 
BRANCH   3   4
HETATM    4  C   UNK N   1      20.945  13.908   9.625  0.00  0.00     0.123 C 
BRANCH   4   5
HETATM    5  N   UNK N   1      22.196  13.386  10.118  0.00  0.00    -0.380 N 
HETATM    6  H   UNK N   1      23.040  13.748   9.764  0.00  0.00     0.160 HD
BRANCH   5   7
HETATM    7  C   UNK N   1      22.241  12.363  11.102  0.00  0.00     0.066 C 
HETATM    8  C   UNK N   1      23.558  11.865  11.589  0.00  0.00     0.088 C 
HETATM    9  N   UNK N   1      21.160  11.872  11.589  0.00  0.00    -0.389 N 
HETATM   10  H   UNK N   1      20.295  12.308  11.411  0.00  0.00     0.157 HD
ATOM     11  HN  UNK N   1      21.197  11.029  12.161  1.00  0.00     0.157 HD
ENDBRANCH   5   7
ENDBRANCH   4   5
ENDBRANCH   3   4
ENDBRANCH   1   3
BRANCH   1  12
HETATM   12  C   UNK N   1      20.425  16.400   8.822  0.00  0.00     0.072 C 
BRANCH  12  13
HETATM   13  C   UNK N   1      19.316  17.362   8.429  0.00  0.00     0.176 C 
BRANCH  13  14
HETATM   14  N   UNK N   1      19.289  18.483   9.354  0.00  0.00    -0.417 N 
HETATM   15  H   UNK N   1      19.879  18.503  10.186  0.00  0.00     0.150 HD
HETATM   16  H   UNK N   1      18.666  19.269   9.167  0.00  0.00     0.150 HD
ENDBRANCH  13  14
BRANCH  13  17
HETATM   17  C   UNK N   1      17.984  16.670   8.381  0.00  0.00     0.163 C 
HETATM   18  O   UNK N   1      17.494  16.224   9.407  0.00  0.00    -0.648 OA
BRANCH  17  19
HETATM   19  O   UNK N   1      17.334  16.511   7.211  0.00  0.00    -0.775 OA
HETATM   20  H   UNK N   1      17.696  16.752   6.380  0.00  0.00     0.167 HD
ENDBRANCH  17  19
ENDBRANCH  13  17
ENDBRANCH  12  13
ENDBRANCH   1  12
TORSDOF 9
ENDMDL
