REMARK  10 active torsions:
REMARK  status: ('A' for Active; 'I' for Inactive)
REMARK    1  A    between atoms: C_2  and  O_3 
REMARK    2  A    between atoms: C_2  and  C_4 
REMARK    3  A    between atoms: C_4  and  N_5 
REMARK    4  A    between atoms: C_4  and  C_6 
REMARK    5  A    between atoms: C_9  and  C_10 
REMARK    6  A    between atoms: C_10  and  C_11 
REMARK    7  A    between atoms: C_18  and  N_19 
REMARK    8  A    between atoms: N_23  and  C_24 
REMARK    9  A    between atoms: C_24  and  C_25 
REMARK   10  A    between atoms: C_25  and  O_26 
ROOT
HETATM    1  C   UNK N   1      -2.044  -2.185  -0.187  0.00  0.00     0.112 A 
HETATM    2  N   UNK N   1      -0.951  -1.521   0.006  0.00  0.00    -0.339 N 
ATOM      3  HN  UNK N   1      -0.849  -0.507  -0.033  1.00  0.00     0.167 HD
HETATM    4  C   UNK N   1       0.076  -2.452   0.279  0.00  0.00     0.103 A 
HETATM    5  C   UNK N   1      -0.531  -3.764   0.235  0.00  0.00     0.276 A 
HETATM    6  O   UNK N   1       0.037  -4.835   0.378  0.00  0.00    -0.265 OA
HETATM    7  N   UNK N   1      -1.840  -3.595  -0.060  0.00  0.00    -0.290 N 
ENDROOT
BRANCH   4   8
HETATM    8  C   UNK N   1       1.379  -2.167   0.409  0.00  0.00     0.049 C 
BRANCH   8   9
HETATM    9  C   UNK N   1       1.919  -0.793   0.370  0.00  0.00    -0.004 A 
HETATM   10  C   UNK N   1       1.211   0.399   0.505  0.00  0.00     0.101 A 
HETATM   11  N   UNK N   1       2.059   1.451   0.382  0.00  0.00    -0.364 N 
HETATM   12  C   UNK N   1       3.277   0.925   0.164  0.00  0.00     0.045 A 
HETATM   13  H   UNK N   1       1.828   2.406   0.440  0.00  0.00     0.165 HD
HETATM   14  C   UNK N   1       4.461   1.628  -0.045  0.00  0.00     0.030 A 
HETATM   15  C   UNK N   1       3.232  -0.442   0.152  0.00  0.00     0.028 A 
HETATM   16  C   UNK N   1       5.634   0.885  -0.276  0.00  0.00     0.005 A 
HETATM   17  C   UNK N   1       5.596  -0.527  -0.290  0.00  0.00     0.030 A 
HETATM   18  C   UNK N   1       4.383  -1.205  -0.073  0.00  0.00     0.039 A 
BRANCH  18  19
HETATM   19  N   UNK N   1       4.340  -2.614  -0.096  0.00  0.00    -0.398 N 
HETATM   20  H   UNK N   1       3.473  -3.080  -0.112  0.00  0.00     0.156 HD
HETATM   21  H   UNK N   1       5.177  -3.132  -0.096  0.00  0.00     0.156 HD
ENDBRANCH  18  19
ENDBRANCH   8   9
ENDBRANCH   4   8
BRANCH   1  22
HETATM   22  C   UNK N   1      -3.344  -1.498  -0.574  0.00  0.00     0.171 C 
BRANCH  22  23
HETATM   23  C   UNK N   1      -4.475  -1.706   0.446  0.00  0.00     0.143 C 
HETATM   24  C   UNK N   1      -5.643  -0.769   0.183  0.00  0.00     0.042 C 
BRANCH  23  25
HETATM   25  O   UNK N   1      -4.960  -3.010   0.381  0.00  0.00    -0.393 OA
HETATM   26  H   UNK N   1      -5.916  -3.171   0.335  0.00  0.00     0.210 HD
ENDBRANCH  23  25
ENDBRANCH  22  23
BRANCH  22  27
HETATM   27  N   UNK N   1      -3.095  -0.070  -0.742  0.00  0.00    -0.418 N 
HETATM   28  H   UNK N   1      -2.143   0.278  -0.859  0.00  0.00     0.150 HD
HETATM   29  H   UNK N   1      -3.877   0.585  -0.742  0.00  0.00     0.150 HD
ENDBRANCH  22  27
ENDBRANCH   1  22
BRANCH   7  30
HETATM   30  C   UNK N   1      -2.853  -4.614  -0.295  0.00  0.00     0.243 C 
BRANCH  30  31
HETATM   31  C   UNK N   1      -2.430  -6.021   0.003  0.00  0.00     0.158 C 
HETATM   32  O   UNK N   1      -2.390  -6.845  -0.895  0.00  0.00    -0.649 OA
BRANCH  31  33
HETATM   33  O   UNK N   1      -2.137  -6.388   1.265  0.00  0.00    -0.775 OA
HETATM   34  H   UNK N   1      -2.256  -6.693   2.143  0.00  0.00     0.167 HD
ENDBRANCH  31  33
ENDBRANCH  30  31
ENDBRANCH   7  30
TORSDOF 10
