MODEL 1
REMARK VINA RESULT:      -5.2      0.000      0.000
REMARK  9 active torsions:
REMARK  status: ('A' for Active; 'I' for Inactive)
REMARK    1  A    between atoms: C_2  and  C_1 
REMARK    2  A    between atoms: C_3  and  C_1 
REMARK    3  A    between atoms: C_4  and  C_2 
REMARK    4  A    between atoms: C_2  and  C_5 
REMARK    5  A    between atoms: O_8  and  C_3 
REMARK    6  A    between atoms: C_6  and  C_4 
REMARK    7  A    between atoms: C_4  and  O_14 
REMARK    8  A    between atoms: O_10  and  C_5 
REMARK    9  A    between atoms: O_12  and  C_6 
ROOT
HETATM    1  C   UNK N   1      33.304  17.412   8.657  0.00  0.00     0.136 C 
ENDROOT
BRANCH   1   2
HETATM    2  C   UNK N   1      32.028  17.112   7.847  0.00  0.00     0.128 C 
BRANCH   2   3
HETATM    3  C   UNK N   1      30.780  17.391   8.632  0.00  0.00     0.140 C 
HETATM    4  O   UNK N   1      29.995  18.249   8.263  0.00  0.00    -0.650 OA
BRANCH   3   5
HETATM    5  O   UNK N   1      30.537  16.703   9.763  0.00  0.00    -0.776 OA
HETATM    6  H   UNK N   1      29.789  16.911  10.287  0.00  0.00     0.167 HD
ENDBRANCH   3   5
ENDBRANCH   2   3
ENDBRANCH   1   2
BRANCH   1   7
HETATM    7  C   UNK N   1      33.964  16.102   9.151  0.00  0.00     0.272 C 
BRANCH   7   8
HETATM    8  C   UNK N   1      34.563  16.176  10.538  0.00  0.00     0.174 C 
HETATM    9  O   UNK N   1      35.355  17.056  10.840  0.00  0.00    -0.648 OA
BRANCH   8  10
HETATM   10  O   UNK N   1      34.220  15.254  11.457  0.00  0.00    -0.774 OA
HETATM   11  H   UNK N   1      34.719  15.169  12.245  0.00  0.00     0.167 HD
ENDBRANCH   8  10
ENDBRANCH   7   8
BRANCH   7  12
HETATM   12  O   UNK N   1      33.044  15.049   9.108  0.00  0.00    -0.223 OA
HETATM   13 Ca   UNK N   1      31.914  15.207  11.095  0.00  0.00     0.000 Ca
ENDBRANCH   7  12
ENDBRANCH   1   7
BRANCH   1  14
HETATM   14  C   UNK N   1      34.289  18.220   7.835  0.00  0.00     0.147 C 
HETATM   15  O   UNK N   1      34.379  18.057   6.625  0.00  0.00    -0.650 OA
BRANCH  14  16
HETATM   16  O   UNK N   1      35.087  19.120   8.439  0.00  0.00    -0.776 OA
HETATM   17  H   UNK N   1      36.000  19.155   8.646  0.00  0.00     0.167 HD
ENDBRANCH  14  16
ENDBRANCH   1  14
TORSDOF 9
ENDMDL
MODEL 2
REMARK VINA RESULT:      -5.1      1.964      3.464
REMARK  9 active torsions:
REMARK  status: ('A' for Active; 'I' for Inactive)
REMARK    1  A    between atoms: C_2  and  C_1 
REMARK    2  A    between atoms: C_3  and  C_1 
REMARK    3  A    between atoms: C_4  and  C_2 
REMARK    4  A    between atoms: C_2  and  C_5 
REMARK    5  A    between atoms: O_8  and  C_3 
REMARK    6  A    between atoms: C_6  and  C_4 
REMARK    7  A    between atoms: C_4  and  O_14 
REMARK    8  A    between atoms: O_10  and  C_5 
REMARK    9  A    between atoms: O_12  and  C_6 
ROOT
HETATM    1  C   UNK N   1      34.012  15.777   8.630  0.00  0.00     0.136 C 
ENDROOT
BRANCH   1   2
HETATM    2  C   UNK N   1      33.922  17.251   9.072  0.00  0.00     0.128 C 
BRANCH   2   3
HETATM    3  C   UNK N   1      34.593  18.176   8.098  0.00  0.00     0.140 C 
HETATM    4  O   UNK N   1      35.241  19.129   8.496  0.00  0.00    -0.650 OA
BRANCH   3   5
HETATM    5  O   UNK N   1      34.460  17.960   6.776  0.00  0.00    -0.776 OA
HETATM    6  H   UNK N   1      35.203  18.034   6.212  0.00  0.00     0.167 HD
ENDBRANCH   3   5
ENDBRANCH   2   3
ENDBRANCH   1   2
BRANCH   1   7
HETATM    7  C   UNK N   1      35.232  15.081   9.282  0.00  0.00     0.272 C 
BRANCH   7   8
HETATM    8  C   UNK N   1      35.632  15.633  10.632  0.00  0.00     0.174 C 
HETATM    9  O   UNK N   1      34.909  15.508  11.608  0.00  0.00    -0.648 OA
BRANCH   8  10
HETATM   10  O   UNK N   1      36.807  16.278  10.760  0.00  0.00    -0.774 OA
HETATM   11  H   UNK N   1      37.608  15.791  10.787  0.00  0.00     0.167 HD
ENDBRANCH   8  10
ENDBRANCH   7   8
BRANCH   7  12
HETATM   12  O   UNK N   1      35.000  13.707   9.401  0.00  0.00    -0.223 OA
HETATM   13 Ca   UNK N   1      33.809  13.504  11.348  0.00  0.00     0.000 Ca
ENDBRANCH   7  12
ENDBRANCH   1   7
BRANCH   1  14
HETATM   14  C   UNK N   1      32.737  15.032   8.971  0.00  0.00     0.147 C 
HETATM   15  O   UNK N   1      32.103  14.443   8.105  0.00  0.00    -0.650 OA
BRANCH  14  16
HETATM   16  O   UNK N   1      32.283  15.024  10.239  0.00  0.00    -0.776 OA
HETATM   17  H   UNK N   1      32.462  14.504  10.998  0.00  0.00     0.167 HD
ENDBRANCH  14  16
ENDBRANCH   1  14
TORSDOF 9
ENDMDL
MODEL 3
REMARK VINA RESULT:      -4.9      1.195      3.215
REMARK  9 active torsions:
REMARK  status: ('A' for Active; 'I' for Inactive)
REMARK    1  A    between atoms: C_2  and  C_1 
REMARK    2  A    between atoms: C_3  and  C_1 
REMARK    3  A    between atoms: C_4  and  C_2 
REMARK    4  A    between atoms: C_2  and  C_5 
REMARK    5  A    between atoms: O_8  and  C_3 
REMARK    6  A    between atoms: C_6  and  C_4 
REMARK    7  A    between atoms: C_4  and  O_14 
REMARK    8  A    between atoms: O_10  and  C_5 
REMARK    9  A    between atoms: O_12  and  C_6 
ROOT
HETATM    1  C   UNK N   1      32.813  16.390   8.171  0.00  0.00     0.136 C 
ENDROOT
BRANCH   1   2
HETATM    2  C   UNK N   1      33.564  17.516   8.908  0.00  0.00     0.128 C 
BRANCH   2   3
HETATM    3  C   UNK N   1      34.510  18.252   8.005  0.00  0.00     0.140 C 
HETATM    4  O   UNK N   1      35.246  19.117   8.450  0.00  0.00    -0.650 OA
BRANCH   3   5
HETATM    5  O   UNK N   1      34.530  17.968   6.689  0.00  0.00    -0.776 OA
HETATM    6  H   UNK N   1      35.088  17.290   6.365  0.00  0.00     0.167 HD
ENDBRANCH   3   5
ENDBRANCH   2   3
ENDBRANCH   1   2
BRANCH   1   7
HETATM    7  C   UNK N   1      33.304  15.000   8.645  0.00  0.00     0.272 C 
BRANCH   7   8
HETATM    8  C   UNK N   1      33.952  14.987  10.011  0.00  0.00     0.174 C 
HETATM    9  O   UNK N   1      35.165  14.922  10.138  0.00  0.00    -0.648 OA
BRANCH   8  10
HETATM   10  O   UNK N   1      33.177  15.046  11.110  0.00  0.00    -0.774 OA
HETATM   11  H   UNK N   1      33.113  15.845  11.597  0.00  0.00     0.167 HD
ENDBRANCH   8  10
ENDBRANCH   7   8
BRANCH   7  12
HETATM   12  O   UNK N   1      32.249  14.082   8.631  0.00  0.00    -0.223 OA
HETATM   13 Ca   UNK N   1      31.092  14.525  10.557  0.00  0.00     0.000 Ca
ENDBRANCH   7  12
ENDBRANCH   1   7
BRANCH   1  14
HETATM   14  C   UNK N   1      31.316  16.516   8.372  0.00  0.00     0.147 C 
HETATM   15  O   UNK N   1      30.557  16.584   7.415  0.00  0.00    -0.650 OA
BRANCH  14  16
HETATM   16  O   UNK N   1      30.809  16.567   9.619  0.00  0.00    -0.776 OA
HETATM   17  H   UNK N   1      30.683  15.940  10.303  0.00  0.00     0.167 HD
ENDBRANCH  14  16
ENDBRANCH   1  14
TORSDOF 9
ENDMDL
MODEL 4
REMARK VINA RESULT:      -4.7      1.804      1.989
REMARK  9 active torsions:
REMARK  status: ('A' for Active; 'I' for Inactive)
REMARK    1  A    between atoms: C_2  and  C_1 
REMARK    2  A    between atoms: C_3  and  C_1 
REMARK    3  A    between atoms: C_4  and  C_2 
REMARK    4  A    between atoms: C_2  and  C_5 
REMARK    5  A    between atoms: O_8  and  C_3 
REMARK    6  A    between atoms: C_6  and  C_4 
REMARK    7  A    between atoms: C_4  and  O_14 
REMARK    8  A    between atoms: O_10  and  C_5 
REMARK    9  A    between atoms: O_12  and  C_6 
ROOT
HETATM    1  C   UNK N   1      33.843  17.175   8.881  0.00  0.00     0.136 C 
ENDROOT
BRANCH   1   2
HETATM    2  C   UNK N   1      32.710  16.477   8.102  0.00  0.00     0.128 C 
BRANCH   2   3
HETATM    3  C   UNK N   1      31.366  16.715   8.724  0.00  0.00     0.140 C 
HETATM    4  O   UNK N   1      30.561  17.462   8.193  0.00  0.00    -0.650 OA
BRANCH   3   5
HETATM    5  O   UNK N   1      31.054  16.113   9.888  0.00  0.00    -0.776 OA
HETATM    6  H   UNK N   1      31.431  16.417  10.689  0.00  0.00     0.167 HD
ENDBRANCH   3   5
ENDBRANCH   2   3
ENDBRANCH   1   2
BRANCH   1   7
HETATM    7  C   UNK N   1      34.859  16.140   9.421  0.00  0.00     0.272 C 
BRANCH   7   8
HETATM    8  C   UNK N   1      34.624  15.705  10.850  0.00  0.00     0.174 C 
HETATM    9  O   UNK N   1      35.433  15.954  11.730  0.00  0.00    -0.648 OA
BRANCH   8  10
HETATM   10  O   UNK N   1      33.501  15.028  11.159  0.00  0.00    -0.774 OA
HETATM   11  H   UNK N   1      32.675  15.310  10.817  0.00  0.00     0.167 HD
ENDBRANCH   8  10
ENDBRANCH   7   8
BRANCH   7  12
HETATM   12  O   UNK N   1      34.884  15.009   8.598  0.00  0.00    -0.223 OA
HETATM   13 Ca   UNK N   1      35.554  15.811   6.560  0.00  0.00     0.000 Ca
ENDBRANCH   7  12
ENDBRANCH   1   7
BRANCH   1  14
HETATM   14  C   UNK N   1      34.546  18.198   8.011  0.00  0.00     0.147 C 
HETATM   15  O   UNK N   1      35.181  19.118   8.510  0.00  0.00    -0.650 OA
BRANCH  14  16
HETATM   16  O   UNK N   1      34.465  18.107   6.670  0.00  0.00    -0.776 OA
HETATM   17  H   UNK N   1      34.098  18.644   5.995  0.00  0.00     0.167 HD
ENDBRANCH  14  16
ENDBRANCH   1  14
TORSDOF 9
ENDMDL
MODEL 5
REMARK VINA RESULT:      -4.6      2.201      3.592
REMARK  9 active torsions:
REMARK  status: ('A' for Active; 'I' for Inactive)
REMARK    1  A    between atoms: C_2  and  C_1 
REMARK    2  A    between atoms: C_3  and  C_1 
REMARK    3  A    between atoms: C_4  and  C_2 
REMARK    4  A    between atoms: C_2  and  C_5 
REMARK    5  A    between atoms: O_8  and  C_3 
REMARK    6  A    between atoms: C_6  and  C_4 
REMARK    7  A    between atoms: C_4  and  O_14 
REMARK    8  A    between atoms: O_10  and  C_5 
REMARK    9  A    between atoms: O_12  and  C_6 
ROOT
HETATM    1  C   UNK N   1      34.353  15.774   8.682  0.00  0.00     0.136 C 
ENDROOT
BRANCH   1   2
HETATM    2  C   UNK N   1      34.016  17.231   9.056  0.00  0.00     0.128 C 
BRANCH   2   3
HETATM    3  C   UNK N   1      34.608  18.215   8.090  0.00  0.00     0.140 C 
HETATM    4  O   UNK N   1      35.233  19.181   8.495  0.00  0.00    -0.650 OA
BRANCH   3   5
HETATM    5  O   UNK N   1      34.430  18.039   6.767  0.00  0.00    -0.776 OA
HETATM    6  H   UNK N   1      34.970  17.435   6.298  0.00  0.00     0.167 HD
ENDBRANCH   3   5
ENDBRANCH   2   3
ENDBRANCH   1   2
BRANCH   1   7
HETATM    7  C   UNK N   1      34.916  15.008   9.903  0.00  0.00     0.272 C 
BRANCH   7   8
HETATM    8  C   UNK N   1      36.403  15.168  10.122  0.00  0.00     0.174 C 
HETATM    9  O   UNK N   1      37.207  14.418   9.590  0.00  0.00    -0.648 OA
BRANCH   8  10
HETATM   10  O   UNK N   1      36.851  16.155  10.922  0.00  0.00    -0.774 OA
HETATM   11  H   UNK N   1      37.194  16.942  10.547  0.00  0.00     0.167 HD
ENDBRANCH   8  10
ENDBRANCH   7   8
BRANCH   7  12
HETATM   12  O   UNK N   1      34.239  15.387  11.068  0.00  0.00    -0.223 OA
HETATM   13 Ca   UNK N   1      35.089  17.456  11.563  0.00  0.00     0.000 Ca
ENDBRANCH   7  12
ENDBRANCH   1   7
BRANCH   1  14
HETATM   14  C   UNK N   1      33.133  15.062   8.130  0.00  0.00     0.147 C 
HETATM   15  O   UNK N   1      32.704  15.324   7.014  0.00  0.00    -0.650 OA
BRANCH  14  16
HETATM   16  O   UNK N   1      32.503  14.136   8.877  0.00  0.00    -0.776 OA
HETATM   17  H   UNK N   1      31.697  14.115   9.355  0.00  0.00     0.167 HD
ENDBRANCH  14  16
ENDBRANCH   1  14
TORSDOF 9
ENDMDL
MODEL 6
REMARK VINA RESULT:      -4.6      1.648      2.437
REMARK  9 active torsions:
REMARK  status: ('A' for Active; 'I' for Inactive)
REMARK    1  A    between atoms: C_2  and  C_1 
REMARK    2  A    between atoms: C_3  and  C_1 
REMARK    3  A    between atoms: C_4  and  C_2 
REMARK    4  A    between atoms: C_2  and  C_5 
REMARK    5  A    between atoms: O_8  and  C_3 
REMARK    6  A    between atoms: C_6  and  C_4 
REMARK    7  A    between atoms: C_4  and  O_14 
REMARK    8  A    between atoms: O_10  and  C_5 
REMARK    9  A    between atoms: O_12  and  C_6 
ROOT
HETATM    1  C   UNK N   1      33.126  17.571   8.555  0.00  0.00     0.136 C 
ENDROOT
BRANCH   1   2
HETATM    2  C   UNK N   1      31.862  17.576   7.672  0.00  0.00     0.128 C 
BRANCH   2   3
HETATM    3  C   UNK N   1      30.604  17.668   8.485  0.00  0.00     0.140 C 
HETATM    4  O   UNK N   1      29.617  17.023   8.173  0.00  0.00    -0.650 OA
BRANCH   3   5
HETATM    5  O   UNK N   1      30.560  18.485   9.554  0.00  0.00    -0.776 OA
HETATM    6  H   UNK N   1      30.912  18.202  10.374  0.00  0.00     0.167 HD
ENDBRANCH   3   5
ENDBRANCH   2   3
ENDBRANCH   1   2
BRANCH   1   7
HETATM    7  C   UNK N   1      33.479  16.132   9.001  0.00  0.00     0.272 C 
BRANCH   7   8
HETATM    8  C   UNK N   1      33.155  15.055   7.990  0.00  0.00     0.174 C 
HETATM    9  O   UNK N   1      32.235  14.272   8.170  0.00  0.00    -0.648 OA
BRANCH   8  10
HETATM   10  O   UNK N   1      33.894  14.956   6.869  0.00  0.00    -0.774 OA
HETATM   11  H   UNK N   1      34.793  15.222   6.876  0.00  0.00     0.167 HD
ENDBRANCH   8  10
ENDBRANCH   7   8
BRANCH   7  12
HETATM   12  O   UNK N   1      34.835  16.047   9.339  0.00  0.00    -0.223 OA
HETATM   13 Ca   UNK N   1      35.178  17.829  10.737  0.00  0.00     0.000 Ca
ENDBRANCH   7  12
ENDBRANCH   1   7
BRANCH   1  14
HETATM   14  C   UNK N   1      34.297  18.200   7.827  0.00  0.00     0.147 C 
HETATM   15  O   UNK N   1      34.489  17.979   6.638  0.00  0.00    -0.650 OA
BRANCH  14  16
HETATM   16  O   UNK N   1      35.148  19.002   8.493  0.00  0.00    -0.776 OA
HETATM   17  H   UNK N   1      35.509  19.853   8.336  0.00  0.00     0.167 HD
ENDBRANCH  14  16
ENDBRANCH   1  14
TORSDOF 9
ENDMDL
MODEL 7
REMARK VINA RESULT:      -4.6      2.380      2.814
REMARK  9 active torsions:
REMARK  status: ('A' for Active; 'I' for Inactive)
REMARK    1  A    between atoms: C_2  and  C_1 
REMARK    2  A    between atoms: C_3  and  C_1 
REMARK    3  A    between atoms: C_4  and  C_2 
REMARK    4  A    between atoms: C_2  and  C_5 
REMARK    5  A    between atoms: O_8  and  C_3 
REMARK    6  A    between atoms: C_6  and  C_4 
REMARK    7  A    between atoms: C_4  and  O_14 
REMARK    8  A    between atoms: O_10  and  C_5 
REMARK    9  A    between atoms: O_12  and  C_6 
ROOT
HETATM    1  C   UNK N   1      34.025  16.691   8.786  0.00  0.00     0.136 C 
ENDROOT
BRANCH   1   2
HETATM    2  C   UNK N   1      34.175  15.452   7.881  0.00  0.00     0.128 C 
BRANCH   2   3
HETATM    3  C   UNK N   1      32.847  14.891   7.465  0.00  0.00     0.140 C 
HETATM    4  O   UNK N   1      32.236  14.134   8.202  0.00  0.00    -0.650 OA
BRANCH   3   5
HETATM    5  O   UNK N   1      32.337  15.210   6.261  0.00  0.00    -0.776 OA
HETATM    6  H   UNK N   1      32.325  16.103   5.979  0.00  0.00     0.167 HD
ENDBRANCH   3   5
ENDBRANCH   2   3
ENDBRANCH   1   2
BRANCH   1   7
HETATM    7  C   UNK N   1      34.726  16.465  10.148  0.00  0.00     0.272 C 
BRANCH   7   8
HETATM    8  C   UNK N   1      34.258  15.244  10.908  0.00  0.00     0.174 C 
HETATM    9  O   UNK N   1      35.055  14.455  11.392  0.00  0.00    -0.648 OA
BRANCH   8  10
HETATM   10  O   UNK N   1      32.938  15.021  11.053  0.00  0.00    -0.774 OA
HETATM   11  H   UNK N   1      32.637  14.219  11.432  0.00  0.00     0.167 HD
ENDBRANCH   8  10
ENDBRANCH   7   8
BRANCH   7  12
HETATM   12  O   UNK N   1      36.112  16.392   9.975  0.00  0.00    -0.223 OA
HETATM   13 Ca   UNK N   1      36.915  15.918  12.068  0.00  0.00     0.000 Ca
ENDBRANCH   7  12
ENDBRANCH   1   7
BRANCH   1  14
HETATM   14  C   UNK N   1      34.581  17.927   8.107  0.00  0.00     0.147 C 
HETATM   15  O   UNK N   1      34.457  18.090   6.900  0.00  0.00    -0.650 OA
BRANCH  14  16
HETATM   16  O   UNK N   1      35.231  18.856   8.833  0.00  0.00    -0.776 OA
HETATM   17  H   UNK N   1      35.838  18.827   9.546  0.00  0.00     0.167 HD
ENDBRANCH  14  16
ENDBRANCH   1  14
TORSDOF 9
ENDMDL
MODEL 8
REMARK VINA RESULT:      -4.5      1.541      4.103
REMARK  9 active torsions:
REMARK  status: ('A' for Active; 'I' for Inactive)
REMARK    1  A    between atoms: C_2  and  C_1 
REMARK    2  A    between atoms: C_3  and  C_1 
REMARK    3  A    between atoms: C_4  and  C_2 
REMARK    4  A    between atoms: C_2  and  C_5 
REMARK    5  A    between atoms: O_8  and  C_3 
REMARK    6  A    between atoms: C_6  and  C_4 
REMARK    7  A    between atoms: C_4  and  O_14 
REMARK    8  A    between atoms: O_10  and  C_5 
REMARK    9  A    between atoms: O_12  and  C_6 
ROOT
HETATM    1  C   UNK N   1      33.329  16.061   8.786  0.00  0.00     0.136 C 
ENDROOT
BRANCH   1   2
HETATM    2  C   UNK N   1      34.822  15.842   9.103  0.00  0.00     0.128 C 
BRANCH   2   3
HETATM    3  C   UNK N   1      35.191  16.348  10.467  0.00  0.00     0.140 C 
HETATM    4  O   UNK N   1      35.932  17.309  10.592  0.00  0.00    -0.650 OA
BRANCH   3   5
HETATM    5  O   UNK N   1      34.715  15.723  11.561  0.00  0.00    -0.776 OA
HETATM    6  H   UNK N   1      33.792  15.681  11.712  0.00  0.00     0.167 HD
ENDBRANCH   3   5
ENDBRANCH   2   3
ENDBRANCH   1   2
BRANCH   1   7
HETATM    7  C   UNK N   1      33.060  17.535   8.398  0.00  0.00     0.272 C 
BRANCH   7   8
HETATM    8  C   UNK N   1      34.201  18.223   7.682  0.00  0.00     0.174 C 
HETATM    9  O   UNK N   1      34.445  17.990   6.508  0.00  0.00    -0.648 OA
BRANCH   8  10
HETATM   10  O   UNK N   1      34.965  19.106   8.352  0.00  0.00    -0.774 OA
HETATM   11  H   UNK N   1      34.597  19.917   8.644  0.00  0.00     0.167 HD
ENDBRANCH   8  10
ENDBRANCH   7   8
BRANCH   7  12
HETATM   12  O   UNK N   1      31.906  17.628   7.612  0.00  0.00    -0.223 OA
HETATM   13 Ca   UNK N   1      30.388  16.288   8.683  0.00  0.00     0.000 Ca
ENDBRANCH   7  12
ENDBRANCH   1   7
BRANCH   1  14
HETATM   14  C   UNK N   1      32.870  15.133   7.680  0.00  0.00     0.147 C 
HETATM   15  O   UNK N   1      31.992  14.304   7.879  0.00  0.00    -0.650 OA
BRANCH  14  16
HETATM   16  O   UNK N   1      33.439  15.208   6.462  0.00  0.00    -0.776 OA
HETATM   17  H   UNK N   1      33.238  15.663   5.669  0.00  0.00     0.167 HD
ENDBRANCH  14  16
ENDBRANCH   1  14
TORSDOF 9
ENDMDL
MODEL 9
REMARK VINA RESULT:      -4.3     12.088     14.200
REMARK  9 active torsions:
REMARK  status: ('A' for Active; 'I' for Inactive)
REMARK    1  A    between atoms: C_2  and  C_1 
REMARK    2  A    between atoms: C_3  and  C_1 
REMARK    3  A    between atoms: C_4  and  C_2 
REMARK    4  A    between atoms: C_2  and  C_5 
REMARK    5  A    between atoms: O_8  and  C_3 
REMARK    6  A    between atoms: C_6  and  C_4 
REMARK    7  A    between atoms: C_4  and  O_14 
REMARK    8  A    between atoms: O_10  and  C_5 
REMARK    9  A    between atoms: O_12  and  C_6 
ROOT
HETATM    1  C   UNK N   1      21.325  18.549   3.845  0.00  0.00     0.136 C 
ENDROOT
BRANCH   1   2
HETATM    2  C   UNK N   1      20.338  17.412   3.512  0.00  0.00     0.128 C 
BRANCH   2   3
HETATM    3  C   UNK N   1      20.509  16.906   2.110  0.00  0.00     0.140 C 
HETATM    4  O   UNK N   1      21.220  15.941   1.882  0.00  0.00    -0.650 OA
BRANCH   3   5
HETATM    5  O   UNK N   1      19.888  17.536   1.094  0.00  0.00    -0.776 OA
HETATM    6  H   UNK N   1      18.953  17.560   1.060  0.00  0.00     0.167 HD
ENDBRANCH   3   5
ENDBRANCH   2   3
ENDBRANCH   1   2
BRANCH   1   7
HETATM    7  C   UNK N   1      20.694  19.930   3.544  0.00  0.00     0.272 C 
BRANCH   7   8
HETATM    8  C   UNK N   1      21.551  20.850   2.703  0.00  0.00     0.174 C 
HETATM    9  O   UNK N   1      22.761  20.909   2.860  0.00  0.00    -0.648 OA
BRANCH   8  10
HETATM   10  O   UNK N   1      20.969  21.620   1.765  0.00  0.00    -0.774 OA
HETATM   11  H   UNK N   1      20.781  21.266   0.918  0.00  0.00     0.167 HD
ENDBRANCH   8  10
ENDBRANCH   7   8
BRANCH   7  12
HETATM   12  O   UNK N   1      19.450  19.771   2.924  0.00  0.00    -0.223 OA
HETATM   13 Ca   UNK N   1      19.924  19.853   0.684  0.00  0.00     0.000 Ca
ENDBRANCH   7  12
ENDBRANCH   1   7
BRANCH   1  14
HETATM   14  C   UNK N   1      21.766  18.475   5.293  0.00  0.00     0.147 C 
HETATM   15  O   UNK N   1      21.024  18.842   6.195  0.00  0.00    -0.650 OA
BRANCH  14  16
HETATM   16  O   UNK N   1      22.993  18.013   5.598  0.00  0.00    -0.776 OA
HETATM   17  H   UNK N   1      23.850  18.389   5.620  0.00  0.00     0.167 HD
ENDBRANCH  14  16
ENDBRANCH   1  14
TORSDOF 9
ENDMDL
