MODEL 1
REMARK VINA RESULT:      -7.8      0.000      0.000
REMARK  15 active torsions:
REMARK  status: ('A' for Active; 'I' for Inactive)
REMARK    1  A    between atoms: C_2  and  C_3 
REMARK    2  A    between atoms: C_3  and  C_4 
REMARK    3  A    between atoms: C_4  and  C_5 
REMARK    4  A    between atoms: C_5  and  C_6 
REMARK    5  A    between atoms: C_9  and  C_12 
REMARK       I    between atoms: C_12  and  N_14 
REMARK    6  A    between atoms: N_14  and  C_15 
REMARK    7  A    between atoms: C_18  and  S_21 
REMARK    8  A    between atoms: S_21  and  N_24 
REMARK    9  A    between atoms: N_24  and  C_25 
REMARK   10  A    between atoms: C_33  and  N_24 
REMARK   11  A    between atoms: C_25  and  C_26 
REMARK   12  A    between atoms: C_26  and  N_27 
REMARK   13  A    between atoms: C_33  and  C_34 
REMARK   14  A    between atoms: C_33  and  C_37 
REMARK       I    between atoms: C_37  and  N_39 
REMARK   15  A    between atoms: N_39  and  O_40 
ROOT
HETATM    1  S   UNK N   1      33.462  13.961   8.432  0.00  0.00     0.244 S 
HETATM    2  O   UNK N   1      33.623  12.734   7.518  0.00  0.00    -0.206 OA
HETATM    3  O   UNK N   1      31.986  13.821   8.838  0.00  0.00    -0.206 OA
ENDROOT
BRANCH   1   4
HETATM    4  C   UNK N   1      34.504  13.878   9.839  0.00  0.00     0.074 C 
HETATM    5  C   UNK N   1      34.421  14.911  10.760  0.00  0.00     0.027 C 
HETATM    6  C   UNK N   1      34.917  14.743  12.021  0.00  0.00     0.031 C 
HETATM    7  C   UNK N   1      35.461  13.525  12.383  0.00  0.00     0.035 C 
HETATM    8  C   UNK N   1      35.676  12.525  11.417  0.00  0.00     0.031 C 
HETATM    9  C   UNK N   1      35.196  12.707  10.130  0.00  0.00     0.027 C 
BRANCH   7  10
HETATM   10  N   UNK N   1      35.037  13.104  13.635  0.00  0.00    -0.323 N 
HETATM   11  C   UNK N   1      35.905  13.228  14.682  0.00  0.00     0.256 C 
HETATM   12  O   UNK N   1      36.970  13.832  14.572  0.00  0.00    -0.267 OA
HETATM   13  H   UNK N   1      34.138  12.726  13.764  0.00  0.00     0.169 HD
BRANCH  11  14
HETATM   14  C   UNK N   1      35.519  12.684  15.937  0.00  0.00     0.032 A 
HETATM   15  C   UNK N   1      35.182  13.566  16.962  0.00  0.00     0.017 A 
HETATM   16  C   UNK N   1      35.082  13.107  18.260  0.00  0.00     0.008 A 
HETATM   17  C   UNK N   1      35.367  11.773  18.535  0.00  0.00    -0.058 A 
HETATM   18  C   UNK N   1      35.666  10.882  17.493  0.00  0.00     0.008 A 
HETATM   19  C   UNK N   1      35.719  11.332  16.184  0.00  0.00     0.017 A 
BRANCH  17  20
HETATM   20  C   UNK N   1      35.512  11.364  19.955  0.00  0.00     0.038 C 
BRANCH  20  21
HETATM   21  C   UNK N   1      35.186   9.906  20.226  0.00  0.00     0.005 C 
BRANCH  21  22
HETATM   22  C   UNK N   1      33.743   9.639  20.671  0.00  0.00    -0.000 C 
BRANCH  22  23
HETATM   23  C   UNK N   1      33.204  10.580  21.753  0.00  0.00    -0.005 C 
HETATM   24  C   UNK N   1      32.569   9.832  22.908  0.00  0.00     0.005 C 
ENDBRANCH  22  23
ENDBRANCH  21  22
ENDBRANCH  20  21
ENDBRANCH  17  20
ENDBRANCH  11  14
ENDBRANCH   7  10
ENDBRANCH   1   4
BRANCH   1  25
HETATM   25  N   UNK N   1      33.534  15.401   7.412  0.00  0.00    -0.191 NA
BRANCH  25  26
HETATM   26  C   UNK N   1      34.947  15.639   7.169  0.00  0.00     0.139 C 
BRANCH  26  27
HETATM   27  C   UNK N   1      35.319  15.146   5.790  0.00  0.00     0.288 C 
BRANCH  27  28
HETATM   28  N   UNK N   1      34.117  14.860   5.034  0.00  0.00     0.093 N 
HETATM   29  C   UNK N   1      34.419  13.698   4.199  0.00  0.00     0.298 C 
HETATM   30  C   UNK N   1      33.292  13.493   3.187  0.00  0.00     0.198 C 
HETATM   31  O   UNK N   1      33.209  14.625   2.359  0.00  0.00    -0.388 OA
HETATM   32  C   UNK N   1      32.757  15.681   3.170  0.00  0.00     0.198 C 
HETATM   33  C   UNK N   1      33.841  16.029   4.191  0.00  0.00     0.298 C 
ENDBRANCH  27  28
ENDBRANCH  26  27
ENDBRANCH  25  26
BRANCH  25  34
HETATM   34  C   UNK N   1      33.035  16.626   8.070  0.00  0.00     0.171 C 
BRANCH  34  35
HETATM   35  C   UNK N   1      31.669  17.154   7.587  0.00  0.00     0.005 C 
HETATM   36  C   UNK N   1      30.987  16.216   6.606  0.00  0.00     0.011 C 
HETATM   37  C   UNK N   1      30.719  17.569   8.697  0.00  0.00     0.011 C 
ENDBRANCH  34  35
BRANCH  34  38
HETATM   38  C   UNK N   1      34.092  17.700   7.984  0.00  0.00     0.260 C 
HETATM   39  O   UNK N   1      34.337  18.233   6.921  0.00  0.00    -0.270 OA
HETATM   40  N   UNK N   1      34.764  18.055   9.101  0.00  0.00    -0.236 N 
HETATM   41  H   UNK N   1      34.555  17.621   9.959  0.00  0.00     0.197 HD
BRANCH  40  42
HETATM   42  O   UNK N   1      35.715  19.001   9.043  0.00  0.00    -0.287 OA
HETATM   43  H   UNK N   1      36.081  19.388   9.853  0.00  0.00     0.244 HD
ENDBRANCH  40  42
ENDBRANCH  34  38
ENDBRANCH  25  34
ENDBRANCH   1  25
TORSDOF 15
ENDMDL
MODEL 2
REMARK VINA RESULT:      -7.8      4.439     11.483
REMARK  15 active torsions:
REMARK  status: ('A' for Active; 'I' for Inactive)
REMARK    1  A    between atoms: C_2  and  C_3 
REMARK    2  A    between atoms: C_3  and  C_4 
REMARK    3  A    between atoms: C_4  and  C_5 
REMARK    4  A    between atoms: C_5  and  C_6 
REMARK    5  A    between atoms: C_9  and  C_12 
REMARK       I    between atoms: C_12  and  N_14 
REMARK    6  A    between atoms: N_14  and  C_15 
REMARK    7  A    between atoms: C_18  and  S_21 
REMARK    8  A    between atoms: S_21  and  N_24 
REMARK    9  A    between atoms: N_24  and  C_25 
REMARK   10  A    between atoms: C_33  and  N_24 
REMARK   11  A    between atoms: C_25  and  C_26 
REMARK   12  A    between atoms: C_26  and  N_27 
REMARK   13  A    between atoms: C_33  and  C_34 
REMARK   14  A    between atoms: C_33  and  C_37 
REMARK       I    between atoms: C_37  and  N_39 
REMARK   15  A    between atoms: N_39  and  O_40 
ROOT
HETATM    1  S   UNK N   1      34.956  14.957   5.959  0.00  0.00     0.244 S 
HETATM    2  O   UNK N   1      34.738  13.435   5.923  0.00  0.00    -0.206 OA
HETATM    3  O   UNK N   1      36.448  15.038   5.599  0.00  0.00    -0.206 OA
ENDROOT
BRANCH   1   4
HETATM    4  C   UNK N   1      33.983  15.792   4.764  0.00  0.00     0.074 C 
HETATM    5  C   UNK N   1      33.396  15.027   3.768  0.00  0.00     0.027 C 
HETATM    6  C   UNK N   1      32.360  15.536   3.036  0.00  0.00     0.031 C 
HETATM    7  C   UNK N   1      31.877  16.798   3.326  0.00  0.00     0.035 C 
HETATM    8  C   UNK N   1      32.557  17.630   4.235  0.00  0.00     0.031 C 
HETATM    9  C   UNK N   1      33.624  17.122   4.957  0.00  0.00     0.027 C 
BRANCH   7  10
HETATM   10  N   UNK N   1      30.491  16.843   3.353  0.00  0.00    -0.323 N 
HETATM   11  C   UNK N   1      29.850  16.261   4.409  0.00  0.00     0.256 C 
HETATM   12  O   UNK N   1      30.464  15.845   5.389  0.00  0.00    -0.267 OA
HETATM   13  H   UNK N   1      29.985  17.280   2.631  0.00  0.00     0.169 HD
BRANCH  11  14
HETATM   14  C   UNK N   1      28.430  16.198   4.375  0.00  0.00     0.032 A 
HETATM   15  C   UNK N   1      27.800  16.187   3.133  0.00  0.00     0.017 A 
HETATM   16  C   UNK N   1      26.441  16.414   3.048  0.00  0.00     0.008 A 
HETATM   17  C   UNK N   1      25.724  16.700   4.205  0.00  0.00    -0.058 A 
HETATM   18  C   UNK N   1      26.357  16.670   5.458  0.00  0.00     0.008 A 
HETATM   19  C   UNK N   1      27.713  16.395   5.548  0.00  0.00     0.017 A 
BRANCH  17  20
HETATM   20  C   UNK N   1      24.333  17.199   4.065  0.00  0.00     0.038 C 
BRANCH  20  21
HETATM   21  C   UNK N   1      24.146  18.657   4.446  0.00  0.00     0.005 C 
BRANCH  21  22
HETATM   22  C   UNK N   1      24.959  19.652   3.610  0.00  0.00    -0.000 C 
BRANCH  22  23
HETATM   23  C   UNK N   1      26.036  20.428   4.374  0.00  0.00    -0.005 C 
HETATM   24  C   UNK N   1      27.436  19.940   4.058  0.00  0.00     0.005 C 
ENDBRANCH  22  23
ENDBRANCH  21  22
ENDBRANCH  20  21
ENDBRANCH  17  20
ENDBRANCH  11  14
ENDBRANCH   7  10
ENDBRANCH   1   4
BRANCH   1  25
HETATM   25  N   UNK N   1      34.851  15.473   7.644  0.00  0.00    -0.191 NA
BRANCH  25  26
HETATM   26  C   UNK N   1      35.214  14.308   8.435  0.00  0.00     0.139 C 
BRANCH  26  27
HETATM   27  C   UNK N   1      36.613  14.475   8.980  0.00  0.00     0.288 C 
BRANCH  27  28
HETATM   28  N   UNK N   1      36.630  14.138  10.389  0.00  0.00     0.093 N 
HETATM   29  C   UNK N   1      35.704  13.019  10.558  0.00  0.00     0.298 C 
HETATM   30  C   UNK N   1      35.471  12.773  12.048  0.00  0.00     0.198 C 
HETATM   31  O   UNK N   1      34.889  13.920  12.615  0.00  0.00    -0.388 OA
HETATM   32  C   UNK N   1      35.872  14.925  12.581  0.00  0.00     0.198 C 
HETATM   33  C   UNK N   1      36.145  15.310  11.126  0.00  0.00     0.298 C 
ENDBRANCH  27  28
ENDBRANCH  26  27
ENDBRANCH  25  26
BRANCH  25  34
HETATM   34  C   UNK N   1      33.485  15.832   8.076  0.00  0.00     0.171 C 
BRANCH  34  35
HETATM   35  C   UNK N   1      33.306  17.238   8.683  0.00  0.00     0.005 C 
HETATM   36  C   UNK N   1      34.453  18.176   8.346  0.00  0.00     0.011 C 
HETATM   37  C   UNK N   1      31.964  17.890   8.397  0.00  0.00     0.011 C 
ENDBRANCH  34  35
BRANCH  34  38
HETATM   38  C   UNK N   1      32.965  14.769   9.012  0.00  0.00     0.260 C 
HETATM   39  O   UNK N   1      32.861  14.998  10.200  0.00  0.00    -0.270 OA
HETATM   40  N   UNK N   1      32.624  13.559   8.514  0.00  0.00    -0.236 N 
HETATM   41  H   UNK N   1      32.707  13.385   7.549  0.00  0.00     0.197 HD
BRANCH  40  42
HETATM   42  O   UNK N   1      32.170  12.597   9.332  0.00  0.00    -0.287 OA
HETATM   43  H   UNK N   1      31.722  11.814   8.977  0.00  0.00     0.244 HD
ENDBRANCH  40  42
ENDBRANCH  34  38
ENDBRANCH  25  34
ENDBRANCH   1  25
TORSDOF 15
ENDMDL
MODEL 3
REMARK VINA RESULT:      -7.7      1.537      2.252
REMARK  15 active torsions:
REMARK  status: ('A' for Active; 'I' for Inactive)
REMARK    1  A    between atoms: C_2  and  C_3 
REMARK    2  A    between atoms: C_3  and  C_4 
REMARK    3  A    between atoms: C_4  and  C_5 
REMARK    4  A    between atoms: C_5  and  C_6 
REMARK    5  A    between atoms: C_9  and  C_12 
REMARK       I    between atoms: C_12  and  N_14 
REMARK    6  A    between atoms: N_14  and  C_15 
REMARK    7  A    between atoms: C_18  and  S_21 
REMARK    8  A    between atoms: S_21  and  N_24 
REMARK    9  A    between atoms: N_24  and  C_25 
REMARK   10  A    between atoms: C_33  and  N_24 
REMARK   11  A    between atoms: C_25  and  C_26 
REMARK   12  A    between atoms: C_26  and  N_27 
REMARK   13  A    between atoms: C_33  and  C_34 
REMARK   14  A    between atoms: C_33  and  C_37 
REMARK       I    between atoms: C_37  and  N_39 
REMARK   15  A    between atoms: N_39  and  O_40 
ROOT
HETATM    1  S   UNK N   1      33.798  13.653   8.407  0.00  0.00     0.244 S 
HETATM    2  O   UNK N   1      34.110  12.454   7.494  0.00  0.00    -0.206 OA
HETATM    3  O   UNK N   1      32.323  13.378   8.739  0.00  0.00    -0.206 OA
ENDROOT
BRANCH   1   4
HETATM    4  C   UNK N   1      34.774  13.646   9.863  0.00  0.00     0.074 C 
HETATM    5  C   UNK N   1      34.566  14.666  10.778  0.00  0.00     0.027 C 
HETATM    6  C   UNK N   1      35.013  14.533  12.062  0.00  0.00     0.031 C 
HETATM    7  C   UNK N   1      35.633  13.360  12.450  0.00  0.00     0.035 C 
HETATM    8  C   UNK N   1      35.972  12.384  11.495  0.00  0.00     0.031 C 
HETATM    9  C   UNK N   1      35.542  12.532  10.187  0.00  0.00     0.027 C 
BRANCH   7  10
HETATM   10  N   UNK N   1      35.183  12.903  13.680  0.00  0.00    -0.323 N 
HETATM   11  C   UNK N   1      35.909  13.229  14.790  0.00  0.00     0.256 C 
HETATM   12  O   UNK N   1      36.841  14.028  14.743  0.00  0.00    -0.267 OA
HETATM   13  H   UNK N   1      34.367  12.358  13.749  0.00  0.00     0.169 HD
BRANCH  11  14
HETATM   14  C   UNK N   1      35.520  12.658  16.033  0.00  0.00     0.032 A 
HETATM   15  C   UNK N   1      35.295  13.514  17.109  0.00  0.00     0.017 A 
HETATM   16  C   UNK N   1      35.200  13.001  18.388  0.00  0.00     0.008 A 
HETATM   17  C   UNK N   1      35.378  11.637  18.590  0.00  0.00    -0.058 A 
HETATM   18  C   UNK N   1      35.564  10.775  17.497  0.00  0.00     0.008 A 
HETATM   19  C   UNK N   1      35.612  11.283  16.209  0.00  0.00     0.017 A 
BRANCH  17  20
HETATM   20  C   UNK N   1      35.536  11.148  19.983  0.00  0.00     0.038 C 
BRANCH  20  21
HETATM   21  C   UNK N   1      35.196   9.680  20.176  0.00  0.00     0.005 C 
BRANCH  21  22
HETATM   22  C   UNK N   1      33.696   9.362  20.189  0.00  0.00    -0.000 C 
BRANCH  22  23
HETATM   23  C   UNK N   1      33.080   9.152  21.576  0.00  0.00    -0.005 C 
HETATM   24  C   UNK N   1      32.607  10.448  22.203  0.00  0.00     0.005 C 
ENDBRANCH  22  23
ENDBRANCH  21  22
ENDBRANCH  20  21
ENDBRANCH  17  20
ENDBRANCH  11  14
ENDBRANCH   7  10
ENDBRANCH   1   4
BRANCH   1  25
HETATM   25  N   UNK N   1      33.791  15.103   7.401  0.00  0.00    -0.191 NA
BRANCH  25  26
HETATM   26  C   UNK N   1      35.189  15.422   7.162  0.00  0.00     0.139 C 
BRANCH  26  27
HETATM   27  C   UNK N   1      35.624  14.852   5.831  0.00  0.00     0.288 C 
BRANCH  27  28
HETATM   28  N   UNK N   1      37.049  14.591   5.855  0.00  0.00     0.093 N 
HETATM   29  C   UNK N   1      37.338  13.759   4.688  0.00  0.00     0.298 C 
HETATM   30  C   UNK N   1      38.767  13.228   4.783  0.00  0.00     0.198 C 
HETATM   31  O   UNK N   1      38.884  12.432   5.935  0.00  0.00    -0.388 OA
HETATM   32  C   UNK N   1      38.764  13.300   7.034  0.00  0.00     0.198 C 
HETATM   33  C   UNK N   1      37.337  13.849   7.088  0.00  0.00     0.298 C 
ENDBRANCH  27  28
ENDBRANCH  26  27
ENDBRANCH  25  26
BRANCH  25  34
HETATM   34  C   UNK N   1      33.226  16.293   8.069  0.00  0.00     0.171 C 
BRANCH  34  35
HETATM   35  C   UNK N   1      31.733  16.581   7.807  0.00  0.00     0.005 C 
HETATM   36  C   UNK N   1      31.268  17.887   8.429  0.00  0.00     0.011 C 
HETATM   37  C   UNK N   1      31.313  16.487   6.351  0.00  0.00     0.011 C 
ENDBRANCH  34  35
BRANCH  34  38
HETATM   38  C   UNK N   1      34.074  17.497   7.741  0.00  0.00     0.260 C 
HETATM   39  O   UNK N   1      34.212  17.852   6.588  0.00  0.00    -0.270 OA
HETATM   40  N   UNK N   1      34.683  18.168   8.744  0.00  0.00    -0.236 N 
HETATM   41  H   UNK N   1      34.562  17.875   9.676  0.00  0.00     0.197 HD
BRANCH  40  42
HETATM   42  O   UNK N   1      35.451  19.235   8.471  0.00  0.00    -0.287 OA
HETATM   43  H   UNK N   1      35.803  19.378   7.579  0.00  0.00     0.244 HD
ENDBRANCH  40  42
ENDBRANCH  34  38
ENDBRANCH  25  34
ENDBRANCH   1  25
TORSDOF 15
ENDMDL
MODEL 4
REMARK VINA RESULT:      -7.6      1.634      2.261
REMARK  15 active torsions:
REMARK  status: ('A' for Active; 'I' for Inactive)
REMARK    1  A    between atoms: C_2  and  C_3 
REMARK    2  A    between atoms: C_3  and  C_4 
REMARK    3  A    between atoms: C_4  and  C_5 
REMARK    4  A    between atoms: C_5  and  C_6 
REMARK    5  A    between atoms: C_9  and  C_12 
REMARK       I    between atoms: C_12  and  N_14 
REMARK    6  A    between atoms: N_14  and  C_15 
REMARK    7  A    between atoms: C_18  and  S_21 
REMARK    8  A    between atoms: S_21  and  N_24 
REMARK    9  A    between atoms: N_24  and  C_25 
REMARK   10  A    between atoms: C_33  and  N_24 
REMARK   11  A    between atoms: C_25  and  C_26 
REMARK   12  A    between atoms: C_26  and  N_27 
REMARK   13  A    between atoms: C_33  and  C_34 
REMARK   14  A    between atoms: C_33  and  C_37 
REMARK       I    between atoms: C_37  and  N_39 
REMARK   15  A    between atoms: N_39  and  O_40 
ROOT
HETATM    1  S   UNK N   1      33.157  14.509   8.994  0.00  0.00     0.244 S 
HETATM    2  O   UNK N   1      32.702  13.074   8.680  0.00  0.00    -0.206 OA
HETATM    3  O   UNK N   1      31.996  14.988   9.881  0.00  0.00    -0.206 OA
ENDROOT
BRANCH   1   4
HETATM    4  C   UNK N   1      34.670  14.544   9.879  0.00  0.00     0.074 C 
HETATM    5  C   UNK N   1      34.817  15.514  10.859  0.00  0.00     0.027 C 
HETATM    6  C   UNK N   1      35.788  15.381  11.811  0.00  0.00     0.031 C 
HETATM    7  C   UNK N   1      36.589  14.256  11.815  0.00  0.00     0.035 C 
HETATM    8  C   UNK N   1      36.540  13.341  10.746  0.00  0.00     0.031 C 
HETATM    9  C   UNK N   1      35.572  13.491   9.766  0.00  0.00     0.027 C 
BRANCH   7  10
HETATM   10  N   UNK N   1      36.753  13.724  13.085  0.00  0.00    -0.323 N 
HETATM   11  C   UNK N   1      35.675  13.127  13.675  0.00  0.00     0.256 C 
HETATM   12  O   UNK N   1      34.633  12.919  13.059  0.00  0.00    -0.267 OA
HETATM   13  H   UNK N   1      37.620  13.776  13.548  0.00  0.00     0.169 HD
BRANCH  11  14
HETATM   14  C   UNK N   1      35.807  12.694  15.023  0.00  0.00     0.032 A 
HETATM   15  C   UNK N   1      36.307  11.415  15.257  0.00  0.00     0.017 A 
HETATM   16  C   UNK N   1      36.186  10.848  16.510  0.00  0.00     0.008 A 
HETATM   17  C   UNK N   1      35.520  11.545  17.513  0.00  0.00    -0.058 A 
HETATM   18  C   UNK N   1      35.054  12.848  17.281  0.00  0.00     0.008 A 
HETATM   19  C   UNK N   1      35.218  13.437  16.037  0.00  0.00     0.017 A 
BRANCH  17  20
HETATM   20  C   UNK N   1      35.169  10.819  18.760  0.00  0.00     0.038 C 
BRANCH  20  21
HETATM   21  C   UNK N   1      34.572   9.441  18.538  0.00  0.00     0.005 C 
BRANCH  21  22
HETATM   22  C   UNK N   1      34.251   8.663  19.820  0.00  0.00    -0.000 C 
BRANCH  22  23
HETATM   23  C   UNK N   1      33.008   9.134  20.581  0.00  0.00    -0.005 C 
HETATM   24  C   UNK N   1      31.726   8.569  20.003  0.00  0.00     0.005 C 
ENDBRANCH  22  23
ENDBRANCH  21  22
ENDBRANCH  20  21
ENDBRANCH  17  20
ENDBRANCH  11  14
ENDBRANCH   7  10
ENDBRANCH   1   4
BRANCH   1  25
HETATM   25  N   UNK N   1      33.029  15.449   7.505  0.00  0.00    -0.191 NA
BRANCH  25  26
HETATM   26  C   UNK N   1      34.383  15.550   6.986  0.00  0.00     0.139 C 
BRANCH  26  27
HETATM   27  C   UNK N   1      34.472  14.857   5.647  0.00  0.00     0.288 C 
BRANCH  27  28
HETATM   28  N   UNK N   1      35.846  14.479   5.384  0.00  0.00     0.093 N 
HETATM   29  C   UNK N   1      35.811  13.099   4.901  0.00  0.00     0.298 C 
HETATM   30  C   UNK N   1      37.233  12.544   4.847  0.00  0.00     0.198 C 
HETATM   31  O   UNK N   1      37.775  12.546   6.144  0.00  0.00    -0.388 OA
HETATM   32  C   UNK N   1      37.945  13.895   6.503  0.00  0.00     0.198 C 
HETATM   33  C   UNK N   1      36.571  14.550   6.658  0.00  0.00     0.298 C 
ENDBRANCH  27  28
ENDBRANCH  26  27
ENDBRANCH  25  26
BRANCH  25  34
HETATM   34  C   UNK N   1      32.582  16.841   7.712  0.00  0.00     0.171 C 
BRANCH  34  35
HETATM   35  C   UNK N   1      31.368  17.302   6.880  0.00  0.00     0.005 C 
HETATM   36  C   UNK N   1      31.046  16.358   5.734  0.00  0.00     0.011 C 
HETATM   37  C   UNK N   1      30.124  17.620   7.692  0.00  0.00     0.011 C 
ENDBRANCH  34  35
BRANCH  34  38
HETATM   38  C   UNK N   1      33.754  17.773   7.520  0.00  0.00     0.260 C 
HETATM   39  O   UNK N   1      34.150  18.034   6.402  0.00  0.00    -0.270 OA
HETATM   40  N   UNK N   1      34.359  18.306   8.604  0.00  0.00    -0.236 N 
HETATM   41  H   UNK N   1      34.027  18.092   9.506  0.00  0.00     0.197 HD
BRANCH  40  42
HETATM   42  O   UNK N   1      35.409  19.128   8.454  0.00  0.00    -0.287 OA
HETATM   43  H   UNK N   1      36.316  18.786   8.494  0.00  0.00     0.244 HD
ENDBRANCH  40  42
ENDBRANCH  34  38
ENDBRANCH  25  34
ENDBRANCH   1  25
TORSDOF 15
ENDMDL
MODEL 5
REMARK VINA RESULT:      -7.6      2.053      2.889
REMARK  15 active torsions:
REMARK  status: ('A' for Active; 'I' for Inactive)
REMARK    1  A    between atoms: C_2  and  C_3 
REMARK    2  A    between atoms: C_3  and  C_4 
REMARK    3  A    between atoms: C_4  and  C_5 
REMARK    4  A    between atoms: C_5  and  C_6 
REMARK    5  A    between atoms: C_9  and  C_12 
REMARK       I    between atoms: C_12  and  N_14 
REMARK    6  A    between atoms: N_14  and  C_15 
REMARK    7  A    between atoms: C_18  and  S_21 
REMARK    8  A    between atoms: S_21  and  N_24 
REMARK    9  A    between atoms: N_24  and  C_25 
REMARK   10  A    between atoms: C_33  and  N_24 
REMARK   11  A    between atoms: C_25  and  C_26 
REMARK   12  A    between atoms: C_26  and  N_27 
REMARK   13  A    between atoms: C_33  and  C_34 
REMARK   14  A    between atoms: C_33  and  C_37 
REMARK       I    between atoms: C_37  and  N_39 
REMARK   15  A    between atoms: N_39  and  O_40 
ROOT
HETATM    1  S   UNK N   1      34.987  15.038   9.764  0.00  0.00     0.244 S 
HETATM    2  O   UNK N   1      34.073  15.829  10.715  0.00  0.00    -0.206 OA
HETATM    3  O   UNK N   1      36.204  15.975   9.696  0.00  0.00    -0.206 OA
ENDROOT
BRANCH   1   4
HETATM    4  C   UNK N   1      35.439  13.480  10.426  0.00  0.00     0.074 C 
HETATM    5  C   UNK N   1      36.584  13.423  11.206  0.00  0.00     0.027 C 
HETATM    6  C   UNK N   1      36.796  12.356  12.032  0.00  0.00     0.031 C 
HETATM    7  C   UNK N   1      35.843  11.359  12.115  0.00  0.00     0.035 C 
HETATM    8  C   UNK N   1      34.751  11.339  11.227  0.00  0.00     0.031 C 
HETATM    9  C   UNK N   1      34.552  12.410  10.370  0.00  0.00     0.027 C 
BRANCH   7  10
HETATM   10  N   UNK N   1      35.590  10.973  13.424  0.00  0.00    -0.323 N 
HETATM   11  C   UNK N   1      34.968  11.867  14.248  0.00  0.00     0.256 C 
HETATM   12  O   UNK N   1      34.500  12.921  13.824  0.00  0.00    -0.267 OA
HETATM   13  H   UNK N   1      35.853  10.082  13.748  0.00  0.00     0.169 HD
BRANCH  11  14
HETATM   14  C   UNK N   1      34.821  11.520  15.619  0.00  0.00     0.032 A 
HETATM   15  C   UNK N   1      35.027  12.513  16.575  0.00  0.00     0.017 A 
HETATM   16  C   UNK N   1      35.178  12.168  17.903  0.00  0.00     0.008 A 
HETATM   17  C   UNK N   1      35.172  10.825  18.264  0.00  0.00    -0.058 A 
HETATM   18  C   UNK N   1      34.925   9.833  17.302  0.00  0.00     0.008 A 
HETATM   19  C   UNK N   1      34.724  10.181  15.976  0.00  0.00     0.017 A 
BRANCH  17  20
HETATM   20  C   UNK N   1      35.597  10.464  19.640  0.00  0.00     0.038 C 
BRANCH  20  21
HETATM   21  C   UNK N   1      34.453  10.221  20.608  0.00  0.00     0.005 C 
BRANCH  21  22
HETATM   22  C   UNK N   1      33.512   9.074  20.220  0.00  0.00    -0.000 C 
BRANCH  22  23
HETATM   23  C   UNK N   1      32.183   9.028  20.981  0.00  0.00    -0.005 C 
HETATM   24  C   UNK N   1      31.062   8.432  20.155  0.00  0.00     0.005 C 
ENDBRANCH  22  23
ENDBRANCH  21  22
ENDBRANCH  20  21
ENDBRANCH  17  20
ENDBRANCH  11  14
ENDBRANCH   7  10
ENDBRANCH   1   4
BRANCH   1  25
HETATM   25  N   UNK N   1      34.262  15.094   8.155  0.00  0.00    -0.191 NA
BRANCH  25  26
HETATM   26  C   UNK N   1      35.370  15.272   7.231  0.00  0.00     0.139 C 
BRANCH  26  27
HETATM   27  C   UNK N   1      35.282  14.249   6.122  0.00  0.00     0.288 C 
BRANCH  27  28
HETATM   28  N   UNK N   1      36.360  13.291   6.257  0.00  0.00     0.093 N 
HETATM   29  C   UNK N   1      35.808  12.145   6.978  0.00  0.00     0.298 C 
HETATM   30  C   UNK N   1      36.942  11.206   7.385  0.00  0.00     0.198 C 
HETATM   31  O   UNK N   1      37.817  11.891   8.245  0.00  0.00    -0.388 OA
HETATM   32  C   UNK N   1      38.448  12.878   7.469  0.00  0.00     0.198 C 
HETATM   33  C   UNK N   1      37.415  13.927   7.054  0.00  0.00     0.298 C 
ENDBRANCH  27  28
ENDBRANCH  26  27
ENDBRANCH  25  26
BRANCH  25  34
HETATM   34  C   UNK N   1      33.378  16.256   7.937  0.00  0.00     0.171 C 
BRANCH  34  35
HETATM   35  C   UNK N   1      32.285  16.093   6.861  0.00  0.00     0.005 C 
HETATM   36  C   UNK N   1      31.732  14.679   6.792  0.00  0.00     0.011 C 
HETATM   37  C   UNK N   1      31.164  17.115   6.931  0.00  0.00     0.011 C 
ENDBRANCH  34  35
BRANCH  34  38
HETATM   38  C   UNK N   1      34.221  17.479   7.670  0.00  0.00     0.260 C 
HETATM   39  O   UNK N   1      34.515  17.782   6.531  0.00  0.00    -0.270 OA
HETATM   40  N   UNK N   1      34.648  18.227   8.711  0.00  0.00    -0.236 N 
HETATM   41  H   UNK N   1      34.400  17.976   9.630  0.00  0.00     0.197 HD
BRANCH  40  42
HETATM   42  O   UNK N   1      35.408  19.312   8.494  0.00  0.00    -0.287 OA
HETATM   43  H   UNK N   1      35.391  20.062   9.109  0.00  0.00     0.244 HD
ENDBRANCH  40  42
ENDBRANCH  34  38
ENDBRANCH  25  34
ENDBRANCH   1  25
TORSDOF 15
ENDMDL
MODEL 6
REMARK VINA RESULT:      -7.4      2.235      4.510
REMARK  15 active torsions:
REMARK  status: ('A' for Active; 'I' for Inactive)
REMARK    1  A    between atoms: C_2  and  C_3 
REMARK    2  A    between atoms: C_3  and  C_4 
REMARK    3  A    between atoms: C_4  and  C_5 
REMARK    4  A    between atoms: C_5  and  C_6 
REMARK    5  A    between atoms: C_9  and  C_12 
REMARK       I    between atoms: C_12  and  N_14 
REMARK    6  A    between atoms: N_14  and  C_15 
REMARK    7  A    between atoms: C_18  and  S_21 
REMARK    8  A    between atoms: S_21  and  N_24 
REMARK    9  A    between atoms: N_24  and  C_25 
REMARK   10  A    between atoms: C_33  and  N_24 
REMARK   11  A    between atoms: C_25  and  C_26 
REMARK   12  A    between atoms: C_26  and  N_27 
REMARK   13  A    between atoms: C_33  and  C_34 
REMARK   14  A    between atoms: C_33  and  C_37 
REMARK       I    between atoms: C_37  and  N_39 
REMARK   15  A    between atoms: N_39  and  O_40 
ROOT
HETATM    1  S   UNK N   1      33.531  14.495   7.273  0.00  0.00     0.244 S 
HETATM    2  O   UNK N   1      34.015  13.356   6.359  0.00  0.00    -0.206 OA
HETATM    3  O   UNK N   1      32.397  13.787   8.031  0.00  0.00    -0.206 OA
ENDROOT
BRANCH   1   4
HETATM    4  C   UNK N   1      34.781  15.028   8.381  0.00  0.00     0.074 C 
HETATM    5  C   UNK N   1      34.426  15.954   9.349  0.00  0.00     0.027 C 
HETATM    6  C   UNK N   1      35.224  16.139  10.443  0.00  0.00     0.031 C 
HETATM    7  C   UNK N   1      36.360  15.367  10.595  0.00  0.00     0.035 C 
HETATM    8  C   UNK N   1      36.799  14.530   9.552  0.00  0.00     0.031 C 
HETATM    9  C   UNK N   1      36.002  14.364   8.431  0.00  0.00     0.027 C 
BRANCH   7  10
HETATM   10  N   UNK N   1      36.505  14.884  11.887  0.00  0.00    -0.323 N 
HETATM   11  C   UNK N   1      35.738  13.819  12.264  0.00  0.00     0.256 C 
HETATM   12  O   UNK N   1      35.051  13.197  11.456  0.00  0.00    -0.267 OA
HETATM   13  H   UNK N   1      37.141  15.297  12.514  0.00  0.00     0.169 HD
BRANCH  11  14
HETATM   14  C   UNK N   1      35.794  13.402  13.622  0.00  0.00     0.032 A 
HETATM   15  C   UNK N   1      34.827  12.509  14.078  0.00  0.00     0.017 A 
HETATM   16  C   UNK N   1      34.667  12.301  15.434  0.00  0.00     0.008 A 
HETATM   17  C   UNK N   1      35.444  13.026  16.331  0.00  0.00    -0.058 A 
HETATM   18  C   UNK N   1      36.444  13.894  15.864  0.00  0.00     0.008 A 
HETATM   19  C   UNK N   1      36.638  14.066  14.503  0.00  0.00     0.017 A 
BRANCH  17  20
HETATM   20  C   UNK N   1      35.078  12.987  17.769  0.00  0.00     0.038 C 
BRANCH  20  21
HETATM   21  C   UNK N   1      35.234  11.625  18.421  0.00  0.00     0.005 C 
BRANCH  21  22
HETATM   22  C   UNK N   1      35.369  11.652  19.949  0.00  0.00    -0.000 C 
BRANCH  22  23
HETATM   23  C   UNK N   1      34.856  10.404  20.676  0.00  0.00    -0.005 C 
HETATM   24  C   UNK N   1      34.191   9.419  19.737  0.00  0.00     0.005 C 
ENDBRANCH  22  23
ENDBRANCH  21  22
ENDBRANCH  20  21
ENDBRANCH  17  20
ENDBRANCH  11  14
ENDBRANCH   7  10
ENDBRANCH   1   4
BRANCH   1  25
HETATM   25  N   UNK N   1      32.736  15.698   6.255  0.00  0.00    -0.191 NA
BRANCH  25  26
HETATM   26  C   UNK N   1      31.405  15.868   6.814  0.00  0.00     0.139 C 
BRANCH  26  27
HETATM   27  C   UNK N   1      31.371  17.099   7.690  0.00  0.00     0.288 C 
BRANCH  27  28
HETATM   28  N   UNK N   1      30.026  17.635   7.725  0.00  0.00     0.093 N 
HETATM   29  C   UNK N   1      29.607  17.613   9.126  0.00  0.00     0.298 C 
HETATM   30  C   UNK N   1      28.113  17.920   9.214  0.00  0.00     0.198 C 
HETATM   31  O   UNK N   1      27.399  16.925   8.522  0.00  0.00    -0.388 OA
HETATM   32  C   UNK N   1      27.705  17.090   7.160  0.00  0.00     0.198 C 
HETATM   33  C   UNK N   1      29.177  16.740   6.930  0.00  0.00     0.298 C 
ENDBRANCH  27  28
ENDBRANCH  26  27
ENDBRANCH  25  26
BRANCH  25  34
HETATM   34  C   UNK N   1      32.523  15.256   4.861  0.00  0.00     0.171 C 
BRANCH  34  35
HETATM   35  C   UNK N   1      32.638  16.344   3.773  0.00  0.00     0.005 C 
HETATM   36  C   UNK N   1      33.055  17.694   4.332  0.00  0.00     0.011 C 
HETATM   37  C   UNK N   1      33.491  15.959   2.577  0.00  0.00     0.011 C 
ENDBRANCH  34  35
BRANCH  34  38
HETATM   38  C   UNK N   1      31.202  14.533   4.766  0.00  0.00     0.260 C 
HETATM   39  O   UNK N   1      30.248  15.070   4.240  0.00  0.00    -0.270 OA
HETATM   40  N   UNK N   1      31.093  13.287   5.277  0.00  0.00    -0.236 N 
HETATM   41  H   UNK N   1      31.873  12.858   5.696  0.00  0.00     0.197 HD
BRANCH  40  42
HETATM   42  O   UNK N   1      29.923  12.632   5.211  0.00  0.00    -0.287 OA
HETATM   43  H   UNK N   1      29.605  12.266   4.371  0.00  0.00     0.244 HD
ENDBRANCH  40  42
ENDBRANCH  34  38
ENDBRANCH  25  34
ENDBRANCH   1  25
TORSDOF 15
ENDMDL
MODEL 7
REMARK VINA RESULT:      -7.3      5.258      8.300
REMARK  15 active torsions:
REMARK  status: ('A' for Active; 'I' for Inactive)
REMARK    1  A    between atoms: C_2  and  C_3 
REMARK    2  A    between atoms: C_3  and  C_4 
REMARK    3  A    between atoms: C_4  and  C_5 
REMARK    4  A    between atoms: C_5  and  C_6 
REMARK    5  A    between atoms: C_9  and  C_12 
REMARK       I    between atoms: C_12  and  N_14 
REMARK    6  A    between atoms: N_14  and  C_15 
REMARK    7  A    between atoms: C_18  and  S_21 
REMARK    8  A    between atoms: S_21  and  N_24 
REMARK    9  A    between atoms: N_24  and  C_25 
REMARK   10  A    between atoms: C_33  and  N_24 
REMARK   11  A    between atoms: C_25  and  C_26 
REMARK   12  A    between atoms: C_26  and  N_27 
REMARK   13  A    between atoms: C_33  and  C_34 
REMARK   14  A    between atoms: C_33  and  C_37 
REMARK       I    between atoms: C_37  and  N_39 
REMARK   15  A    between atoms: N_39  and  O_40 
ROOT
HETATM    1  S   UNK N   1      28.617  16.747   5.085  0.00  0.00     0.244 S 
HETATM    2  O   UNK N   1      28.801  17.199   3.627  0.00  0.00    -0.206 OA
HETATM    3  O   UNK N   1      28.588  15.221   4.907  0.00  0.00    -0.206 OA
ENDROOT
BRANCH   1   4
HETATM    4  C   UNK N   1      29.964  17.228   6.100  0.00  0.00     0.074 C 
HETATM    5  C   UNK N   1      29.688  17.548   7.420  0.00  0.00     0.027 C 
HETATM    6  C   UNK N   1      30.697  17.578   8.341  0.00  0.00     0.031 C 
HETATM    7  C   UNK N   1      31.981  17.245   7.955  0.00  0.00     0.035 C 
HETATM    8  C   UNK N   1      32.292  17.058   6.595  0.00  0.00     0.031 C 
HETATM    9  C   UNK N   1      31.271  17.054   5.658  0.00  0.00     0.027 C 
BRANCH   7  10
HETATM   10  N   UNK N   1      32.606  16.401   8.861  0.00  0.00    -0.323 N 
HETATM   11  C   UNK N   1      33.862  16.731   9.285  0.00  0.00     0.256 C 
HETATM   12  O   UNK N   1      34.375  17.813   9.009  0.00  0.00    -0.267 OA
HETATM   13  H   UNK N   1      32.159  15.587   9.186  0.00  0.00     0.169 HD
BRANCH  11  14
HETATM   14  C   UNK N   1      34.551  15.805  10.115  0.00  0.00     0.032 A 
HETATM   15  C   UNK N   1      34.203  14.459  10.031  0.00  0.00     0.017 A 
HETATM   16  C   UNK N   1      34.630  13.575  11.002  0.00  0.00     0.008 A 
HETATM   17  C   UNK N   1      35.365  14.052  12.082  0.00  0.00    -0.058 A 
HETATM   18  C   UNK N   1      35.747  15.402  12.140  0.00  0.00     0.008 A 
HETATM   19  C   UNK N   1      35.359  16.280  11.140  0.00  0.00     0.017 A 
BRANCH  17  20
HETATM   20  C   UNK N   1      35.584  13.147  13.238  0.00  0.00     0.038 C 
BRANCH  20  21
HETATM   21  C   UNK N   1      36.861  13.416  14.014  0.00  0.00     0.005 C 
BRANCH  21  22
HETATM   22  C   UNK N   1      36.652  13.961  15.432  0.00  0.00    -0.000 C 
BRANCH  22  23
HETATM   23  C   UNK N   1      37.307  15.316  15.719  0.00  0.00    -0.005 C 
HETATM   24  C   UNK N   1      37.070  15.785  17.140  0.00  0.00     0.005 C 
ENDBRANCH  22  23
ENDBRANCH  21  22
ENDBRANCH  20  21
ENDBRANCH  17  20
ENDBRANCH  11  14
ENDBRANCH   7  10
ENDBRANCH   1   4
BRANCH   1  25
HETATM   25  N   UNK N   1      26.983  17.194   5.582  0.00  0.00    -0.191 NA
BRANCH  25  26
HETATM   26  C   UNK N   1      26.220  15.956   5.581  0.00  0.00     0.139 C 
BRANCH  26  27
HETATM   27  C   UNK N   1      26.123  15.413   6.988  0.00  0.00     0.288 C 
BRANCH  27  28
HETATM   28  N   UNK N   1      25.186  14.308   7.019  0.00  0.00     0.093 N 
HETATM   29  C   UNK N   1      23.868  14.875   6.735  0.00  0.00     0.298 C 
HETATM   30  C   UNK N   1      22.794  13.822   7.003  0.00  0.00     0.198 C 
HETATM   31  O   UNK N   1      22.838  13.458   8.360  0.00  0.00    -0.388 OA
HETATM   32  C   UNK N   1      24.049  12.771   8.551  0.00  0.00     0.198 C 
HETATM   33  C   UNK N   1      25.213  13.749   8.375  0.00  0.00     0.298 C 
ENDBRANCH  27  28
ENDBRANCH  26  27
ENDBRANCH  25  26
BRANCH  25  34
HETATM   34  C   UNK N   1      26.290  18.084   4.629  0.00  0.00     0.171 C 
BRANCH  34  35
HETATM   35  C   UNK N   1      26.503  19.598   4.828  0.00  0.00     0.005 C 
HETATM   36  C   UNK N   1      27.294  19.922   6.084  0.00  0.00     0.011 C 
HETATM   37  C   UNK N   1      27.071  20.325   3.621  0.00  0.00     0.011 C 
ENDBRANCH  34  35
BRANCH  34  38
HETATM   38  C   UNK N   1      24.820  17.742   4.610  0.00  0.00     0.260 C 
HETATM   39  O   UNK N   1      24.385  16.960   3.789  0.00  0.00    -0.270 OA
HETATM   40  N   UNK N   1      23.996  18.321   5.512  0.00  0.00    -0.236 N 
HETATM   41  H   UNK N   1      24.359  18.949   6.176  0.00  0.00     0.197 HD
BRANCH  40  42
HETATM   42  O   UNK N   1      22.684  18.038   5.503  0.00  0.00    -0.287 OA
HETATM   43  H   UNK N   1      22.188  17.958   6.333  0.00  0.00     0.244 HD
ENDBRANCH  40  42
ENDBRANCH  34  38
ENDBRANCH  25  34
ENDBRANCH   1  25
TORSDOF 15
ENDMDL
MODEL 8
REMARK VINA RESULT:      -7.3      1.794      3.835
REMARK  15 active torsions:
REMARK  status: ('A' for Active; 'I' for Inactive)
REMARK    1  A    between atoms: C_2  and  C_3 
REMARK    2  A    between atoms: C_3  and  C_4 
REMARK    3  A    between atoms: C_4  and  C_5 
REMARK    4  A    between atoms: C_5  and  C_6 
REMARK    5  A    between atoms: C_9  and  C_12 
REMARK       I    between atoms: C_12  and  N_14 
REMARK    6  A    between atoms: N_14  and  C_15 
REMARK    7  A    between atoms: C_18  and  S_21 
REMARK    8  A    between atoms: S_21  and  N_24 
REMARK    9  A    between atoms: N_24  and  C_25 
REMARK   10  A    between atoms: C_33  and  N_24 
REMARK   11  A    between atoms: C_25  and  C_26 
REMARK   12  A    between atoms: C_26  and  N_27 
REMARK   13  A    between atoms: C_33  and  C_34 
REMARK   14  A    between atoms: C_33  and  C_37 
REMARK       I    between atoms: C_37  and  N_39 
REMARK   15  A    between atoms: N_39  and  O_40 
ROOT
HETATM    1  S   UNK N   1      33.266  14.578   9.158  0.00  0.00     0.244 S 
HETATM    2  O   UNK N   1      32.728  13.238   8.628  0.00  0.00    -0.206 OA
HETATM    3  O   UNK N   1      32.151  14.961  10.144  0.00  0.00    -0.206 OA
ENDROOT
BRANCH   1   4
HETATM    4  C   UNK N   1      34.796  14.390   9.993  0.00  0.00     0.074 C 
HETATM    5  C   UNK N   1      35.140  15.357  10.925  0.00  0.00     0.027 C 
HETATM    6  C   UNK N   1      36.111  15.099  11.851  0.00  0.00     0.031 C 
HETATM    7  C   UNK N   1      36.713  13.855  11.878  0.00  0.00     0.035 C 
HETATM    8  C   UNK N   1      36.471  12.923  10.851  0.00  0.00     0.031 C 
HETATM    9  C   UNK N   1      35.505  13.197   9.896  0.00  0.00     0.027 C 
BRANCH   7  10
HETATM   10  N   UNK N   1      36.834  13.351  13.164  0.00  0.00    -0.323 N 
HETATM   11  C   UNK N   1      35.692  13.006  13.828  0.00  0.00     0.256 C 
HETATM   12  O   UNK N   1      34.598  12.988  13.269  0.00  0.00    -0.267 OA
HETATM   13  H   UNK N   1      37.717  13.246  13.586  0.00  0.00     0.169 HD
BRANCH  11  14
HETATM   14  C   UNK N   1      35.806  12.607  15.188  0.00  0.00     0.032 A 
HETATM   15  C   UNK N   1      36.325  11.344  15.463  0.00  0.00     0.017 A 
HETATM   16  C   UNK N   1      36.190  10.804  16.727  0.00  0.00     0.008 A 
HETATM   17  C   UNK N   1      35.491  11.512  17.699  0.00  0.00    -0.058 A 
HETATM   18  C   UNK N   1      35.005  12.800  17.427  0.00  0.00     0.008 A 
HETATM   19  C   UNK N   1      35.183  13.363  16.173  0.00  0.00     0.017 A 
BRANCH  17  20
HETATM   20  C   UNK N   1      35.130  10.809  18.956  0.00  0.00     0.038 C 
BRANCH  20  21
HETATM   21  C   UNK N   1      34.458   9.463  18.753  0.00  0.00     0.005 C 
BRANCH  21  22
HETATM   22  C   UNK N   1      34.016   8.760  20.043  0.00  0.00    -0.000 C 
BRANCH  22  23
HETATM   23  C   UNK N   1      33.289   9.647  21.058  0.00  0.00    -0.005 C 
HETATM   24  C   UNK N   1      33.775   9.424  22.476  0.00  0.00     0.005 C 
ENDBRANCH  22  23
ENDBRANCH  21  22
ENDBRANCH  20  21
ENDBRANCH  17  20
ENDBRANCH  11  14
ENDBRANCH   7  10
ENDBRANCH   1   4
BRANCH   1  25
HETATM   25  N   UNK N   1      33.159  15.755   7.847  0.00  0.00    -0.191 NA
BRANCH  25  26
HETATM   26  C   UNK N   1      31.767  16.175   7.809  0.00  0.00     0.139 C 
BRANCH  26  27
HETATM   27  C   UNK N   1      31.649  17.598   8.303  0.00  0.00     0.288 C 
BRANCH  27  28
HETATM   28  N   UNK N   1      30.272  18.038   8.196  0.00  0.00     0.093 N 
HETATM   29  C   UNK N   1      29.604  17.611   9.426  0.00  0.00     0.298 C 
HETATM   30  C   UNK N   1      28.097  17.809   9.279  0.00  0.00     0.198 C 
HETATM   31  O   UNK N   1      27.631  17.009   8.221  0.00  0.00    -0.388 OA
HETATM   32  C   UNK N   1      28.167  17.556   7.042  0.00  0.00     0.198 C 
HETATM   33  C   UNK N   1      29.683  17.355   7.039  0.00  0.00     0.298 C 
ENDBRANCH  27  28
ENDBRANCH  26  27
ENDBRANCH  25  26
BRANCH  25  34
HETATM   34  C   UNK N   1      33.435  15.190   6.510  0.00  0.00     0.171 C 
BRANCH  34  35
HETATM   35  C   UNK N   1      34.628  14.217   6.411  0.00  0.00     0.005 C 
HETATM   36  C   UNK N   1      34.457  13.185   5.309  0.00  0.00     0.011 C 
HETATM   37  C   UNK N   1      35.989  14.886   6.328  0.00  0.00     0.011 C 
ENDBRANCH  34  35
BRANCH  34  38
HETATM   38  C   UNK N   1      33.570  16.315   5.514  0.00  0.00     0.260 C 
HETATM   39  O   UNK N   1      34.193  17.316   5.803  0.00  0.00    -0.270 OA
HETATM   40  N   UNK N   1      32.984  16.196   4.301  0.00  0.00    -0.236 N 
HETATM   41  H   UNK N   1      32.485  15.379   4.075  0.00  0.00     0.197 HD
BRANCH  40  42
HETATM   42  O   UNK N   1      33.084  17.191   3.405  0.00  0.00    -0.287 OA
HETATM   43  H   UNK N   1      33.927  17.381   2.966  0.00  0.00     0.244 HD
ENDBRANCH  40  42
ENDBRANCH  34  38
ENDBRANCH  25  34
ENDBRANCH   1  25
TORSDOF 15
ENDMDL
MODEL 9
REMARK VINA RESULT:      -7.2      3.918      6.180
REMARK  15 active torsions:
REMARK  status: ('A' for Active; 'I' for Inactive)
REMARK    1  A    between atoms: C_2  and  C_3 
REMARK    2  A    between atoms: C_3  and  C_4 
REMARK    3  A    between atoms: C_4  and  C_5 
REMARK    4  A    between atoms: C_5  and  C_6 
REMARK    5  A    between atoms: C_9  and  C_12 
REMARK       I    between atoms: C_12  and  N_14 
REMARK    6  A    between atoms: N_14  and  C_15 
REMARK    7  A    between atoms: C_18  and  S_21 
REMARK    8  A    between atoms: S_21  and  N_24 
REMARK    9  A    between atoms: N_24  and  C_25 
REMARK   10  A    between atoms: C_33  and  N_24 
REMARK   11  A    between atoms: C_25  and  C_26 
REMARK   12  A    between atoms: C_26  and  N_27 
REMARK   13  A    between atoms: C_33  and  C_34 
REMARK   14  A    between atoms: C_33  and  C_37 
REMARK       I    between atoms: C_37  and  N_39 
REMARK   15  A    between atoms: N_39  and  O_40 
ROOT
HETATM    1  S   UNK N   1      30.596  16.380   5.581  0.00  0.00     0.244 S 
HETATM    2  O   UNK N   1      30.624  17.044   4.194  0.00  0.00    -0.206 OA
HETATM    3  O   UNK N   1      30.524  14.897   5.184  0.00  0.00    -0.206 OA
ENDROOT
BRANCH   1   4
HETATM    4  C   UNK N   1      32.054  16.707   6.498  0.00  0.00     0.074 C 
HETATM    5  C   UNK N   1      31.904  17.213   7.780  0.00  0.00     0.027 C 
HETATM    6  C   UNK N   1      32.944  17.152   8.664  0.00  0.00     0.031 C 
HETATM    7  C   UNK N   1      34.127  16.547   8.284  0.00  0.00     0.035 C 
HETATM    8  C   UNK N   1      34.333  16.162   6.946  0.00  0.00     0.031 C 
HETATM    9  C   UNK N   1      33.285  16.248   6.044  0.00  0.00     0.027 C 
BRANCH   7  10
HETATM   10  N   UNK N   1      34.630  15.702   9.263  0.00  0.00    -0.323 N 
HETATM   11  C   UNK N   1      35.482  16.230  10.190  0.00  0.00     0.256 C 
HETATM   12  O   UNK N   1      35.685  17.440  10.268  0.00  0.00    -0.267 OA
HETATM   13  H   UNK N   1      34.382  14.750   9.286  0.00  0.00     0.169 HD
BRANCH  11  14
HETATM   14  C   UNK N   1      36.095  15.342  11.116  0.00  0.00     0.032 A 
HETATM   15  C   UNK N   1      36.816  14.261  10.614  0.00  0.00     0.017 A 
HETATM   16  C   UNK N   1      37.180  13.227  11.453  0.00  0.00     0.008 A 
HETATM   17  C   UNK N   1      36.778  13.255  12.784  0.00  0.00    -0.058 A 
HETATM   18  C   UNK N   1      36.086  14.366  13.293  0.00  0.00     0.008 A 
HETATM   19  C   UNK N   1      35.763  15.427  12.462  0.00  0.00     0.017 A 
BRANCH  17  20
HETATM   20  C   UNK N   1      36.947  12.024  13.596  0.00  0.00     0.038 C 
BRANCH  20  21
HETATM   21  C   UNK N   1      35.783  11.716  14.521  0.00  0.00     0.005 C 
BRANCH  21  22
HETATM   22  C   UNK N   1      36.040  12.013  16.003  0.00  0.00    -0.000 C 
BRANCH  22  23
HETATM   23  C   UNK N   1      35.116  13.059  16.635  0.00  0.00    -0.005 C 
HETATM   24  C   UNK N   1      35.139  13.013  18.149  0.00  0.00     0.005 C 
ENDBRANCH  22  23
ENDBRANCH  21  22
ENDBRANCH  20  21
ENDBRANCH  17  20
ENDBRANCH  11  14
ENDBRANCH   7  10
ENDBRANCH   1   4
BRANCH   1  25
HETATM   25  N   UNK N   1      29.034  16.746   6.318  0.00  0.00    -0.191 NA
BRANCH  25  26
HETATM   26  C   UNK N   1      28.050  16.562   5.264  0.00  0.00     0.139 C 
BRANCH  26  27
HETATM   27  C   UNK N   1      27.174  15.373   5.583  0.00  0.00     0.288 C 
BRANCH  27  28
HETATM   28  N   UNK N   1      26.689  14.782   4.353  0.00  0.00     0.093 N 
HETATM   29  C   UNK N   1      27.580  15.247   3.290  0.00  0.00     0.298 C 
HETATM   30  C   UNK N   1      26.986  14.878   1.931  0.00  0.00     0.198 C 
HETATM   31  O   UNK N   1      25.745  15.523   1.784  0.00  0.00    -0.388 OA
HETATM   32  C   UNK N   1      24.874  14.929   2.714  0.00  0.00     0.198 C 
HETATM   33  C   UNK N   1      25.330  15.289   4.129  0.00  0.00     0.298 C 
ENDBRANCH  27  28
ENDBRANCH  26  27
ENDBRANCH  25  26
BRANCH  25  34
HETATM   34  C   UNK N   1      28.890  18.151   6.750  0.00  0.00     0.171 C 
BRANCH  34  35
HETATM   35  C   UNK N   1      28.372  18.377   8.185  0.00  0.00     0.005 C 
HETATM   36  C   UNK N   1      27.798  17.116   8.809  0.00  0.00     0.011 C 
HETATM   37  C   UNK N   1      29.362  19.049   9.121  0.00  0.00     0.011 C 
ENDBRANCH  34  35
BRANCH  34  38
HETATM   38  C   UNK N   1      28.044  18.895   5.746  0.00  0.00     0.260 C 
HETATM   39  O   UNK N   1      26.889  19.168   6.004  0.00  0.00    -0.270 OA
HETATM   40  N   UNK N   1      28.584  19.245   4.558  0.00  0.00    -0.236 N 
HETATM   41  H   UNK N   1      29.522  19.023   4.360  0.00  0.00     0.197 HD
BRANCH  40  42
HETATM   42  O   UNK N   1      27.843  19.897   3.648  0.00  0.00    -0.287 OA
HETATM   43  H   UNK N   1      28.247  20.252   2.840  0.00  0.00     0.244 HD
ENDBRANCH  40  42
ENDBRANCH  34  38
ENDBRANCH  25  34
ENDBRANCH   1  25
TORSDOF 15
ENDMDL
