MODEL 1
REMARK VINA RESULT:      -6.4      0.000      0.000
REMARK  5 active torsions:
REMARK  status: ('A' for Active; 'I' for Inactive)
REMARK    1  A    between atoms: C_3  and  O_2 
REMARK    2  A    between atoms: C_8  and  C_16 
REMARK    3  A    between atoms: C_12  and  O_13 
REMARK    4  A    between atoms: C_14  and  O_15 
REMARK    5  A    between atoms: C_16  and  O_17 
ROOT
HETATM    1  C   UNK N   1      28.432  17.389   7.129  0.00  0.00     0.290 C 
HETATM    2  O   UNK N   1      29.528  16.550   6.826  0.00  0.00    -0.349 OA
HETATM    3  C   UNK N   1      30.709  17.297   7.008  0.00  0.00     0.180 C 
HETATM    4  C   UNK N   1      31.909  16.489   6.543  0.00  0.00     0.206 C 
HETATM    5  O   UNK N   1      33.109  17.158   6.867  0.00  0.00    -0.344 OA
HETATM    6  C   UNK N   1      33.207  17.325   8.276  0.00  0.00     0.249 C 
HETATM    7  C   UNK N   1      33.259  15.979   9.019  0.00  0.00     0.091 C 
HETATM    8  O   UNK N   1      32.155  18.159   8.751  0.00  0.00    -0.336 OA
HETATM    9  C   UNK N   1      30.910  17.547   8.501  0.00  0.00     0.188 C 
HETATM   10  C   UNK N   1      29.772  18.449   8.956  0.00  0.00     0.183 C 
HETATM   11  C   UNK N   1      28.444  17.779   8.619  0.00  0.00     0.204 C 
ENDROOT
BRANCH   6  12
HETATM   12  C   UNK N   1      34.517  18.010   8.566  0.00  0.00     0.205 C 
HETATM   13  O   UNK N   1      34.962  18.853   7.802  0.00  0.00    -0.646 OA
BRANCH  12  14
HETATM   14  O   UNK N   1      35.206  17.699   9.682  0.00  0.00    -0.772 OA
HETATM   15  H   UNK N   1      34.801  17.189  10.356  0.00  0.00     0.167 HD
ENDBRANCH  12  14
ENDBRANCH   6  12
BRANCH  10  16
HETATM   16  O   UNK N   1      29.858  18.683  10.329  0.00  0.00    -0.390 OA
HETATM   17  H   UNK N   1      30.643  18.867  10.867  0.00  0.00     0.210 HD
ENDBRANCH  10  16
BRANCH  11  18
HETATM   18  O   UNK N   1      27.394  18.658   8.894  0.00  0.00    -0.388 OA
HETATM   19  H   UNK N   1      27.475  19.371   9.545  0.00  0.00     0.210 HD
ENDBRANCH  11  18
BRANCH   1  20
HETATM   20  O   UNK N   1      27.246  16.707   6.841  0.00  0.00    -0.363 OA
HETATM   21  C   UNK N   1      26.789  17.248   5.639  0.00  0.00     0.204 C 
ENDBRANCH   1  20
TORSDOF 5
ENDMDL
MODEL 2
REMARK VINA RESULT:      -5.9      4.063      6.739
REMARK  5 active torsions:
REMARK  status: ('A' for Active; 'I' for Inactive)
REMARK    1  A    between atoms: C_3  and  O_2 
REMARK    2  A    between atoms: C_8  and  C_16 
REMARK    3  A    between atoms: C_12  and  O_13 
REMARK    4  A    between atoms: C_14  and  O_15 
REMARK    5  A    between atoms: C_16  and  O_17 
ROOT
HETATM    1  C   UNK N   1      34.898  13.512  11.947  0.00  0.00     0.290 C 
HETATM    2  O   UNK N   1      34.078  13.585  10.798  0.00  0.00    -0.349 OA
HETATM    3  C   UNK N   1      34.046  14.928  10.373  0.00  0.00     0.180 C 
HETATM    4  C   UNK N   1      33.053  15.087   9.235  0.00  0.00     0.206 C 
HETATM    5  O   UNK N   1      33.127  16.389   8.694  0.00  0.00    -0.344 OA
HETATM    6  C   UNK N   1      34.431  16.627   8.179  0.00  0.00     0.249 C 
HETATM    7  C   UNK N   1      34.785  15.669   7.028  0.00  0.00     0.091 C 
HETATM    8  O   UNK N   1      35.393  16.585   9.227  0.00  0.00    -0.336 OA
HETATM    9  C   UNK N   1      35.415  15.299   9.806  0.00  0.00     0.188 C 
HETATM   10  C   UNK N   1      36.402  15.252  10.962  0.00  0.00     0.183 C 
HETATM   11  C   UNK N   1      36.356  13.866  11.596  0.00  0.00     0.204 C 
ENDROOT
BRANCH   6  12
HETATM   12  C   UNK N   1      34.442  18.012   7.586  0.00  0.00     0.205 C 
HETATM   13  O   UNK N   1      34.075  18.200   6.436  0.00  0.00    -0.646 OA
BRANCH  12  14
HETATM   14  O   UNK N   1      34.854  19.058   8.329  0.00  0.00    -0.772 OA
HETATM   15  H   UNK N   1      34.251  19.738   8.558  0.00  0.00     0.167 HD
ENDBRANCH  12  14
ENDBRANCH   6  12
BRANCH  10  16
HETATM   16  O   UNK N   1      37.692  15.532  10.511  0.00  0.00    -0.390 OA
HETATM   17  H   UNK N   1      38.193  15.107   9.797  0.00  0.00     0.210 HD
ENDBRANCH  10  16
BRANCH  11  18
HETATM   18  O   UNK N   1      37.143  13.851  12.749  0.00  0.00    -0.388 OA
HETATM   19  H   UNK N   1      36.880  14.314  13.560  0.00  0.00     0.210 HD
ENDBRANCH  11  18
BRANCH   1  20
HETATM   20  O   UNK N   1      34.849  12.211  12.457  0.00  0.00    -0.363 OA
HETATM   21  C   UNK N   1      34.979  11.373  11.349  0.00  0.00     0.204 C 
ENDBRANCH   1  20
TORSDOF 5
ENDMDL
MODEL 3
REMARK VINA RESULT:      -5.8     12.356     14.366
REMARK  5 active torsions:
REMARK  status: ('A' for Active; 'I' for Inactive)
REMARK    1  A    between atoms: C_3  and  O_2 
REMARK    2  A    between atoms: C_8  and  C_16 
REMARK    3  A    between atoms: C_12  and  O_13 
REMARK    4  A    between atoms: C_14  and  O_15 
REMARK    5  A    between atoms: C_16  and  O_17 
ROOT
HETATM    1  C   UNK N   1      31.972  21.299  -4.384  0.00  0.00     0.290 C 
HETATM    2  O   UNK N   1      31.368  22.132  -5.353  0.00  0.00    -0.349 OA
HETATM    3  C   UNK N   1      30.015  22.301  -4.998  0.00  0.00     0.180 C 
HETATM    4  C   UNK N   1      29.284  23.060  -6.091  0.00  0.00     0.206 C 
HETATM    5  O   UNK N   1      27.971  23.376  -5.679  0.00  0.00    -0.344 OA
HETATM    6  C   UNK N   1      28.011  24.199  -4.520  0.00  0.00     0.249 C 
HETATM    7  C   UNK N   1      28.706  25.546  -4.788  0.00  0.00     0.091 C 
HETATM    8  O   UNK N   1      28.603  23.497  -3.433  0.00  0.00    -0.336 OA
HETATM    9  C   UNK N   1      29.939  23.171  -3.744  0.00  0.00     0.188 C 
HETATM   10  C   UNK N   1      30.570  22.374  -2.613  0.00  0.00     0.183 C 
HETATM   11  C   UNK N   1      31.993  21.993  -3.009  0.00  0.00     0.204 C 
ENDROOT
BRANCH   6  12
HETATM   12  C   UNK N   1      26.590  24.533  -4.147  0.00  0.00     0.205 C 
HETATM   13  O   UNK N   1      26.338  25.092  -3.091  0.00  0.00    -0.646 OA
BRANCH  12  14
HETATM   14  O   UNK N   1      25.583  24.218  -4.986  0.00  0.00    -0.772 OA
HETATM   15  H   UNK N   1      24.736  24.005  -4.645  0.00  0.00     0.167 HD
ENDBRANCH  12  14
ENDBRANCH   6  12
BRANCH  10  16
HETATM   16  O   UNK N   1      30.584  23.127  -1.438  0.00  0.00    -0.390 OA
HETATM   17  H   UNK N   1      31.121  23.001  -0.640  0.00  0.00     0.210 HD
ENDBRANCH  10  16
BRANCH  11  18
HETATM   18  O   UNK N   1      32.534  21.137  -2.048  0.00  0.00    -0.388 OA
HETATM   19  H   UNK N   1      32.019  20.824  -1.288  0.00  0.00     0.210 HD
ENDBRANCH  11  18
BRANCH   1  20
HETATM   20  O   UNK N   1      33.283  21.020  -4.780  0.00  0.00    -0.363 OA
HETATM   21  C   UNK N   1      33.823  22.246  -5.169  0.00  0.00     0.204 C 
ENDBRANCH   1  20
TORSDOF 5
ENDMDL
MODEL 4
REMARK VINA RESULT:      -5.6      1.986      5.781
REMARK  5 active torsions:
REMARK  status: ('A' for Active; 'I' for Inactive)
REMARK    1  A    between atoms: C_3  and  O_2 
REMARK    2  A    between atoms: C_8  and  C_16 
REMARK    3  A    between atoms: C_12  and  O_13 
REMARK    4  A    between atoms: C_14  and  O_15 
REMARK    5  A    between atoms: C_16  and  O_17 
ROOT
HETATM    1  C   UNK N   1      30.824  16.884   8.269  0.00  0.00     0.290 C 
HETATM    2  O   UNK N   1      30.832  17.532   7.012  0.00  0.00    -0.349 OA
HETATM    3  C   UNK N   1      29.577  17.320   6.408  0.00  0.00     0.180 C 
HETATM    4  C   UNK N   1      29.588  17.863   4.989  0.00  0.00     0.206 C 
HETATM    5  O   UNK N   1      28.294  17.803   4.428  0.00  0.00    -0.344 OA
HETATM    6  C   UNK N   1      27.394  18.591   5.196  0.00  0.00     0.249 C 
HETATM    7  C   UNK N   1      27.785  20.080   5.201  0.00  0.00     0.091 C 
HETATM    8  O   UNK N   1      27.273  18.065   6.513  0.00  0.00    -0.336 OA
HETATM    9  C   UNK N   1      28.521  18.121   7.167  0.00  0.00     0.188 C 
HETATM   10  C   UNK N   1      28.421  17.514   8.559  0.00  0.00     0.183 C 
HETATM   11  C   UNK N   1      29.799  17.541   9.212  0.00  0.00     0.204 C 
ENDROOT
BRANCH   6  12
HETATM   12  C   UNK N   1      26.043  18.519   4.535  0.00  0.00     0.205 C 
HETATM   13  O   UNK N   1      25.933  18.652   3.326  0.00  0.00    -0.646 OA
BRANCH  12  14
HETATM   14  O   UNK N   1      24.941  18.299   5.280  0.00  0.00    -0.772 OA
HETATM   15  H   UNK N   1      24.233  18.913   5.265  0.00  0.00     0.167 HD
ENDBRANCH  12  14
ENDBRANCH   6  12
BRANCH  10  16
HETATM   16  O   UNK N   1      27.507  18.227   9.335  0.00  0.00    -0.390 OA
HETATM   17  H   UNK N   1      27.277  18.107  10.269  0.00  0.00     0.210 HD
ENDBRANCH  10  16
BRANCH  11  18
HETATM   18  O   UNK N   1      29.755  16.854  10.426  0.00  0.00    -0.388 OA
HETATM   19  H   UNK N   1      29.064  17.017  11.086  0.00  0.00     0.210 HD
ENDBRANCH  11  18
BRANCH   1  20
HETATM   20  O   UNK N   1      32.099  16.979   8.835  0.00  0.00    -0.363 OA
HETATM   21  C   UNK N   1      32.758  17.967   8.104  0.00  0.00     0.204 C 
ENDBRANCH   1  20
TORSDOF 5
ENDMDL
MODEL 5
REMARK VINA RESULT:      -5.6      1.846      2.540
REMARK  5 active torsions:
REMARK  status: ('A' for Active; 'I' for Inactive)
REMARK    1  A    between atoms: C_3  and  O_2 
REMARK    2  A    between atoms: C_8  and  C_16 
REMARK    3  A    between atoms: C_12  and  O_13 
REMARK    4  A    between atoms: C_14  and  O_15 
REMARK    5  A    between atoms: C_16  and  O_17 
ROOT
HETATM    1  C   UNK N   1      30.278  16.501   4.673  0.00  0.00     0.290 C 
HETATM    2  O   UNK N   1      31.632  16.098   4.723  0.00  0.00    -0.349 OA
HETATM    3  C   UNK N   1      32.332  17.024   5.521  0.00  0.00     0.180 C 
HETATM    4  C   UNK N   1      33.820  16.724   5.478  0.00  0.00     0.206 C 
HETATM    5  O   UNK N   1      34.515  17.541   6.397  0.00  0.00    -0.344 OA
HETATM    6  C   UNK N   1      34.051  17.289   7.717  0.00  0.00     0.249 C 
HETATM    7  C   UNK N   1      34.312  15.838   8.159  0.00  0.00     0.091 C 
HETATM    8  O   UNK N   1      32.678  17.647   7.838  0.00  0.00    -0.336 OA
HETATM    9  C   UNK N   1      31.898  16.848   6.976  0.00  0.00     0.188 C 
HETATM   10  C   UNK N   1      30.434  17.254   7.054  0.00  0.00     0.183 C 
HETATM   11  C   UNK N   1      29.633  16.409   6.069  0.00  0.00     0.204 C 
ENDROOT
BRANCH   6  12
HETATM   12  C   UNK N   1      34.847  18.158   8.655  0.00  0.00     0.205 C 
HETATM   13  O   UNK N   1      35.076  19.326   8.380  0.00  0.00    -0.646 OA
BRANCH  12  14
HETATM   14  O   UNK N   1      35.309  17.649   9.815  0.00  0.00    -0.772 OA
HETATM   15  H   UNK N   1      36.228  17.509   9.933  0.00  0.00     0.167 HD
ENDBRANCH  12  14
ENDBRANCH   6  12
BRANCH  10  16
HETATM   16  O   UNK N   1      29.949  17.071   8.349  0.00  0.00    -0.390 OA
HETATM   17  H   UNK N   1      29.720  16.245   8.803  0.00  0.00     0.210 HD
ENDBRANCH  10  16
BRANCH  11  18
HETATM   18  O   UNK N   1      28.316  16.869   6.020  0.00  0.00    -0.388 OA
HETATM   19  H   UNK N   1      27.632  16.420   5.498  0.00  0.00     0.210 HD
ENDBRANCH  11  18
BRANCH   1  20
HETATM   20  O   UNK N   1      29.588  15.666   3.790  0.00  0.00    -0.363 OA
HETATM   21  C   UNK N   1      30.567  14.885   3.175  0.00  0.00     0.204 C 
ENDBRANCH   1  20
TORSDOF 5
ENDMDL
MODEL 6
REMARK VINA RESULT:      -5.5      4.275      7.653
REMARK  5 active torsions:
REMARK  status: ('A' for Active; 'I' for Inactive)
REMARK    1  A    between atoms: C_3  and  O_2 
REMARK    2  A    between atoms: C_8  and  C_16 
REMARK    3  A    between atoms: C_12  and  O_13 
REMARK    4  A    between atoms: C_14  and  O_15 
REMARK    5  A    between atoms: C_16  and  O_17 
ROOT
HETATM    1  C   UNK N   1      37.211  13.243  11.019  0.00  0.00     0.290 C 
HETATM    2  O   UNK N   1      36.260  14.188  11.469  0.00  0.00    -0.349 OA
HETATM    3  C   UNK N   1      36.311  15.299  10.603  0.00  0.00     0.180 C 
HETATM    4  C   UNK N   1      35.421  16.409  11.134  0.00  0.00     0.206 C 
HETATM    5  O   UNK N   1      35.335  17.463  10.198  0.00  0.00    -0.344 OA
HETATM    6  C   UNK N   1      34.772  16.988   8.982  0.00  0.00     0.249 C 
HETATM    7  C   UNK N   1      33.335  16.471   9.169  0.00  0.00     0.091 C 
HETATM    8  O   UNK N   1      35.621  16.009   8.391  0.00  0.00    -0.336 OA
HETATM    9  C   UNK N   1      35.734  14.895   9.248  0.00  0.00     0.188 C 
HETATM   10  C   UNK N   1      36.680  13.861   8.654  0.00  0.00     0.183 C 
HETATM   11  C   UNK N   1      36.821  12.700   9.632  0.00  0.00     0.204 C 
ENDROOT
BRANCH   6  12
HETATM   12  C   UNK N   1      34.673  18.156   8.036  0.00  0.00     0.205 C 
HETATM   13  O   UNK N   1      34.317  17.994   6.879  0.00  0.00    -0.646 OA
BRANCH  12  14
HETATM   14  O   UNK N   1      34.973  19.398   8.468  0.00  0.00    -0.772 OA
HETATM   15  H   UNK N   1      35.689  19.529   9.058  0.00  0.00     0.167 HD
ENDBRANCH  12  14
ENDBRANCH   6  12
BRANCH  10  16
HETATM   16  O   UNK N   1      36.192  13.403   7.430  0.00  0.00    -0.390 OA
HETATM   17  H   UNK N   1      36.499  12.656   6.893  0.00  0.00     0.210 HD
ENDBRANCH  10  16
BRANCH  11  18
HETATM   18  O   UNK N   1      37.798  11.815   9.171  0.00  0.00    -0.388 OA
HETATM   19  H   UNK N   1      38.673  12.118   8.884  0.00  0.00     0.210 HD
ENDBRANCH  11  18
BRANCH   1  20
HETATM   20  O   UNK N   1      37.264  12.185  11.931  0.00  0.00    -0.363 OA
HETATM   21  C   UNK N   1      36.597  12.641  13.069  0.00  0.00     0.204 C 
ENDBRANCH   1  20
TORSDOF 5
ENDMDL
MODEL 7
REMARK VINA RESULT:      -5.4      5.657      8.435
REMARK  5 active torsions:
REMARK  status: ('A' for Active; 'I' for Inactive)
REMARK    1  A    between atoms: C_3  and  O_2 
REMARK    2  A    between atoms: C_8  and  C_16 
REMARK    3  A    between atoms: C_12  and  O_13 
REMARK    4  A    between atoms: C_14  and  O_15 
REMARK    5  A    between atoms: C_16  and  O_17 
ROOT
HETATM    1  C   UNK N   1      36.505  14.106   9.497  0.00  0.00     0.290 C 
HETATM    2  O   UNK N   1      36.778  12.943  10.251  0.00  0.00    -0.349 OA
HETATM    3  C   UNK N   1      36.606  13.259  11.614  0.00  0.00     0.180 C 
HETATM    4  C   UNK N   1      37.040  12.087  12.476  0.00  0.00     0.206 C 
HETATM    5  O   UNK N   1      36.723  12.327  13.831  0.00  0.00    -0.344 OA
HETATM    6  C   UNK N   1      35.318  12.490  13.980  0.00  0.00     0.249 C 
HETATM    7  C   UNK N   1      34.541  11.222  13.582  0.00  0.00     0.091 C 
HETATM    8  O   UNK N   1      34.873  13.637  13.265  0.00  0.00    -0.336 OA
HETATM    9  C   UNK N   1      35.117  13.468  11.887  0.00  0.00     0.188 C 
HETATM   10  C   UNK N   1      34.694  14.708  11.114  0.00  0.00     0.183 C 
HETATM   11  C   UNK N   1      35.025  14.509   9.639  0.00  0.00     0.204 C 
ENDROOT
BRANCH   6  12
HETATM   12  C   UNK N   1      35.035  12.708  15.443  0.00  0.00     0.205 C 
HETATM   13  O   UNK N   1      33.992  13.231  15.805  0.00  0.00    -0.646 OA
BRANCH  12  14
HETATM   14  O   UNK N   1      35.936  12.317  16.367  0.00  0.00    -0.772 OA
HETATM   15  H   UNK N   1      35.662  12.149  17.248  0.00  0.00     0.167 HD
ENDBRANCH  12  14
ENDBRANCH   6  12
BRANCH  10  16
HETATM   16  O   UNK N   1      33.327  14.937  11.274  0.00  0.00    -0.390 OA
HETATM   17  H   UNK N   1      32.880  15.593  11.831  0.00  0.00     0.210 HD
ENDBRANCH  10  16
BRANCH  11  18
HETATM   18  O   UNK N   1      34.781  15.694   8.940  0.00  0.00    -0.388 OA
HETATM   19  H   UNK N   1      35.482  16.163   8.462  0.00  0.00     0.210 HD
ENDBRANCH  11  18
BRANCH   1  20
HETATM   20  O   UNK N   1      36.785  13.850   8.151  0.00  0.00    -0.363 OA
HETATM   21  C   UNK N   1      38.154  13.585   8.101  0.00  0.00     0.204 C 
ENDBRANCH   1  20
TORSDOF 5
ENDMDL
MODEL 8
REMARK VINA RESULT:      -5.3     11.908     14.684
REMARK  5 active torsions:
REMARK  status: ('A' for Active; 'I' for Inactive)
REMARK    1  A    between atoms: C_3  and  O_2 
REMARK    2  A    between atoms: C_8  and  C_16 
REMARK    3  A    between atoms: C_12  and  O_13 
REMARK    4  A    between atoms: C_14  and  O_15 
REMARK    5  A    between atoms: C_16  and  O_17 
ROOT
HETATM    1  C   UNK N   1      40.606  21.478   2.155  0.00  0.00     0.290 C 
HETATM    2  O   UNK N   1      41.141  22.251   1.099  0.00  0.00    -0.349 OA
HETATM    3  C   UNK N   1      42.046  23.177   1.655  0.00  0.00     0.180 C 
HETATM    4  C   UNK N   1      42.530  24.136   0.582  0.00  0.00     0.206 C 
HETATM    5  O   UNK N   1      43.555  24.965   1.086  0.00  0.00    -0.344 OA
HETATM    6  C   UNK N   1      44.660  24.172   1.502  0.00  0.00     0.249 C 
HETATM    7  C   UNK N   1      45.286  23.389   0.335  0.00  0.00     0.091 C 
HETATM    8  O   UNK N   1      44.282  23.320   2.578  0.00  0.00    -0.336 OA
HETATM    9  C   UNK N   1      43.280  22.425   2.150  0.00  0.00     0.188 C 
HETATM   10  C   UNK N   1      42.828  21.541   3.303  0.00  0.00     0.183 C 
HETATM   11  C   UNK N   1      41.707  20.628   2.817  0.00  0.00     0.204 C 
ENDROOT
BRANCH   6  12
HETATM   12  C   UNK N   1      45.733  25.107   1.997  0.00  0.00     0.205 C 
HETATM   13  O   UNK N   1      45.455  26.040   2.735  0.00  0.00    -0.646 OA
BRANCH  12  14
HETATM   14  O   UNK N   1      47.016  24.912   1.631  0.00  0.00    -0.772 OA
HETATM   15  H   UNK N   1      47.555  25.644   1.403  0.00  0.00     0.167 HD
ENDBRANCH  12  14
ENDBRANCH   6  12
BRANCH  10  16
HETATM   16  O   UNK N   1      43.896  20.780   3.779  0.00  0.00    -0.390 OA
HETATM   17  H   UNK N   1      44.068  20.470   4.682  0.00  0.00     0.210 HD
ENDBRANCH  10  16
BRANCH  11  18
HETATM   18  O   UNK N   1      41.180  19.917   3.897  0.00  0.00    -0.388 OA
HETATM   19  H   UNK N   1      41.585  19.943   4.778  0.00  0.00     0.210 HD
ENDBRANCH  11  18
BRANCH   1  20
HETATM   20  O   UNK N   1      39.618  20.633   1.642  0.00  0.00    -0.363 OA
HETATM   21  C   UNK N   1      39.951  20.443   0.301  0.00  0.00     0.204 C 
ENDBRANCH   1  20
TORSDOF 5
ENDMDL
MODEL 9
REMARK VINA RESULT:      -5.2      3.442      5.304
REMARK  5 active torsions:
REMARK  status: ('A' for Active; 'I' for Inactive)
REMARK    1  A    between atoms: C_3  and  O_2 
REMARK    2  A    between atoms: C_8  and  C_16 
REMARK    3  A    between atoms: C_12  and  O_13 
REMARK    4  A    between atoms: C_14  and  O_15 
REMARK    5  A    between atoms: C_16  and  O_17 
ROOT
HETATM    1  C   UNK N   1      32.625  16.462   7.513  0.00  0.00     0.290 C 
HETATM    2  O   UNK N   1      33.859  16.851   8.082  0.00  0.00    -0.349 OA
HETATM    3  C   UNK N   1      33.906  16.350   9.399  0.00  0.00     0.180 C 
HETATM    4  C   UNK N   1      35.143  16.873  10.107  0.00  0.00     0.206 C 
HETATM    5  O   UNK N   1      35.289  16.255  11.368  0.00  0.00    -0.344 OA
HETATM    6  C   UNK N   1      35.433  14.850  11.206  0.00  0.00     0.249 C 
HETATM    7  C   UNK N   1      36.697  14.484  10.407  0.00  0.00     0.091 C 
HETATM    8  O   UNK N   1      34.256  14.293  10.631  0.00  0.00    -0.336 OA
HETATM    9  C   UNK N   1      34.052  14.830   9.344  0.00  0.00     0.188 C 
HETATM   10  C   UNK N   1      32.768  14.284   8.736  0.00  0.00     0.183 C 
HETATM   11  C   UNK N   1      32.553  14.930   7.371  0.00  0.00     0.204 C 
ENDROOT
BRANCH   6  12
HETATM   12  C   UNK N   1      35.618  14.248  12.574  0.00  0.00     0.205 C 
HETATM   13  O   UNK N   1      34.762  13.524  13.058  0.00  0.00    -0.646 OA
BRANCH  12  14
HETATM   14  O   UNK N   1      36.742  14.502  13.274  0.00  0.00    -0.772 OA
HETATM   15  H   UNK N   1      36.704  15.024  14.051  0.00  0.00     0.167 HD
ENDBRANCH  12  14
ENDBRANCH   6  12
BRANCH  10  16
HETATM   16  O   UNK N   1      32.845  12.897   8.606  0.00  0.00    -0.390 OA
HETATM   17  H   UNK N   1      33.582  12.305   8.822  0.00  0.00     0.210 HD
ENDBRANCH  10  16
BRANCH  11  18
HETATM   18  O   UNK N   1      31.306  14.553   6.866  0.00  0.00    -0.388 OA
HETATM   19  H   UNK N   1      30.981  14.868   6.009  0.00  0.00     0.210 HD
ENDBRANCH  11  18
BRANCH   1  20
HETATM   20  O   UNK N   1      32.505  17.048   6.249  0.00  0.00    -0.363 OA
HETATM   21  C   UNK N   1      33.803  17.107   5.742  0.00  0.00     0.204 C 
ENDBRANCH   1  20
TORSDOF 5
ENDMDL
