MODEL 1
REMARK VINA RESULT:      -7.7      0.000      0.000
REMARK  29 active torsions:
REMARK  status: ('A' for Active; 'I' for Inactive)
REMARK    1  A    between atoms: C_2  and  C_4 
REMARK    2  A    between atoms: C_2  and  C_39 
REMARK    3  A    between atoms: C_4  and  O_5 
REMARK    4  A    between atoms: P_6  and  O_5 
REMARK    5  A    between atoms: P_6  and  O_7 
REMARK    6  A    between atoms: P_6  and  O_9 
REMARK    7  A    between atoms: P_10  and  O_9 
REMARK    8  A    between atoms: P_10  and  O_11 
REMARK    9  A    between atoms: P_10  and  O_13 
REMARK   10  A    between atoms: O_13  and  C_14 
REMARK   11  A    between atoms: C_15  and  C_14 
REMARK   12  A    between atoms: C_17  and  N_26 
REMARK   13  A    between atoms: C_18  and  O_19 
REMARK   14  A    between atoms: C_20  and  O_21 
REMARK   15  A    between atoms: O_21  and  P_22 
REMARK   16  A    between atoms: P_22  and  O_23 
REMARK   17  A    between atoms: P_22  and  O_24 
REMARK   18  A    between atoms: C_31  and  N_32 
REMARK   19  A    between atoms: C_39  and  O_40 
REMARK   20  A    between atoms: C_39  and  C_41 
REMARK       I    between atoms: C_41  and  N_43 
REMARK   21  A    between atoms: N_43  and  C_44 
REMARK   22  A    between atoms: C_44  and  C_45 
REMARK   23  A    between atoms: C_45  and  C_46 
REMARK       I    between atoms: C_46  and  N_48 
REMARK   24  A    between atoms: N_48  and  C_49 
REMARK   25  A    between atoms: C_49  and  C_50 
REMARK   26  A    between atoms: C_50  and  S_51 
REMARK   27  A    between atoms: S_51  and  C_52 
REMARK   28  A    between atoms: C_52  and  C_54 
REMARK   29  A    between atoms: C_57  and  O_58 
ROOT
HETATM    1  O   UNK N   1      34.946  16.206   8.119  0.00  0.00    -0.195 OA
ENDROOT
BRANCH   1   2
HETATM    2  P   UNK N   1      34.057  17.667   7.784  0.00  0.00     0.401 P 
HETATM    3  O   UNK N   1      32.805  17.642   8.701  0.00  0.00    -0.631 OA
BRANCH   2   4
HETATM    4  O   UNK N   1      33.521  17.725   6.127  0.00  0.00    -0.296 OA
BRANCH   4   5
HETATM    5  C   UNK N   1      33.752  16.470   5.556  0.00  0.00     0.192 C 
BRANCH   5   6
HETATM    6  C   UNK N   1      32.974  16.298   4.243  0.00  0.00     0.009 C 
HETATM    7  C   UNK N   1      33.831  15.583   3.212  0.00  0.00     0.020 C 
HETATM    8  C   UNK N   1      32.602  17.663   3.730  0.00  0.00     0.020 C 
BRANCH   6   9
HETATM    9  C   UNK N   1      31.650  15.561   4.454  0.00  0.00     0.219 C 
BRANCH   9  10
HETATM   10  O   UNK N   1      31.568  14.317   3.822  0.00  0.00    -0.385 OA
HETATM   11  H   UNK N   1      31.402  14.117   2.887  0.00  0.00     0.210 HD
ENDBRANCH   9  10
BRANCH   9  12
HETATM   12  C   UNK N   1      31.008  15.569   5.794  0.00  0.00     0.247 C 
HETATM   13  O   UNK N   1      31.202  14.666   6.598  0.00  0.00    -0.271 OA
HETATM   14  N   UNK N   1      30.332  16.677   6.148  0.00  0.00    -0.358 N 
HETATM   15  H   UNK N   1      30.140  17.360   5.466  0.00  0.00     0.162 HD
BRANCH  14  16
HETATM   16  C   UNK N   1      29.885  16.886   7.485  0.00  0.00     0.132 C 
BRANCH  16  17
HETATM   17  C   UNK N   1      28.377  17.031   7.437  0.00  0.00     0.122 C 
BRANCH  17  18
HETATM   18  C   UNK N   1      27.874  17.979   8.485  0.00  0.00     0.219 C 
HETATM   19  O   UNK N   1      27.646  17.549   9.604  0.00  0.00    -0.274 OA
HETATM   20  N   UNK N   1      27.706  19.307   8.238  0.00  0.00    -0.360 N 
HETATM   21  H   UNK N   1      27.483  19.890   8.999  0.00  0.00     0.162 HD
BRANCH  20  22
HETATM   22  C   UNK N   1      27.832  19.921   6.932  0.00  0.00     0.133 C 
BRANCH  22  23
HETATM   23  C   UNK N   1      26.494  20.330   6.336  0.00  0.00     0.102 C 
BRANCH  23  24
HETATM   24  S   UNK N   1      26.654  20.290   4.522  0.00  0.00    -0.086 SA
BRANCH  24  25
HETATM   25  C   UNK N   1      25.810  18.715   4.412  0.00  0.00     0.219 C 
HETATM   26  O   UNK N   1      24.715  18.596   4.942  0.00  0.00    -0.280 OA
BRANCH  25  27
HETATM   27  C   UNK N   1      26.450  17.558   3.755  0.00  0.00     0.021 A 
HETATM   28  C   UNK N   1      27.844  17.426   3.763  0.00  0.00     0.019 A 
HETATM   29  C   UNK N   1      28.453  16.369   3.082  0.00  0.00     0.037 A 
HETATM   30  C   UNK N   1      27.673  15.439   2.389  0.00  0.00     0.065 A 
HETATM   31  C   UNK N   1      26.281  15.555   2.389  0.00  0.00     0.037 A 
HETATM   32  C   UNK N   1      25.674  16.611   3.069  0.00  0.00     0.019 A 
BRANCH  30  33
HETATM   33  O   UNK N   1      28.259  14.435   1.721  0.00  0.00    -0.361 OA
HETATM   34  H   UNK N   1      28.836  14.599   1.002  0.00  0.00     0.217 HD
ENDBRANCH  30  33
ENDBRANCH  25  27
ENDBRANCH  24  25
ENDBRANCH  23  24
ENDBRANCH  22  23
ENDBRANCH  20  22
ENDBRANCH  17  18
ENDBRANCH  16  17
ENDBRANCH  14  16
ENDBRANCH   9  12
ENDBRANCH   6   9
ENDBRANCH   5   6
ENDBRANCH   4   5
ENDBRANCH   2   4
BRANCH   2  35
HETATM   35  O   UNK N   1      34.990  19.065   8.223  0.00  0.00    -0.307 OA
HETATM   36  H   UNK N   1      35.932  19.065   8.459  0.00  0.00     0.222 HD
ENDBRANCH   2  35
ENDBRANCH   1   2
BRANCH   1  37
HETATM   37  P   UNK N   1      35.126  16.086   9.854  0.00  0.00     0.401 P 
HETATM   38  O   UNK N   1      35.471  17.511  10.364  0.00  0.00    -0.631 OA
BRANCH  37  39
HETATM   39  O   UNK N   1      33.611  15.682  10.604  0.00  0.00    -0.307 OA
HETATM   40  H   UNK N   1      33.458  15.831  11.551  0.00  0.00     0.222 HD
ENDBRANCH  37  39
BRANCH  37  41
HETATM   41  O   UNK N   1      36.420  15.040  10.392  0.00  0.00    -0.294 OA
BRANCH  41  42
HETATM   42  C   UNK N   1      36.174  14.790  11.742  0.00  0.00     0.215 C 
BRANCH  42  43
HETATM   43  C   UNK N   1      36.650  13.388  12.135  0.00  0.00     0.180 C 
HETATM   44  O   UNK N   1      36.687  12.610  10.955  0.00  0.00    -0.353 OA
HETATM   45  C   UNK N   1      35.536  11.783  10.975  0.00  0.00     0.262 C 
HETATM   46  C   UNK N   1      34.677  12.190  12.147  0.00  0.00     0.199 C 
HETATM   47  C   UNK N   1      35.720  12.653  13.100  0.00  0.00     0.197 C 
BRANCH  45  48
HETATM   48  N   UNK N   1      34.758  11.907   9.742  0.00  0.00    -0.297 N 
HETATM   49  C   UNK N   1      33.467  11.539   9.532  0.00  0.00     0.188 A 
HETATM   50  N   UNK N   1      33.086  11.784   8.245  0.00  0.00    -0.346 N 
HETATM   51  C   UNK N   1      34.179  12.317   7.670  0.00  0.00     0.122 A 
ATOM     52  HN  UNK N   1      32.177  11.605   7.817  1.00  0.00     0.167 HD
HETATM   53  C   UNK N   1      34.381  12.756   6.370  0.00  0.00     0.131 A 
HETATM   54  C   UNK N   1      35.178  12.393   8.567  0.00  0.00     0.142 A 
HETATM   55  N   UNK N   1      35.609  13.261   6.047  0.00  0.00    -0.337 N 
HETATM   56  C   UNK N   1      36.613  13.331   6.983  0.00  0.00     0.183 A 
ATOM     57  HN  UNK N   1      35.784  13.590   5.097  1.00  0.00     0.168 HD
HETATM   58  N   UNK N   1      36.399  12.892   8.262  0.00  0.00    -0.336 N 
ATOM     59  HN  UNK N   1      37.138  12.940   8.964  1.00  0.00     0.168 HD
BRANCH  53  60
HETATM   60  N   UNK N   1      33.358  12.684   5.404  0.00  0.00    -0.383 N 
HETATM   61  H   UNK N   1      33.105  13.423   4.805  0.00  0.00     0.157 HD
HETATM   62  H   UNK N   1      32.862  11.838   5.324  0.00  0.00     0.157 HD
ENDBRANCH  53  60
ENDBRANCH  45  48
BRANCH  46  63
HETATM   63  O   UNK N   1      33.978  11.091  12.640  0.00  0.00    -0.388 OA
HETATM   64  H   UNK N   1      33.656  11.065  13.555  0.00  0.00     0.210 HD
ENDBRANCH  46  63
BRANCH  47  65
HETATM   65  O   UNK N   1      35.195  13.462  14.124  0.00  0.00    -0.286 OA
BRANCH  65  66
HETATM   66  P   UNK N   1      36.246  13.255  15.513  0.00  0.00     0.391 P 
HETATM   67  O   UNK N   1      35.394  13.478  16.789  0.00  0.00    -0.632 OA
BRANCH  66  68
HETATM   68  O   UNK N   1      36.850  11.634  15.647  0.00  0.00    -0.307 OA
HETATM   69  H   UNK N   1      37.571  11.375  16.241  0.00  0.00     0.222 HD
ENDBRANCH  66  68
BRANCH  66  70
HETATM   70  O   UNK N   1      37.526  14.429  15.564  0.00  0.00    -0.307 OA
HETATM   71  H   UNK N   1      38.025  15.259  15.616  0.00  0.00     0.222 HD
ENDBRANCH  66  70
ENDBRANCH  65  66
ENDBRANCH  47  65
ENDBRANCH  42  43
ENDBRANCH  41  42
ENDBRANCH  37  41
ENDBRANCH   1  37
TORSDOF 29
ENDMDL
MODEL 2
REMARK VINA RESULT:      -7.5      5.394     13.645
REMARK  29 active torsions:
REMARK  status: ('A' for Active; 'I' for Inactive)
REMARK    1  A    between atoms: C_2  and  C_4 
REMARK    2  A    between atoms: C_2  and  C_39 
REMARK    3  A    between atoms: C_4  and  O_5 
REMARK    4  A    between atoms: P_6  and  O_5 
REMARK    5  A    between atoms: P_6  and  O_7 
REMARK    6  A    between atoms: P_6  and  O_9 
REMARK    7  A    between atoms: P_10  and  O_9 
REMARK    8  A    between atoms: P_10  and  O_11 
REMARK    9  A    between atoms: P_10  and  O_13 
REMARK   10  A    between atoms: O_13  and  C_14 
REMARK   11  A    between atoms: C_15  and  C_14 
REMARK   12  A    between atoms: C_17  and  N_26 
REMARK   13  A    between atoms: C_18  and  O_19 
REMARK   14  A    between atoms: C_20  and  O_21 
REMARK   15  A    between atoms: O_21  and  P_22 
REMARK   16  A    between atoms: P_22  and  O_23 
REMARK   17  A    between atoms: P_22  and  O_24 
REMARK   18  A    between atoms: C_31  and  N_32 
REMARK   19  A    between atoms: C_39  and  O_40 
REMARK   20  A    between atoms: C_39  and  C_41 
REMARK       I    between atoms: C_41  and  N_43 
REMARK   21  A    between atoms: N_43  and  C_44 
REMARK   22  A    between atoms: C_44  and  C_45 
REMARK   23  A    between atoms: C_45  and  C_46 
REMARK       I    between atoms: C_46  and  N_48 
REMARK   24  A    between atoms: N_48  and  C_49 
REMARK   25  A    between atoms: C_49  and  C_50 
REMARK   26  A    between atoms: C_50  and  S_51 
REMARK   27  A    between atoms: S_51  and  C_52 
REMARK   28  A    between atoms: C_52  and  C_54 
REMARK   29  A    between atoms: C_57  and  O_58 
ROOT
HETATM    1  O   UNK N   1      27.486  18.532   5.304  0.00  0.00    -0.195 OA
ENDROOT
BRANCH   1   2
HETATM    2  P   UNK N   1      28.390  17.374   6.243  0.00  0.00     0.401 P 
HETATM    3  O   UNK N   1      27.835  17.449   7.690  0.00  0.00    -0.631 OA
BRANCH   2   4
HETATM    4  O   UNK N   1      30.087  17.770   6.286  0.00  0.00    -0.296 OA
BRANCH   4   5
HETATM    5  C   UNK N   1      30.798  16.590   6.522  0.00  0.00     0.192 C 
BRANCH   5   6
HETATM    6  C   UNK N   1      32.305  16.855   6.644  0.00  0.00     0.009 C 
HETATM    7  C   UNK N   1      32.841  17.456   5.356  0.00  0.00     0.020 C 
HETATM    8  C   UNK N   1      32.997  15.547   6.916  0.00  0.00     0.020 C 
BRANCH   6   9
HETATM    9  C   UNK N   1      32.633  17.753   7.838  0.00  0.00     0.219 C 
BRANCH   9  10
HETATM   10  O   UNK N   1      31.623  17.836   8.801  0.00  0.00    -0.385 OA
HETATM   11  H   UNK N   1      30.661  17.833   8.678  0.00  0.00     0.210 HD
ENDBRANCH   9  10
BRANCH   9  12
HETATM   12  C   UNK N   1      33.993  17.718   8.435  0.00  0.00     0.247 C 
HETATM   13  O   UNK N   1      34.911  18.378   7.966  0.00  0.00    -0.271 OA
HETATM   14  N   UNK N   1      34.140  17.058   9.599  0.00  0.00    -0.358 N 
HETATM   15  H   UNK N   1      33.406  16.488   9.923  0.00  0.00     0.162 HD
BRANCH  14  16
HETATM   16  C   UNK N   1      35.332  17.162  10.373  0.00  0.00     0.132 C 
BRANCH  16  17
HETATM   17  C   UNK N   1      35.325  16.016  11.364  0.00  0.00     0.122 C 
BRANCH  17  18
HETATM   18  C   UNK N   1      36.524  15.128  11.199  0.00  0.00     0.219 C 
HETATM   19  O   UNK N   1      37.235  15.281  10.220  0.00  0.00    -0.274 OA
HETATM   20  N   UNK N   1      36.862  14.190  12.126  0.00  0.00    -0.360 N 
HETATM   21  H   UNK N   1      37.720  13.722  12.012  0.00  0.00     0.162 HD
BRANCH  20  22
HETATM   22  C   UNK N   1      36.046  13.833  13.269  0.00  0.00     0.133 C 
BRANCH  22  23
HETATM   23  C   UNK N   1      35.190  12.600  13.024  0.00  0.00     0.102 C 
BRANCH  23  24
HETATM   24  S   UNK N   1      35.963  11.201  13.896  0.00  0.00    -0.086 SA
BRANCH  24  25
HETATM   25  C   UNK N   1      34.686  11.186  15.150  0.00  0.00     0.219 C 
HETATM   26  O   UNK N   1      33.562  10.823  14.842  0.00  0.00    -0.280 OA
BRANCH  25  27
HETATM   27  C   UNK N   1      34.965  11.670  16.518  0.00  0.00     0.021 A 
HETATM   28  C   UNK N   1      35.203  10.757  17.553  0.00  0.00     0.019 A 
HETATM   29  C   UNK N   1      35.396  11.212  18.859  0.00  0.00     0.037 A 
HETATM   30  C   UNK N   1      35.354  12.581  19.139  0.00  0.00     0.065 A 
HETATM   31  C   UNK N   1      35.132  13.498  18.109  0.00  0.00     0.037 A 
HETATM   32  C   UNK N   1      34.937  13.044  16.806  0.00  0.00     0.019 A 
BRANCH  30  33
HETATM   33  O   UNK N   1      35.523  13.016  20.396  0.00  0.00    -0.361 OA
HETATM   34  H   UNK N   1      36.013  12.520  21.022  0.00  0.00     0.217 HD
ENDBRANCH  30  33
ENDBRANCH  25  27
ENDBRANCH  24  25
ENDBRANCH  23  24
ENDBRANCH  22  23
ENDBRANCH  20  22
ENDBRANCH  17  18
ENDBRANCH  16  17
ENDBRANCH  14  16
ENDBRANCH   9  12
ENDBRANCH   6   9
ENDBRANCH   5   6
ENDBRANCH   4   5
ENDBRANCH   2   4
BRANCH   2  35
HETATM   35  O   UNK N   1      28.105  15.762   5.663  0.00  0.00    -0.307 OA
HETATM   36  H   UNK N   1      27.821  15.008   6.204  0.00  0.00     0.222 HD
ENDBRANCH   2  35
ENDBRANCH   1   2
BRANCH   1  37
HETATM   37  P   UNK N   1      26.018  17.745   4.772  0.00  0.00     0.401 P 
HETATM   38  O   UNK N   1      26.421  16.787   3.619  0.00  0.00    -0.631 OA
BRANCH  37  39
HETATM   39  O   UNK N   1      25.380  16.720   6.021  0.00  0.00    -0.307 OA
HETATM   40  H   UNK N   1      24.945  17.087   6.806  0.00  0.00     0.222 HD
ENDBRANCH  37  39
BRANCH  37  41
HETATM   41  O   UNK N   1      24.799  18.817   4.121  0.00  0.00    -0.294 OA
BRANCH  41  42
HETATM   42  C   UNK N   1      23.664  18.032   3.925  0.00  0.00     0.215 C 
BRANCH  42  43
HETATM   43  C   UNK N   1      22.485  18.556   4.750  0.00  0.00     0.180 C 
HETATM   44  O   UNK N   1      22.393  17.754   5.910  0.00  0.00    -0.353 OA
HETATM   45  C   UNK N   1      21.320  16.853   5.700  0.00  0.00     0.262 C 
HETATM   46  C   UNK N   1      20.836  17.013   4.280  0.00  0.00     0.199 C 
HETATM   47  C   UNK N   1      21.129  18.452   4.053  0.00  0.00     0.197 C 
BRANCH  45  48
HETATM   48  N   UNK N   1      21.726  15.465   5.917  0.00  0.00    -0.297 N 
HETATM   49  C   UNK N   1      22.282  14.610   5.021  0.00  0.00     0.188 A 
HETATM   50  N   UNK N   1      22.504  13.384   5.576  0.00  0.00    -0.346 N 
HETATM   51  C   UNK N   1      22.069  13.509   6.844  0.00  0.00     0.122 A 
ATOM     52  HN  UNK N   1      22.908  12.559   5.133  1.00  0.00     0.167 HD
HETATM   53  C   UNK N   1      22.040  12.583   7.875  0.00  0.00     0.131 A 
HETATM   54  C   UNK N   1      21.607  14.756   7.048  0.00  0.00     0.142 A 
HETATM   55  N   UNK N   1      21.537  12.981   9.082  0.00  0.00    -0.337 N 
HETATM   56  C   UNK N   1      21.074  14.262   9.266  0.00  0.00     0.183 A 
ATOM     57  HN  UNK N   1      21.504  12.319   9.856  1.00  0.00     0.168 HD
HETATM   58  N   UNK N   1      21.106  15.165   8.238  0.00  0.00    -0.336 N 
ATOM     59  HN  UNK N   1      20.765  16.118   8.365  1.00  0.00     0.168 HD
BRANCH  53  60
HETATM   60  N   UNK N   1      22.511  11.267   7.692  0.00  0.00    -0.383 N 
HETATM   61  H   UNK N   1      21.955  10.514   7.387  0.00  0.00     0.157 HD
HETATM   62  H   UNK N   1      23.460  11.090   7.883  0.00  0.00     0.157 HD
ENDBRANCH  53  60
ENDBRANCH  45  48
BRANCH  46  63
HETATM   63  O   UNK N   1      19.471  16.745   4.200  0.00  0.00    -0.388 OA
HETATM   64  H   UNK N   1      19.128  16.026   3.646  0.00  0.00     0.210 HD
ENDBRANCH  46  63
BRANCH  47  65
HETATM   65  O   UNK N   1      21.156  18.789   2.687  0.00  0.00    -0.286 OA
BRANCH  65  66
HETATM   66  P   UNK N   1      21.238  20.539   2.606  0.00  0.00     0.391 P 
HETATM   67  O   UNK N   1      20.738  20.971   1.203  0.00  0.00    -0.632 OA
BRANCH  66  68
HETATM   68  O   UNK N   1      20.158  21.303   3.729  0.00  0.00    -0.307 OA
HETATM   69  H   UNK N   1      19.205  21.400   3.579  0.00  0.00     0.222 HD
ENDBRANCH  66  68
BRANCH  66  70
HETATM   70  O   UNK N   1      22.861  21.140   2.758  0.00  0.00    -0.307 OA
HETATM   71  H   UNK N   1      23.808  21.222   2.946  0.00  0.00     0.222 HD
ENDBRANCH  66  70
ENDBRANCH  65  66
ENDBRANCH  47  65
ENDBRANCH  42  43
ENDBRANCH  41  42
ENDBRANCH  37  41
ENDBRANCH   1  37
TORSDOF 29
ENDMDL
MODEL 3
REMARK VINA RESULT:      -7.3      8.634     13.508
REMARK  29 active torsions:
REMARK  status: ('A' for Active; 'I' for Inactive)
REMARK    1  A    between atoms: C_2  and  C_4 
REMARK    2  A    between atoms: C_2  and  C_39 
REMARK    3  A    between atoms: C_4  and  O_5 
REMARK    4  A    between atoms: P_6  and  O_5 
REMARK    5  A    between atoms: P_6  and  O_7 
REMARK    6  A    between atoms: P_6  and  O_9 
REMARK    7  A    between atoms: P_10  and  O_9 
REMARK    8  A    between atoms: P_10  and  O_11 
REMARK    9  A    between atoms: P_10  and  O_13 
REMARK   10  A    between atoms: O_13  and  C_14 
REMARK   11  A    between atoms: C_15  and  C_14 
REMARK   12  A    between atoms: C_17  and  N_26 
REMARK   13  A    between atoms: C_18  and  O_19 
REMARK   14  A    between atoms: C_20  and  O_21 
REMARK   15  A    between atoms: O_21  and  P_22 
REMARK   16  A    between atoms: P_22  and  O_23 
REMARK   17  A    between atoms: P_22  and  O_24 
REMARK   18  A    between atoms: C_31  and  N_32 
REMARK   19  A    between atoms: C_39  and  O_40 
REMARK   20  A    between atoms: C_39  and  C_41 
REMARK       I    between atoms: C_41  and  N_43 
REMARK   21  A    between atoms: N_43  and  C_44 
REMARK   22  A    between atoms: C_44  and  C_45 
REMARK   23  A    between atoms: C_45  and  C_46 
REMARK       I    between atoms: C_46  and  N_48 
REMARK   24  A    between atoms: N_48  and  C_49 
REMARK   25  A    between atoms: C_49  and  C_50 
REMARK   26  A    between atoms: C_50  and  S_51 
REMARK   27  A    between atoms: S_51  and  C_52 
REMARK   28  A    between atoms: C_52  and  C_54 
REMARK   29  A    between atoms: C_57  and  O_58 
ROOT
HETATM    1  O   UNK N   1      20.707  16.660   8.718  0.00  0.00    -0.195 OA
ENDROOT
BRANCH   1   2
HETATM    2  P   UNK N   1      20.292  14.980   8.929  0.00  0.00     0.401 P 
HETATM    3  O   UNK N   1      18.897  14.952   9.609  0.00  0.00    -0.631 OA
BRANCH   2   4
HETATM    4  O   UNK N   1      21.426  14.164   9.971  0.00  0.00    -0.296 OA
BRANCH   4   5
HETATM    5  C   UNK N   1      22.583  13.906   9.229  0.00  0.00     0.192 C 
BRANCH   5   6
HETATM    6  C   UNK N   1      23.079  12.470   9.444  0.00  0.00     0.009 C 
HETATM    7  C   UNK N   1      22.486  11.891  10.717  0.00  0.00     0.020 C 
HETATM    8  C   UNK N   1      24.580  12.498   9.555  0.00  0.00     0.020 C 
BRANCH   6   9
HETATM    9  C   UNK N   1      22.771  11.572   8.245  0.00  0.00     0.219 C 
BRANCH   9  10
HETATM   10  O   UNK N   1      21.597  11.896   7.559  0.00  0.00    -0.385 OA
HETATM   11  H   UNK N   1      20.705  11.531   7.668  0.00  0.00     0.210 HD
ENDBRANCH   9  10
BRANCH   9  12
HETATM   12  C   UNK N   1      23.870  11.152   7.336  0.00  0.00     0.247 C 
HETATM   13  O   UNK N   1      24.149   9.971   7.179  0.00  0.00    -0.271 OA
HETATM   14  N   UNK N   1      24.441  12.105   6.578  0.00  0.00    -0.358 N 
HETATM   15  H   UNK N   1      24.242  13.051   6.765  0.00  0.00     0.162 HD
BRANCH  14  16
HETATM   16  C   UNK N   1      25.328  11.780   5.510  0.00  0.00     0.132 C 
BRANCH  16  17
HETATM   17  C   UNK N   1      24.708  12.312   4.233  0.00  0.00     0.122 C 
BRANCH  17  18
HETATM   18  C   UNK N   1      24.216  13.720   4.396  0.00  0.00     0.219 C 
HETATM   19  O   UNK N   1      23.113  13.903   4.883  0.00  0.00    -0.274 OA
HETATM   20  N   UNK N   1      24.979  14.796   4.057  0.00  0.00    -0.360 N 
HETATM   21  H   UNK N   1      24.642  15.689   4.295  0.00  0.00     0.162 HD
BRANCH  20  22
HETATM   22  C   UNK N   1      26.252  14.716   3.370  0.00  0.00     0.133 C 
BRANCH  22  23
HETATM   23  C   UNK N   1      27.365  15.454   4.096  0.00  0.00     0.102 C 
BRANCH  23  24
HETATM   24  S   UNK N   1      26.653  16.205   5.595  0.00  0.00    -0.086 SA
BRANCH  24  25
HETATM   25  C   UNK N   1      26.997  17.862   5.012  0.00  0.00     0.219 C 
HETATM   26  O   UNK N   1      28.101  18.342   5.221  0.00  0.00    -0.280 OA
BRANCH  25  27
HETATM   27  C   UNK N   1      25.947  18.665   4.352  0.00  0.00     0.021 A 
HETATM   28  C   UNK N   1      26.298  19.717   3.497  0.00  0.00     0.019 A 
HETATM   29  C   UNK N   1      25.307  20.520   2.929  0.00  0.00     0.037 A 
HETATM   30  C   UNK N   1      23.959  20.276   3.212  0.00  0.00     0.065 A 
HETATM   31  C   UNK N   1      23.601  19.220   4.052  0.00  0.00     0.037 A 
HETATM   32  C   UNK N   1      24.591  18.419   4.620  0.00  0.00     0.019 A 
BRANCH  30  33
HETATM   33  O   UNK N   1      23.009  21.058   2.679  0.00  0.00    -0.361 OA
HETATM   34  H   UNK N   1      22.251  21.308   3.170  0.00  0.00     0.217 HD
ENDBRANCH  30  33
ENDBRANCH  25  27
ENDBRANCH  24  25
ENDBRANCH  23  24
ENDBRANCH  22  23
ENDBRANCH  20  22
ENDBRANCH  17  18
ENDBRANCH  16  17
ENDBRANCH  14  16
ENDBRANCH   9  12
ENDBRANCH   6   9
ENDBRANCH   5   6
ENDBRANCH   4   5
ENDBRANCH   2   4
BRANCH   2  35
HETATM   35  O   UNK N   1      20.131  14.193   7.388  0.00  0.00    -0.307 OA
HETATM   36  H   UNK N   1      20.301  13.254   7.212  0.00  0.00     0.222 HD
ENDBRANCH   2  35
ENDBRANCH   1   2
BRANCH   1  37
HETATM   37  P   UNK N   1      21.053  16.907   7.022  0.00  0.00     0.401 P 
HETATM   38  O   UNK N   1      21.283  18.430   6.833  0.00  0.00    -0.631 OA
BRANCH  37  39
HETATM   39  O   UNK N   1      22.557  16.157   6.583  0.00  0.00    -0.307 OA
HETATM   40  H   UNK N   1      22.665  15.690   5.740  0.00  0.00     0.222 HD
ENDBRANCH  37  39
BRANCH  37  41
HETATM   41  O   UNK N   1      19.760  16.462   5.932  0.00  0.00    -0.294 OA
BRANCH  41  42
HETATM   42  C   UNK N   1      20.371  15.825   4.853  0.00  0.00     0.215 C 
BRANCH  42  43
HETATM   43  C   UNK N   1      19.501  15.922   3.596  0.00  0.00     0.180 C 
HETATM   44  O   UNK N   1      19.171  14.603   3.209  0.00  0.00    -0.353 OA
HETATM   45  C   UNK N   1      20.008  14.278   2.112  0.00  0.00     0.262 C 
HETATM   46  C   UNK N   1      21.002  15.397   1.924  0.00  0.00     0.199 C 
HETATM   47  C   UNK N   1      20.199  16.556   2.393  0.00  0.00     0.197 C 
BRANCH  45  48
HETATM   48  N   UNK N   1      20.730  13.025   2.333  0.00  0.00    -0.297 N 
HETATM   49  C   UNK N   1      21.740  12.503   1.590  0.00  0.00     0.188 A 
HETATM   50  N   UNK N   1      22.151  11.301   2.087  0.00  0.00    -0.346 N 
HETATM   51  C   UNK N   1      21.367  11.099   3.162  0.00  0.00     0.122 A 
ATOM     52  HN  UNK N   1      22.888  10.694   1.727  1.00  0.00     0.167 HD
HETATM   53  C   UNK N   1      21.330  10.040   4.054  0.00  0.00     0.131 A 
HETATM   54  C   UNK N   1      20.519  12.133   3.310  0.00  0.00     0.142 A 
HETATM   55  N   UNK N   1      20.419  10.089   5.072  0.00  0.00    -0.337 N 
HETATM   56  C   UNK N   1      19.565  11.158   5.204  0.00  0.00     0.183 A 
ATOM     57  HN  UNK N   1      20.372   9.322   5.743  1.00  0.00     0.168 HD
HETATM   58  N   UNK N   1      19.612  12.196   4.314  0.00  0.00    -0.336 N 
ATOM     59  HN  UNK N   1      18.982  12.994   4.403  1.00  0.00     0.168 HD
BRANCH  53  60
HETATM   60  N   UNK N   1      22.200   8.939   3.923  0.00  0.00    -0.383 N 
HETATM   61  H   UNK N   1      21.906   8.012   3.773  0.00  0.00     0.157 HD
HETATM   62  H   UNK N   1      23.168   9.109   3.987  0.00  0.00     0.157 HD
ENDBRANCH  53  60
ENDBRANCH  45  48
BRANCH  46  63
HETATM   63  O   UNK N   1      21.347  15.518   0.580  0.00  0.00    -0.388 OA
HETATM   64  H   UNK N   1      21.837  16.288   0.250  0.00  0.00     0.210 HD
ENDBRANCH  46  63
BRANCH  47  65
HETATM   65  O   UNK N   1      20.994  17.672   2.710  0.00  0.00    -0.286 OA
BRANCH  65  66
HETATM   66  P   UNK N   1      20.043  19.092   2.319  0.00  0.00     0.391 P 
HETATM   67  O   UNK N   1      20.266  20.136   3.443  0.00  0.00    -0.632 OA
BRANCH  66  68
HETATM   68  O   UNK N   1      20.584  19.868   0.864  0.00  0.00    -0.307 OA
HETATM   69  H   UNK N   1      20.698  19.408   0.018  0.00  0.00     0.222 HD
ENDBRANCH  66  68
BRANCH  66  70
HETATM   70  O   UNK N   1      18.337  18.765   2.281  0.00  0.00    -0.307 OA
HETATM   71  H   UNK N   1      17.376  18.822   2.401  0.00  0.00     0.222 HD
ENDBRANCH  66  70
ENDBRANCH  65  66
ENDBRANCH  47  65
ENDBRANCH  42  43
ENDBRANCH  41  42
ENDBRANCH  37  41
ENDBRANCH   1  37
TORSDOF 29
ENDMDL
MODEL 4
REMARK VINA RESULT:      -7.2      8.026     12.418
REMARK  29 active torsions:
REMARK  status: ('A' for Active; 'I' for Inactive)
REMARK    1  A    between atoms: C_2  and  C_4 
REMARK    2  A    between atoms: C_2  and  C_39 
REMARK    3  A    between atoms: C_4  and  O_5 
REMARK    4  A    between atoms: P_6  and  O_5 
REMARK    5  A    between atoms: P_6  and  O_7 
REMARK    6  A    between atoms: P_6  and  O_9 
REMARK    7  A    between atoms: P_10  and  O_9 
REMARK    8  A    between atoms: P_10  and  O_11 
REMARK    9  A    between atoms: P_10  and  O_13 
REMARK   10  A    between atoms: O_13  and  C_14 
REMARK   11  A    between atoms: C_15  and  C_14 
REMARK   12  A    between atoms: C_17  and  N_26 
REMARK   13  A    between atoms: C_18  and  O_19 
REMARK   14  A    between atoms: C_20  and  O_21 
REMARK   15  A    between atoms: O_21  and  P_22 
REMARK   16  A    between atoms: P_22  and  O_23 
REMARK   17  A    between atoms: P_22  and  O_24 
REMARK   18  A    between atoms: C_31  and  N_32 
REMARK   19  A    between atoms: C_39  and  O_40 
REMARK   20  A    between atoms: C_39  and  C_41 
REMARK       I    between atoms: C_41  and  N_43 
REMARK   21  A    between atoms: N_43  and  C_44 
REMARK   22  A    between atoms: C_44  and  C_45 
REMARK   23  A    between atoms: C_45  and  C_46 
REMARK       I    between atoms: C_46  and  N_48 
REMARK   24  A    between atoms: N_48  and  C_49 
REMARK   25  A    between atoms: C_49  and  C_50 
REMARK   26  A    between atoms: C_50  and  S_51 
REMARK   27  A    between atoms: S_51  and  C_52 
REMARK   28  A    between atoms: C_52  and  C_54 
REMARK   29  A    between atoms: C_57  and  O_58 
ROOT
HETATM    1  O   UNK N   1      19.459  16.434   6.744  0.00  0.00    -0.195 OA
ENDROOT
BRANCH   1   2
HETATM    2  P   UNK N   1      19.937  16.215   8.406  0.00  0.00     0.401 P 
HETATM    3  O   UNK N   1      20.268  17.627   8.959  0.00  0.00    -0.631 OA
BRANCH   2   4
HETATM    4  O   UNK N   1      21.367  15.227   8.537  0.00  0.00    -0.296 OA
BRANCH   4   5
HETATM    5  C   UNK N   1      21.270  14.485   9.718  0.00  0.00     0.192 C 
BRANCH   5   6
HETATM    6  C   UNK N   1      21.887  13.089   9.556  0.00  0.00     0.009 C 
HETATM    7  C   UNK N   1      21.480  12.482   8.224  0.00  0.00     0.020 C 
HETATM    8  C   UNK N   1      21.391  12.218  10.679  0.00  0.00     0.020 C 
BRANCH   6   9
HETATM    9  C   UNK N   1      23.410  13.116   9.697  0.00  0.00     0.219 C 
BRANCH   9  10
HETATM   10  O   UNK N   1      23.886  12.745  10.957  0.00  0.00    -0.385 OA
HETATM   11  H   UNK N   1      23.410  12.699  11.801  0.00  0.00     0.210 HD
ENDBRANCH   9  10
BRANCH   9  12
HETATM   12  C   UNK N   1      24.262  12.611   8.589  0.00  0.00     0.247 C 
HETATM   13  O   UNK N   1      24.403  11.412   8.390  0.00  0.00    -0.271 OA
HETATM   14  N   UNK N   1      24.746  13.518   7.720  0.00  0.00    -0.358 N 
HETATM   15  H   UNK N   1      24.670  14.476   7.935  0.00  0.00     0.162 HD
BRANCH  14  16
HETATM   16  C   UNK N   1      25.368  13.128   6.499  0.00  0.00     0.132 C 
BRANCH  16  17
HETATM   17  C   UNK N   1      26.325  14.235   6.108  0.00  0.00     0.122 C 
BRANCH  17  18
HETATM   18  C   UNK N   1      25.745  15.594   6.372  0.00  0.00     0.219 C 
HETATM   19  O   UNK N   1      24.573  15.793   6.100  0.00  0.00    -0.274 OA
HETATM   20  N   UNK N   1      26.474  16.592   6.943  0.00  0.00    -0.360 N 
HETATM   21  H   UNK N   1      26.001  17.419   7.192  0.00  0.00     0.162 HD
BRANCH  20  22
HETATM   22  C   UNK N   1      27.896  16.522   7.209  0.00  0.00     0.133 C 
BRANCH  22  23
HETATM   23  C   UNK N   1      28.710  17.463   6.334  0.00  0.00     0.102 C 
BRANCH  23  24
HETATM   24  S   UNK N   1      27.831  19.056   6.258  0.00  0.00    -0.086 SA
BRANCH  24  25
HETATM   25  C   UNK N   1      27.322  18.773   4.565  0.00  0.00     0.219 C 
HETATM   26  O   UNK N   1      28.068  18.155   3.821  0.00  0.00    -0.280 OA
BRANCH  25  27
HETATM   27  C   UNK N   1      26.054  19.334   4.053  0.00  0.00     0.021 A 
HETATM   28  C   UNK N   1      24.828  18.807   4.478  0.00  0.00     0.019 A 
HETATM   29  C   UNK N   1      23.633  19.290   3.941  0.00  0.00     0.037 A 
HETATM   30  C   UNK N   1      23.656  20.303   2.977  0.00  0.00     0.065 A 
HETATM   31  C   UNK N   1      24.874  20.843   2.560  0.00  0.00     0.037 A 
HETATM   32  C   UNK N   1      26.067  20.360   3.095  0.00  0.00     0.019 A 
BRANCH  30  33
HETATM   33  O   UNK N   1      22.509  20.754   2.450  0.00  0.00    -0.361 OA
HETATM   34  H   UNK N   1      22.218  20.476   1.604  0.00  0.00     0.217 HD
ENDBRANCH  30  33
ENDBRANCH  25  27
ENDBRANCH  24  25
ENDBRANCH  23  24
ENDBRANCH  22  23
ENDBRANCH  20  22
ENDBRANCH  17  18
ENDBRANCH  16  17
ENDBRANCH  14  16
ENDBRANCH   9  12
ENDBRANCH   6   9
ENDBRANCH   5   6
ENDBRANCH   4   5
ENDBRANCH   2   4
BRANCH   2  35
HETATM   35  O   UNK N   1      18.616  15.589   9.345  0.00  0.00    -0.307 OA
HETATM   36  H   UNK N   1      18.689  14.933  10.056  0.00  0.00     0.222 HD
ENDBRANCH   2  35
ENDBRANCH   1   2
BRANCH   1  37
HETATM   37  P   UNK N   1      20.918  16.524   5.785  0.00  0.00     0.401 P 
HETATM   38  O   UNK N   1      20.563  17.339   4.512  0.00  0.00    -0.631 OA
BRANCH  37  39
HETATM   39  O   UNK N   1      22.136  17.455   6.602  0.00  0.00    -0.307 OA
HETATM   40  H   UNK N   1      22.635  18.151   6.146  0.00  0.00     0.222 HD
ENDBRANCH  37  39
BRANCH  37  41
HETATM   41  O   UNK N   1      21.535  14.985   5.232  0.00  0.00    -0.294 OA
BRANCH  41  42
HETATM   42  C   UNK N   1      21.640  15.090   3.845  0.00  0.00     0.215 C 
BRANCH  42  43
HETATM   43  C   UNK N   1      21.774  13.707   3.200  0.00  0.00     0.180 C 
HETATM   44  O   UNK N   1      23.106  13.278   3.396  0.00  0.00    -0.353 OA
HETATM   45  C   UNK N   1      23.783  13.471   2.165  0.00  0.00     0.262 C 
HETATM   46  C   UNK N   1      22.856  14.197   1.221  0.00  0.00     0.199 C 
HETATM   47  C   UNK N   1      21.539  13.690   1.689  0.00  0.00     0.197 C 
BRANCH  45  48
HETATM   48  N   UNK N   1      25.007  14.253   2.335  0.00  0.00    -0.297 N 
HETATM   49  C   UNK N   1      25.117  15.572   2.640  0.00  0.00     0.188 A 
HETATM   50  N   UNK N   1      26.423  15.962   2.691  0.00  0.00    -0.346 N 
HETATM   51  C   UNK N   1      27.116  14.843   2.411  0.00  0.00     0.122 A 
ATOM     52  HN  UNK N   1      26.792  16.891   2.895  1.00  0.00     0.167 HD
HETATM   53  C   UNK N   1      28.483  14.638   2.317  0.00  0.00     0.131 A 
HETATM   54  C   UNK N   1      26.267  13.820   2.201  0.00  0.00     0.142 A 
HETATM   55  N   UNK N   1      28.925  13.381   2.012  0.00  0.00    -0.337 N 
HETATM   56  C   UNK N   1      28.038  12.351   1.806  0.00  0.00     0.183 A 
ATOM     57  HN  UNK N   1      29.927  13.204   1.937  1.00  0.00     0.168 HD
HETATM   58  N   UNK N   1      26.690  12.569   1.900  0.00  0.00    -0.336 N 
ATOM     59  HN  UNK N   1      26.024  11.812   1.749  1.00  0.00     0.168 HD
BRANCH  53  60
HETATM   60  N   UNK N   1      29.399  15.690   2.524  0.00  0.00    -0.383 N 
HETATM   61  H   UNK N   1      29.798  16.230   1.805  0.00  0.00     0.157 HD
HETATM   62  H   UNK N   1      29.656  15.897   3.451  0.00  0.00     0.157 HD
ENDBRANCH  53  60
ENDBRANCH  45  48
BRANCH  46  63
HETATM   63  O   UNK N   1      23.115  13.823  -0.095  0.00  0.00    -0.388 OA
HETATM   64  H   UNK N   1      22.527  13.218  -0.574  0.00  0.00     0.210 HD
ENDBRANCH  46  63
BRANCH  47  65
HETATM   65  O   UNK N   1      20.468  14.496   1.263  0.00  0.00    -0.286 OA
BRANCH  65  66
HETATM   66  P   UNK N   1      19.040  13.477   1.277  0.00  0.00     0.391 P 
HETATM   67  O   UNK N   1      18.549  13.371   2.744  0.00  0.00    -0.632 OA
BRANCH  66  68
HETATM   68  O   UNK N   1      17.718  14.185   0.405  0.00  0.00    -0.307 OA
HETATM   69  H   UNK N   1      16.944  13.686   0.102  0.00  0.00     0.222 HD
ENDBRANCH  66  68
BRANCH  66  70
HETATM   70  O   UNK N   1      19.370  11.855   0.748  0.00  0.00    -0.307 OA
HETATM   71  H   UNK N   1      19.278  10.929   0.478  0.00  0.00     0.222 HD
ENDBRANCH  66  70
ENDBRANCH  65  66
ENDBRANCH  47  65
ENDBRANCH  42  43
ENDBRANCH  41  42
ENDBRANCH  37  41
ENDBRANCH   1  37
TORSDOF 29
ENDMDL
MODEL 5
REMARK VINA RESULT:      -7.1      5.383     13.105
REMARK  29 active torsions:
REMARK  status: ('A' for Active; 'I' for Inactive)
REMARK    1  A    between atoms: C_2  and  C_4 
REMARK    2  A    between atoms: C_2  and  C_39 
REMARK    3  A    between atoms: C_4  and  O_5 
REMARK    4  A    between atoms: P_6  and  O_5 
REMARK    5  A    between atoms: P_6  and  O_7 
REMARK    6  A    between atoms: P_6  and  O_9 
REMARK    7  A    between atoms: P_10  and  O_9 
REMARK    8  A    between atoms: P_10  and  O_11 
REMARK    9  A    between atoms: P_10  and  O_13 
REMARK   10  A    between atoms: O_13  and  C_14 
REMARK   11  A    between atoms: C_15  and  C_14 
REMARK   12  A    between atoms: C_17  and  N_26 
REMARK   13  A    between atoms: C_18  and  O_19 
REMARK   14  A    between atoms: C_20  and  O_21 
REMARK   15  A    between atoms: O_21  and  P_22 
REMARK   16  A    between atoms: P_22  and  O_23 
REMARK   17  A    between atoms: P_22  and  O_24 
REMARK   18  A    between atoms: C_31  and  N_32 
REMARK   19  A    between atoms: C_39  and  O_40 
REMARK   20  A    between atoms: C_39  and  C_41 
REMARK       I    between atoms: C_41  and  N_43 
REMARK   21  A    between atoms: N_43  and  C_44 
REMARK   22  A    between atoms: C_44  and  C_45 
REMARK   23  A    between atoms: C_45  and  C_46 
REMARK       I    between atoms: C_46  and  N_48 
REMARK   24  A    between atoms: N_48  and  C_49 
REMARK   25  A    between atoms: C_49  and  C_50 
REMARK   26  A    between atoms: C_50  and  S_51 
REMARK   27  A    between atoms: S_51  and  C_52 
REMARK   28  A    between atoms: C_52  and  C_54 
REMARK   29  A    between atoms: C_57  and  O_58 
ROOT
HETATM    1  O   UNK N   1      27.850  15.852   5.099  0.00  0.00    -0.195 OA
ENDROOT
BRANCH   1   2
HETATM    2  P   UNK N   1      29.089  16.667   6.016  0.00  0.00     0.401 P 
HETATM    3  O   UNK N   1      29.402  17.986   5.260  0.00  0.00    -0.631 OA
BRANCH   2   4
HETATM    4  O   UNK N   1      30.552  15.723   6.098  0.00  0.00    -0.296 OA
BRANCH   4   5
HETATM    5  C   UNK N   1      31.612  16.595   6.361  0.00  0.00     0.192 C 
BRANCH   5   6
HETATM    6  C   UNK N   1      32.801  16.333   5.426  0.00  0.00     0.009 C 
HETATM    7  C   UNK N   1      33.034  17.530   4.520  0.00  0.00     0.020 C 
HETATM    8  C   UNK N   1      32.488  15.121   4.590  0.00  0.00     0.020 C 
BRANCH   6   9
HETATM    9  C   UNK N   1      34.073  15.983   6.200  0.00  0.00     0.219 C 
BRANCH   9  10
HETATM   10  O   UNK N   1      35.153  15.593   5.403  0.00  0.00    -0.385 OA
HETATM   11  H   UNK N   1      35.309  14.746   4.958  0.00  0.00     0.210 HD
ENDBRANCH   9  10
BRANCH   9  12
HETATM   12  C   UNK N   1      34.485  16.819   7.358  0.00  0.00     0.247 C 
HETATM   13  O   UNK N   1      34.602  18.033   7.256  0.00  0.00    -0.271 OA
HETATM   14  N   UNK N   1      34.571  16.213   8.557  0.00  0.00    -0.358 N 
HETATM   15  H   UNK N   1      34.531  15.231   8.601  0.00  0.00     0.162 HD
BRANCH  14  16
HETATM   16  C   UNK N   1      34.722  16.958   9.762  0.00  0.00     0.132 C 
BRANCH  16  17
HETATM   17  C   UNK N   1      35.312  16.022  10.798  0.00  0.00     0.122 C 
BRANCH  17  18
HETATM   18  C   UNK N   1      34.389  14.881  11.108  0.00  0.00     0.219 C 
HETATM   19  O   UNK N   1      33.187  15.049  10.987  0.00  0.00    -0.274 OA
HETATM   20  N   UNK N   1      34.853  13.655  11.479  0.00  0.00    -0.360 N 
HETATM   21  H   UNK N   1      34.201  12.923  11.556  0.00  0.00     0.162 HD
BRANCH  20  22
HETATM   22  C   UNK N   1      36.242  13.356  11.767  0.00  0.00     0.133 C 
BRANCH  22  23
HETATM   23  C   UNK N   1      36.570  13.435  13.249  0.00  0.00     0.102 C 
BRANCH  23  24
HETATM   24  S   UNK N   1      36.562  11.739  13.914  0.00  0.00    -0.086 SA
BRANCH  24  25
HETATM   25  C   UNK N   1      35.116  12.066  14.918  0.00  0.00     0.219 C 
HETATM   26  O   UNK N   1      34.033  12.192  14.367  0.00  0.00    -0.280 OA
BRANCH  25  27
HETATM   27  C   UNK N   1      35.235  12.248  16.379  0.00  0.00     0.021 A 
HETATM   28  C   UNK N   1      35.403  11.138  17.216  0.00  0.00     0.019 A 
HETATM   29  C   UNK N   1      35.445  11.305  18.602  0.00  0.00     0.037 A 
HETATM   30  C   UNK N   1      35.320  12.581  19.159  0.00  0.00     0.065 A 
HETATM   31  C   UNK N   1      35.168  13.694  18.330  0.00  0.00     0.037 A 
HETATM   32  C   UNK N   1      35.125  13.527  16.947  0.00  0.00     0.019 A 
BRANCH  30  33
HETATM   33  O   UNK N   1      35.344  12.738  20.491  0.00  0.00    -0.361 OA
HETATM   34  H   UNK N   1      35.929  12.244  21.030  0.00  0.00     0.217 HD
ENDBRANCH  30  33
ENDBRANCH  25  27
ENDBRANCH  24  25
ENDBRANCH  23  24
ENDBRANCH  22  23
ENDBRANCH  20  22
ENDBRANCH  17  18
ENDBRANCH  16  17
ENDBRANCH  14  16
ENDBRANCH   9  12
ENDBRANCH   6   9
ENDBRANCH   5   6
ENDBRANCH   4   5
ENDBRANCH   2   4
BRANCH   2  35
HETATM   35  O   UNK N   1      28.497  17.102   7.590  0.00  0.00    -0.307 OA
HETATM   36  H   UNK N   1      28.434  16.507   8.355  0.00  0.00     0.222 HD
ENDBRANCH   2  35
ENDBRANCH   1   2
BRANCH   1  37
HETATM   37  P   UNK N   1      26.304  16.366   5.732  0.00  0.00     0.401 P 
HETATM   38  O   UNK N   1      26.131  15.666   7.107  0.00  0.00    -0.631 OA
BRANCH  37  39
HETATM   39  O   UNK N   1      26.315  18.069   6.081  0.00  0.00    -0.307 OA
HETATM   40  H   UNK N   1      25.493  18.578   6.152  0.00  0.00     0.222 HD
ENDBRANCH  37  39
BRANCH  37  41
HETATM   41  O   UNK N   1      24.921  15.908   4.765  0.00  0.00    -0.294 OA
BRANCH  41  42
HETATM   42  C   UNK N   1      23.813  16.012   5.607  0.00  0.00     0.215 C 
BRANCH  42  43
HETATM   43  C   UNK N   1      22.807  14.892   5.328  0.00  0.00     0.180 C 
HETATM   44  O   UNK N   1      22.141  15.214   4.124  0.00  0.00    -0.353 OA
HETATM   45  C   UNK N   1      20.866  15.718   4.484  0.00  0.00     0.262 C 
HETATM   46  C   UNK N   1      20.815  15.853   5.986  0.00  0.00     0.199 C 
HETATM   47  C   UNK N   1      21.717  14.743   6.390  0.00  0.00     0.197 C 
BRANCH  45  48
HETATM   48  N   UNK N   1      20.605  17.022   3.874  0.00  0.00    -0.297 N 
HETATM   49  C   UNK N   1      19.433  17.484   3.366  0.00  0.00     0.188 A 
HETATM   50  N   UNK N   1      19.576  18.741   2.856  0.00  0.00    -0.346 N 
HETATM   51  C   UNK N   1      20.870  19.042   3.069  0.00  0.00     0.122 A 
ATOM     52  HN  UNK N   1      18.863  19.323   2.415  1.00  0.00     0.167 HD
HETATM   53  C   UNK N   1      21.586  20.187   2.754  0.00  0.00     0.131 A 
HETATM   54  C   UNK N   1      21.485  18.013   3.681  0.00  0.00     0.142 A 
HETATM   55  N   UNK N   1      22.911  20.228   3.087  0.00  0.00    -0.337 N 
HETATM   56  C   UNK N   1      23.514  19.165   3.716  0.00  0.00     0.183 A 
ATOM     57  HN  UNK N   1      23.459  21.059   2.866  1.00  0.00     0.168 HD
HETATM   58  N   UNK N   1      22.796  18.041   4.019  0.00  0.00    -0.336 N 
ATOM     59  HN  UNK N   1      23.235  17.246   4.485  1.00  0.00     0.168 HD
BRANCH  53  60
HETATM   60  N   UNK N   1      20.974  21.279   2.107  0.00  0.00    -0.383 N 
HETATM   61  H   UNK N   1      20.187  21.760   2.451  0.00  0.00     0.157 HD
HETATM   62  H   UNK N   1      21.360  21.581   1.253  0.00  0.00     0.157 HD
ENDBRANCH  53  60
ENDBRANCH  45  48
BRANCH  46  63
HETATM   63  O   UNK N   1      19.515  15.655   6.447  0.00  0.00    -0.388 OA
HETATM   64  H   UNK N   1      18.821  16.318   6.304  0.00  0.00     0.210 HD
ENDBRANCH  46  63
BRANCH  47  65
HETATM   65  O   UNK N   1      22.179  14.876   7.712  0.00  0.00    -0.286 OA
BRANCH  65  66
HETATM   66  P   UNK N   1      21.367  13.637   8.652  0.00  0.00     0.391 P 
HETATM   67  O   UNK N   1      19.958  14.169   9.019  0.00  0.00    -0.632 OA
BRANCH  66  68
HETATM   68  O   UNK N   1      21.083  12.193   7.733  0.00  0.00    -0.307 OA
HETATM   69  H   UNK N   1      21.191  12.136   6.771  0.00  0.00     0.222 HD
ENDBRANCH  66  68
BRANCH  66  70
HETATM   70  O   UNK N   1      22.174  13.300  10.153  0.00  0.00    -0.307 OA
HETATM   71  H   UNK N   1      22.396  12.960  11.034  0.00  0.00     0.222 HD
ENDBRANCH  66  70
ENDBRANCH  65  66
ENDBRANCH  47  65
ENDBRANCH  42  43
ENDBRANCH  41  42
ENDBRANCH  37  41
ENDBRANCH   1  37
TORSDOF 29
ENDMDL
MODEL 6
REMARK VINA RESULT:      -7.1      6.101     11.711
REMARK  29 active torsions:
REMARK  status: ('A' for Active; 'I' for Inactive)
REMARK    1  A    between atoms: C_2  and  C_4 
REMARK    2  A    between atoms: C_2  and  C_39 
REMARK    3  A    between atoms: C_4  and  O_5 
REMARK    4  A    between atoms: P_6  and  O_5 
REMARK    5  A    between atoms: P_6  and  O_7 
REMARK    6  A    between atoms: P_6  and  O_9 
REMARK    7  A    between atoms: P_10  and  O_9 
REMARK    8  A    between atoms: P_10  and  O_11 
REMARK    9  A    between atoms: P_10  and  O_13 
REMARK   10  A    between atoms: O_13  and  C_14 
REMARK   11  A    between atoms: C_15  and  C_14 
REMARK   12  A    between atoms: C_17  and  N_26 
REMARK   13  A    between atoms: C_18  and  O_19 
REMARK   14  A    between atoms: C_20  and  O_21 
REMARK   15  A    between atoms: O_21  and  P_22 
REMARK   16  A    between atoms: P_22  and  O_23 
REMARK   17  A    between atoms: P_22  and  O_24 
REMARK   18  A    between atoms: C_31  and  N_32 
REMARK   19  A    between atoms: C_39  and  O_40 
REMARK   20  A    between atoms: C_39  and  C_41 
REMARK       I    between atoms: C_41  and  N_43 
REMARK   21  A    between atoms: N_43  and  C_44 
REMARK   22  A    between atoms: C_44  and  C_45 
REMARK   23  A    between atoms: C_45  and  C_46 
REMARK       I    between atoms: C_46  and  N_48 
REMARK   24  A    between atoms: N_48  and  C_49 
REMARK   25  A    between atoms: C_49  and  C_50 
REMARK   26  A    between atoms: C_50  and  S_51 
REMARK   27  A    between atoms: S_51  and  C_52 
REMARK   28  A    between atoms: C_52  and  C_54 
REMARK   29  A    between atoms: C_57  and  O_58 
ROOT
HETATM    1  O   UNK N   1      20.169  13.604   2.725  0.00  0.00    -0.195 OA
ENDROOT
BRANCH   1   2
HETATM    2  P   UNK N   1      19.714  14.654   4.040  0.00  0.00     0.401 P 
HETATM    3  O   UNK N   1      19.605  16.084   3.446  0.00  0.00    -0.631 OA
BRANCH   2   4
HETATM    4  O   UNK N   1      20.925  14.673   5.294  0.00  0.00    -0.296 OA
BRANCH   4   5
HETATM    5  C   UNK N   1      20.286  14.424   6.512  0.00  0.00     0.192 C 
BRANCH   5   6
HETATM    6  C   UNK N   1      20.405  15.621   7.465  0.00  0.00     0.009 C 
HETATM    7  C   UNK N   1      20.422  15.149   8.908  0.00  0.00     0.020 C 
HETATM    8  C   UNK N   1      19.220  16.522   7.243  0.00  0.00     0.020 C 
BRANCH   6   9
HETATM    9  C   UNK N   1      21.636  16.476   7.159  0.00  0.00     0.219 C 
BRANCH   9  10
HETATM   10  O   UNK N   1      22.799  15.749   6.891  0.00  0.00    -0.385 OA
HETATM   11  H   UNK N   1      23.466  15.897   6.203  0.00  0.00     0.210 HD
ENDBRANCH   9  10
BRANCH   9  12
HETATM   12  C   UNK N   1      21.502  17.683   6.301  0.00  0.00     0.247 C 
HETATM   13  O   UNK N   1      21.131  18.754   6.763  0.00  0.00    -0.271 OA
HETATM   14  N   UNK N   1      21.951  17.593   5.036  0.00  0.00    -0.358 N 
HETATM   15  H   UNK N   1      22.188  16.709   4.673  0.00  0.00     0.162 HD
BRANCH  14  16
HETATM   16  C   UNK N   1      22.092  18.745   4.209  0.00  0.00     0.132 C 
BRANCH  16  17
HETATM   17  C   UNK N   1      23.488  19.291   4.432  0.00  0.00     0.122 C 
BRANCH  17  18
HETATM   18  C   UNK N   1      24.531  18.449   3.757  0.00  0.00     0.219 C 
HETATM   19  O   UNK N   1      24.269  17.286   3.502  0.00  0.00    -0.274 OA
HETATM   20  N   UNK N   1      25.739  18.955   3.386  0.00  0.00    -0.360 N 
HETATM   21  H   UNK N   1      26.330  18.381   2.848  0.00  0.00     0.162 HD
BRANCH  20  22
HETATM   22  C   UNK N   1      26.215  20.280   3.728  0.00  0.00     0.133 C 
BRANCH  22  23
HETATM   23  C   UNK N   1      27.510  20.258   4.524  0.00  0.00     0.102 C 
BRANCH  23  24
HETATM   24  S   UNK N   1      27.080  20.088   6.286  0.00  0.00    -0.086 SA
BRANCH  24  25
HETATM   25  C   UNK N   1      27.731  18.422   6.355  0.00  0.00     0.219 C 
HETATM   26  O   UNK N   1      27.089  17.517   5.844  0.00  0.00    -0.280 OA
BRANCH  25  27
HETATM   27  C   UNK N   1      28.988  18.130   7.076  0.00  0.00     0.021 A 
HETATM   28  C   UNK N   1      29.950  17.291   6.502  0.00  0.00     0.019 A 
HETATM   29  C   UNK N   1      31.105  16.959   7.214  0.00  0.00     0.037 A 
HETATM   30  C   UNK N   1      31.306  17.465   8.501  0.00  0.00     0.065 A 
HETATM   31  C   UNK N   1      30.357  18.315   9.074  0.00  0.00     0.037 A 
HETATM   32  C   UNK N   1      29.204  18.645   8.364  0.00  0.00     0.019 A 
BRANCH  30  33
HETATM   33  O   UNK N   1      32.407  17.132   9.190  0.00  0.00    -0.361 OA
HETATM   34  H   UNK N   1      33.136  17.718   9.257  0.00  0.00     0.217 HD
ENDBRANCH  30  33
ENDBRANCH  25  27
ENDBRANCH  24  25
ENDBRANCH  23  24
ENDBRANCH  22  23
ENDBRANCH  20  22
ENDBRANCH  17  18
ENDBRANCH  16  17
ENDBRANCH  14  16
ENDBRANCH   9  12
ENDBRANCH   6   9
ENDBRANCH   5   6
ENDBRANCH   4   5
ENDBRANCH   2   4
BRANCH   2  35
HETATM   35  O   UNK N   1      18.144  14.227   4.649  0.00  0.00    -0.307 OA
HETATM   36  H   UNK N   1      17.449  14.852   4.910  0.00  0.00     0.222 HD
ENDBRANCH   2  35
ENDBRANCH   1   2
BRANCH   1  37
HETATM   37  P   UNK N   1      21.821  13.984   2.297  0.00  0.00     0.401 P 
HETATM   38  O   UNK N   1      21.814  14.358   0.791  0.00  0.00    -0.631 OA
BRANCH  37  39
HETATM   39  O   UNK N   1      22.360  15.413   3.124  0.00  0.00    -0.307 OA
HETATM   40  H   UNK N   1      22.296  16.291   2.716  0.00  0.00     0.222 HD
ENDBRANCH  37  39
BRANCH  37  41
HETATM   41  O   UNK N   1      22.952  12.662   2.474  0.00  0.00    -0.294 OA
BRANCH  41  42
HETATM   42  C   UNK N   1      22.999  12.378   3.838  0.00  0.00     0.215 C 
BRANCH  42  43
HETATM   43  C   UNK N   1      24.404  11.934   4.257  0.00  0.00     0.180 C 
HETATM   44  O   UNK N   1      24.263  11.111   5.397  0.00  0.00    -0.353 OA
HETATM   45  C   UNK N   1      24.620  11.902   6.518  0.00  0.00     0.262 C 
HETATM   46  C   UNK N   1      24.838  13.320   6.051  0.00  0.00     0.199 C 
HETATM   47  C   UNK N   1      25.331  13.078   4.669  0.00  0.00     0.197 C 
BRANCH  45  48
HETATM   48  N   UNK N   1      23.578  11.889   7.545  0.00  0.00    -0.297 N 
HETATM   49  C   UNK N   1      22.238  11.748   7.371  0.00  0.00     0.188 A 
HETATM   50  N   UNK N   1      21.575  11.811   8.562  0.00  0.00    -0.346 N 
HETATM   51  C   UNK N   1      22.546  11.990   9.475  0.00  0.00     0.122 A 
ATOM     52  HN  UNK N   1      20.570  11.737   8.723  1.00  0.00     0.167 HD
HETATM   53  C   UNK N   1      22.464  12.130  10.852  0.00  0.00     0.131 A 
HETATM   54  C   UNK N   1      23.745  12.034   8.866  0.00  0.00     0.142 A 
HETATM   55  N   UNK N   1      23.626  12.305  11.551  0.00  0.00    -0.337 N 
HETATM   56  C   UNK N   1      24.839  12.342  10.905  0.00  0.00     0.183 A 
ATOM     57  HN  UNK N   1      23.592  12.409  12.565  1.00  0.00     0.168 HD
HETATM   58  N   UNK N   1      24.904  12.206   9.545  0.00  0.00    -0.336 N 
ATOM     59  HN  UNK N   1      25.800  12.232   9.057  1.00  0.00     0.168 HD
BRANCH  53  60
HETATM   60  N   UNK N   1      21.223  12.095  11.520  0.00  0.00    -0.383 N 
HETATM   61  H   UNK N   1      21.111  11.882  12.475  0.00  0.00     0.157 HD
HETATM   62  H   UNK N   1      20.415  12.298  10.996  0.00  0.00     0.157 HD
ENDBRANCH  53  60
ENDBRANCH  45  48
BRANCH  46  63
HETATM   63  O   UNK N   1      25.799  13.948   6.839  0.00  0.00    -0.388 OA
HETATM   64  H   UNK N   1      25.778  13.888   7.807  0.00  0.00     0.210 HD
ENDBRANCH  46  63
BRANCH  47  65
HETATM   65  O   UNK N   1      25.236  14.219   3.854  0.00  0.00    -0.286 OA
BRANCH  65  66
HETATM   66  P   UNK N   1      26.871  14.623   3.366  0.00  0.00     0.391 P 
HETATM   67  O   UNK N   1      27.824  14.209   4.516  0.00  0.00    -0.632 OA
BRANCH  66  68
HETATM   68  O   UNK N   1      27.394  13.705   1.990  0.00  0.00    -0.307 OA
HETATM   69  H   UNK N   1      27.471  14.070   1.095  0.00  0.00     0.222 HD
ENDBRANCH  66  68
BRANCH  66  70
HETATM   70  O   UNK N   1      27.097  16.330   3.128  0.00  0.00    -0.307 OA
HETATM   71  H   UNK N   1      27.393  17.191   2.797  0.00  0.00     0.222 HD
ENDBRANCH  66  70
ENDBRANCH  65  66
ENDBRANCH  47  65
ENDBRANCH  42  43
ENDBRANCH  41  42
ENDBRANCH  37  41
ENDBRANCH   1  37
TORSDOF 29
ENDMDL
MODEL 7
REMARK VINA RESULT:      -7.0      5.563     12.396
REMARK  29 active torsions:
REMARK  status: ('A' for Active; 'I' for Inactive)
REMARK    1  A    between atoms: C_2  and  C_4 
REMARK    2  A    between atoms: C_2  and  C_39 
REMARK    3  A    between atoms: C_4  and  O_5 
REMARK    4  A    between atoms: P_6  and  O_5 
REMARK    5  A    between atoms: P_6  and  O_7 
REMARK    6  A    between atoms: P_6  and  O_9 
REMARK    7  A    between atoms: P_10  and  O_9 
REMARK    8  A    between atoms: P_10  and  O_11 
REMARK    9  A    between atoms: P_10  and  O_13 
REMARK   10  A    between atoms: O_13  and  C_14 
REMARK   11  A    between atoms: C_15  and  C_14 
REMARK   12  A    between atoms: C_17  and  N_26 
REMARK   13  A    between atoms: C_18  and  O_19 
REMARK   14  A    between atoms: C_20  and  O_21 
REMARK   15  A    between atoms: O_21  and  P_22 
REMARK   16  A    between atoms: P_22  and  O_23 
REMARK   17  A    between atoms: P_22  and  O_24 
REMARK   18  A    between atoms: C_31  and  N_32 
REMARK   19  A    between atoms: C_39  and  O_40 
REMARK   20  A    between atoms: C_39  and  C_41 
REMARK       I    between atoms: C_41  and  N_43 
REMARK   21  A    between atoms: N_43  and  C_44 
REMARK   22  A    between atoms: C_44  and  C_45 
REMARK   23  A    between atoms: C_45  and  C_46 
REMARK       I    between atoms: C_46  and  N_48 
REMARK   24  A    between atoms: N_48  and  C_49 
REMARK   25  A    between atoms: C_49  and  C_50 
REMARK   26  A    between atoms: C_50  and  S_51 
REMARK   27  A    between atoms: S_51  and  C_52 
REMARK   28  A    between atoms: C_52  and  C_54 
REMARK   29  A    between atoms: C_57  and  O_58 
ROOT
HETATM    1  O   UNK N   1      20.698  16.295   8.935  0.00  0.00    -0.195 OA
ENDROOT
BRANCH   1   2
HETATM    2  P   UNK N   1      20.575  14.557   8.913  0.00  0.00     0.401 P 
HETATM    3  O   UNK N   1      19.446  14.182   9.910  0.00  0.00    -0.631 OA
BRANCH   2   4
HETATM    4  O   UNK N   1      22.052  13.802   9.451  0.00  0.00    -0.296 OA
BRANCH   4   5
HETATM    5  C   UNK N   1      22.342  12.753   8.573  0.00  0.00     0.192 C 
BRANCH   5   6
HETATM    6  C   UNK N   1      23.854  12.613   8.346  0.00  0.00     0.009 C 
HETATM    7  C   UNK N   1      24.532  12.102   9.606  0.00  0.00     0.020 C 
HETATM    8  C   UNK N   1      24.407  13.966   7.989  0.00  0.00     0.020 C 
BRANCH   6   9
HETATM    9  C   UNK N   1      24.173  11.708   7.154  0.00  0.00     0.219 C 
BRANCH   9  10
HETATM   10  O   UNK N   1      23.754  10.383   7.300  0.00  0.00    -0.385 OA
HETATM   11  H   UNK N   1      24.113   9.689   7.875  0.00  0.00     0.210 HD
ENDBRANCH   9  10
BRANCH   9  12
HETATM   12  C   UNK N   1      23.991  12.220   5.771  0.00  0.00     0.247 C 
HETATM   13  O   UNK N   1      22.877  12.456   5.321  0.00  0.00    -0.271 OA
HETATM   14  N   UNK N   1      25.099  12.561   5.089  0.00  0.00    -0.358 N 
HETATM   15  H   UNK N   1      25.980  12.307   5.447  0.00  0.00     0.162 HD
BRANCH  14  16
HETATM   16  C   UNK N   1      25.030  13.279   3.860  0.00  0.00     0.132 C 
BRANCH  16  17
HETATM   17  C   UNK N   1      26.452  13.463   3.366  0.00  0.00     0.122 C 
BRANCH  17  18
HETATM   18  C   UNK N   1      26.557  14.581   2.371  0.00  0.00     0.219 C 
HETATM   19  O   UNK N   1      25.547  14.950   1.796  0.00  0.00    -0.274 OA
HETATM   20  N   UNK N   1      27.733  15.221   2.124  0.00  0.00    -0.360 N 
HETATM   21  H   UNK N   1      27.708  16.017   1.547  0.00  0.00     0.162 HD
BRANCH  20  22
HETATM   22  C   UNK N   1      29.018  14.810   2.653  0.00  0.00     0.133 C 
BRANCH  22  23
HETATM   23  C   UNK N   1      29.724  15.916   3.422  0.00  0.00     0.102 C 
BRANCH  23  24
HETATM   24  S   UNK N   1      31.051  15.152   4.408  0.00  0.00    -0.086 SA
BRANCH  24  25
HETATM   25  C   UNK N   1      31.550  16.732   5.087  0.00  0.00     0.219 C 
HETATM   26  O   UNK N   1      31.296  17.749   4.460  0.00  0.00    -0.280 OA
BRANCH  25  27
HETATM   27  C   UNK N   1      32.316  16.805   6.348  0.00  0.00     0.021 A 
HETATM   28  C   UNK N   1      31.909  16.062   7.463  0.00  0.00     0.019 A 
HETATM   29  C   UNK N   1      32.592  16.185   8.675  0.00  0.00     0.037 A 
HETATM   30  C   UNK N   1      33.685  17.050   8.780  0.00  0.00     0.065 A 
HETATM   31  C   UNK N   1      34.106  17.782   7.668  0.00  0.00     0.037 A 
HETATM   32  C   UNK N   1      33.424  17.660   6.458  0.00  0.00     0.019 A 
BRANCH  30  33
HETATM   33  O   UNK N   1      34.330  17.179   9.948  0.00  0.00    -0.361 OA
HETATM   34  H   UNK N   1      35.172  16.793  10.086  0.00  0.00     0.217 HD
ENDBRANCH  30  33
ENDBRANCH  25  27
ENDBRANCH  24  25
ENDBRANCH  23  24
ENDBRANCH  22  23
ENDBRANCH  20  22
ENDBRANCH  17  18
ENDBRANCH  16  17
ENDBRANCH  14  16
ENDBRANCH   9  12
ENDBRANCH   6   9
ENDBRANCH   5   6
ENDBRANCH   4   5
ENDBRANCH   2   4
BRANCH   2  35
HETATM   35  O   UNK N   1      20.084  13.998   7.343  0.00  0.00    -0.307 OA
HETATM   36  H   UNK N   1      19.272  14.258   6.879  0.00  0.00     0.222 HD
ENDBRANCH   2  35
ENDBRANCH   1   2
BRANCH   1  37
HETATM   37  P   UNK N   1      20.507  16.856   7.289  0.00  0.00     0.401 P 
HETATM   38  O   UNK N   1      19.015  16.646   6.919  0.00  0.00    -0.631 OA
BRANCH  37  39
HETATM   39  O   UNK N   1      20.770  18.570   7.188  0.00  0.00    -0.307 OA
HETATM   40  H   UNK N   1      20.039  19.188   7.029  0.00  0.00     0.222 HD
ENDBRANCH  37  39
BRANCH  37  41
HETATM   41  O   UNK N   1      21.442  15.981   6.098  0.00  0.00    -0.294 OA
BRANCH  41  42
HETATM   42  C   UNK N   1      22.549  16.781   5.817  0.00  0.00     0.215 C 
BRANCH  42  43
HETATM   43  C   UNK N   1      22.787  16.876   4.307  0.00  0.00     0.180 C 
HETATM   44  O   UNK N   1      24.183  16.825   4.096  0.00  0.00    -0.353 OA
HETATM   45  C   UNK N   1      24.607  18.152   3.837  0.00  0.00     0.262 C 
HETATM   46  C   UNK N   1      23.434  19.077   4.055  0.00  0.00     0.199 C 
HETATM   47  C   UNK N   1      22.309  18.183   3.674  0.00  0.00     0.197 C 
BRANCH  45  48
HETATM   48  N   UNK N   1      25.705  18.553   4.716  0.00  0.00    -0.297 N 
HETATM   49  C   UNK N   1      26.122  19.813   5.006  0.00  0.00     0.188 A 
HETATM   50  N   UNK N   1      27.196  19.798   5.847  0.00  0.00    -0.346 N 
HETATM   51  C   UNK N   1      27.427  18.491   6.069  0.00  0.00     0.122 A 
ATOM     52  HN  UNK N   1      27.708  20.596   6.224  1.00  0.00     0.167 HD
HETATM   53  C   UNK N   1      28.398  17.873   6.842  0.00  0.00     0.131 A 
HETATM   54  C   UNK N   1      26.532  17.747   5.394  0.00  0.00     0.142 A 
HETATM   55  N   UNK N   1      28.406  16.507   6.892  0.00  0.00    -0.337 N 
HETATM   56  C   UNK N   1      27.478  15.769   6.195  0.00  0.00     0.183 A 
ATOM     57  HN  UNK N   1      29.110  16.028   7.453  1.00  0.00     0.168 HD
HETATM   58  N   UNK N   1      26.527  16.393   5.435  0.00  0.00    -0.336 N 
ATOM     59  HN  UNK N   1      25.835  15.854   4.914  1.00  0.00     0.168 HD
BRANCH  53  60
HETATM   60  N   UNK N   1      29.354  18.623   7.556  0.00  0.00    -0.383 N 
HETATM   61  H   UNK N   1      29.870  19.371   7.178  0.00  0.00     0.157 HD
HETATM   62  H   UNK N   1      29.516  18.382   8.497  0.00  0.00     0.157 HD
ENDBRANCH  53  60
ENDBRANCH  45  48
BRANCH  46  63
HETATM   63  O   UNK N   1      23.524  20.181   3.211  0.00  0.00    -0.388 OA
HETATM   64  H   UNK N   1      24.332  20.369   2.708  0.00  0.00     0.210 HD
ENDBRANCH  46  63
BRANCH  47  65
HETATM   65  O   UNK N   1      21.069  18.639   4.159  0.00  0.00    -0.286 OA
BRANCH  65  66
HETATM   66  P   UNK N   1      20.346  19.585   2.871  0.00  0.00     0.391 P 
HETATM   67  O   UNK N   1      21.032  19.177   1.542  0.00  0.00    -0.632 OA
BRANCH  66  68
HETATM   68  O   UNK N   1      18.665  19.215   2.646  0.00  0.00    -0.307 OA
HETATM   69  H   UNK N   1      18.297  18.858   1.824  0.00  0.00     0.222 HD
ENDBRANCH  66  68
BRANCH  66  70
HETATM   70  O   UNK N   1      20.614  21.291   3.061  0.00  0.00    -0.307 OA
HETATM   71  H   UNK N   1      20.663  22.247   2.909  0.00  0.00     0.222 HD
ENDBRANCH  66  70
ENDBRANCH  65  66
ENDBRANCH  47  65
ENDBRANCH  42  43
ENDBRANCH  41  42
ENDBRANCH  37  41
ENDBRANCH   1  37
TORSDOF 29
ENDMDL
MODEL 8
REMARK VINA RESULT:      -7.0      5.462     11.441
REMARK  29 active torsions:
REMARK  status: ('A' for Active; 'I' for Inactive)
REMARK    1  A    between atoms: C_2  and  C_4 
REMARK    2  A    between atoms: C_2  and  C_39 
REMARK    3  A    between atoms: C_4  and  O_5 
REMARK    4  A    between atoms: P_6  and  O_5 
REMARK    5  A    between atoms: P_6  and  O_7 
REMARK    6  A    between atoms: P_6  and  O_9 
REMARK    7  A    between atoms: P_10  and  O_9 
REMARK    8  A    between atoms: P_10  and  O_11 
REMARK    9  A    between atoms: P_10  and  O_13 
REMARK   10  A    between atoms: O_13  and  C_14 
REMARK   11  A    between atoms: C_15  and  C_14 
REMARK   12  A    between atoms: C_17  and  N_26 
REMARK   13  A    between atoms: C_18  and  O_19 
REMARK   14  A    between atoms: C_20  and  O_21 
REMARK   15  A    between atoms: O_21  and  P_22 
REMARK   16  A    between atoms: P_22  and  O_23 
REMARK   17  A    between atoms: P_22  and  O_24 
REMARK   18  A    between atoms: C_31  and  N_32 
REMARK   19  A    between atoms: C_39  and  O_40 
REMARK   20  A    between atoms: C_39  and  C_41 
REMARK       I    between atoms: C_41  and  N_43 
REMARK   21  A    between atoms: N_43  and  C_44 
REMARK   22  A    between atoms: C_44  and  C_45 
REMARK   23  A    between atoms: C_45  and  C_46 
REMARK       I    between atoms: C_46  and  N_48 
REMARK   24  A    between atoms: N_48  and  C_49 
REMARK   25  A    between atoms: C_49  and  C_50 
REMARK   26  A    between atoms: C_50  and  S_51 
REMARK   27  A    between atoms: S_51  and  C_52 
REMARK   28  A    between atoms: C_52  and  C_54 
REMARK   29  A    between atoms: C_57  and  O_58 
ROOT
HETATM    1  O   UNK N   1      27.510  14.974   4.542  0.00  0.00    -0.195 OA
ENDROOT
BRANCH   1   2
HETATM    2  P   UNK N   1      29.203  14.562   4.588  0.00  0.00     0.401 P 
HETATM    3  O   UNK N   1      29.280  13.054   4.950  0.00  0.00    -0.631 OA
BRANCH   2   4
HETATM    4  O   UNK N   1      30.049  15.464   5.817  0.00  0.00    -0.296 OA
BRANCH   4   5
HETATM    5  C   UNK N   1      30.832  16.430   5.178  0.00  0.00     0.192 C 
BRANCH   5   6
HETATM    6  C   UNK N   1      32.299  16.348   5.621  0.00  0.00     0.009 C 
HETATM    7  C   UNK N   1      33.047  17.602   5.204  0.00  0.00     0.020 C 
HETATM    8  C   UNK N   1      32.925  15.146   4.966  0.00  0.00     0.020 C 
BRANCH   6   9
HETATM    9  C   UNK N   1      32.430  16.113   7.127  0.00  0.00     0.219 C 
BRANCH   9  10
HETATM   10  O   UNK N   1      33.662  15.592   7.531  0.00  0.00    -0.385 OA
HETATM   11  H   UNK N   1      34.544  15.989   7.466  0.00  0.00     0.210 HD
ENDBRANCH   9  10
BRANCH   9  12
HETATM   12  C   UNK N   1      31.891  17.119   8.079  0.00  0.00     0.247 C 
HETATM   13  O   UNK N   1      32.474  18.174   8.288  0.00  0.00    -0.271 OA
HETATM   14  N   UNK N   1      30.663  16.895   8.584  0.00  0.00    -0.358 N 
HETATM   15  H   UNK N   1      30.243  16.015   8.449  0.00  0.00     0.162 HD
BRANCH  14  16
HETATM   16  C   UNK N   1      29.958  17.898   9.310  0.00  0.00     0.132 C 
BRANCH  16  17
HETATM   17  C   UNK N   1      28.478  17.660   9.082  0.00  0.00     0.122 C 
BRANCH  17  18
HETATM   18  C   UNK N   1      28.122  17.717   7.626  0.00  0.00     0.219 C 
HETATM   19  O   UNK N   1      28.570  18.626   6.948  0.00  0.00    -0.274 OA
HETATM   20  N   UNK N   1      27.350  16.765   7.032  0.00  0.00    -0.360 N 
HETATM   21  H   UNK N   1      27.250  16.801   6.054  0.00  0.00     0.162 HD
BRANCH  20  22
HETATM   22  C   UNK N   1      26.667  15.702   7.742  0.00  0.00     0.133 C 
BRANCH  22  23
HETATM   23  C   UNK N   1      25.357  15.298   7.086  0.00  0.00     0.102 C 
BRANCH  23  24
HETATM   24  S   UNK N   1      25.301  13.478   7.022  0.00  0.00    -0.086 SA
BRANCH  24  25
HETATM   25  C   UNK N   1      23.640  13.436   7.690  0.00  0.00     0.219 C 
HETATM   26  O   UNK N   1      22.730  13.923   7.037  0.00  0.00    -0.280 OA
BRANCH  25  27
HETATM   27  C   UNK N   1      23.381  12.887   9.037  0.00  0.00     0.021 A 
HETATM   28  C   UNK N   1      22.077  12.858   9.546  0.00  0.00     0.019 A 
HETATM   29  C   UNK N   1      21.842  12.404  10.846  0.00  0.00     0.037 A 
HETATM   30  C   UNK N   1      22.907  11.975  11.643  0.00  0.00     0.065 A 
HETATM   31  C   UNK N   1      24.208  11.985  11.136  0.00  0.00     0.037 A 
HETATM   32  C   UNK N   1      24.443  12.440   9.839  0.00  0.00     0.019 A 
BRANCH  30  33
HETATM   33  O   UNK N   1      22.682  11.554  12.896  0.00  0.00    -0.361 OA
HETATM   34  H   UNK N   1      21.855  11.192  13.148  0.00  0.00     0.217 HD
ENDBRANCH  30  33
ENDBRANCH  25  27
ENDBRANCH  24  25
ENDBRANCH  23  24
ENDBRANCH  22  23
ENDBRANCH  20  22
ENDBRANCH  17  18
ENDBRANCH  16  17
ENDBRANCH  14  16
ENDBRANCH   9  12
ENDBRANCH   6   9
ENDBRANCH   5   6
ENDBRANCH   4   5
ENDBRANCH   2   4
BRANCH   2  35
HETATM   35  O   UNK N   1      29.922  14.753   3.018  0.00  0.00    -0.307 OA
HETATM   36  H   UNK N   1      29.573  14.391   2.189  0.00  0.00     0.222 HD
ENDBRANCH   2  35
ENDBRANCH   1   2
BRANCH   1  37
HETATM   37  P   UNK N   1      26.845  14.301   3.071  0.00  0.00     0.401 P 
HETATM   38  O   UNK N   1      27.182  15.301   1.933  0.00  0.00    -0.631 OA
BRANCH  37  39
HETATM   39  O   UNK N   1      27.660  12.827   2.645  0.00  0.00    -0.307 OA
HETATM   40  H   UNK N   1      27.174  12.057   2.311  0.00  0.00     0.222 HD
ENDBRANCH  37  39
BRANCH  37  41
HETATM   41  O   UNK N   1      25.107  14.112   3.065  0.00  0.00    -0.294 OA
BRANCH  41  42
HETATM   42  C   UNK N   1      24.584  15.374   2.785  0.00  0.00     0.215 C 
BRANCH  42  43
HETATM   43  C   UNK N   1      24.230  16.119   4.076  0.00  0.00     0.180 C 
HETATM   44  O   UNK N   1      22.829  16.033   4.240  0.00  0.00    -0.353 OA
HETATM   45  C   UNK N   1      22.294  17.286   3.850  0.00  0.00     0.262 C 
HETATM   46  C   UNK N   1      23.410  18.121   3.273  0.00  0.00     0.199 C 
HETATM   47  C   UNK N   1      24.565  17.610   4.056  0.00  0.00     0.197 C 
BRANCH  45  48
HETATM   48  N   UNK N   1      21.237  17.137   2.849  0.00  0.00    -0.297 N 
HETATM   49  C   UNK N   1      20.394  18.093   2.380  0.00  0.00     0.188 A 
HETATM   50  N   UNK N   1      19.520  17.578   1.468  0.00  0.00    -0.346 N 
HETATM   51  C   UNK N   1      19.852  16.277   1.386  0.00  0.00     0.122 A 
ATOM     52  HN  UNK N   1      18.782  18.068   0.961  1.00  0.00     0.167 HD
HETATM   53  C   UNK N   1      19.302  15.260   0.620  0.00  0.00     0.131 A 
HETATM   54  C   UNK N   1      20.883  16.014   2.210  0.00  0.00     0.142 A 
HETATM   55  N   UNK N   1      19.840  14.009   0.733  0.00  0.00    -0.337 N 
HETATM   56  C   UNK N   1      20.896  13.767   1.580  0.00  0.00     0.183 A 
ATOM     57  HN  UNK N   1      19.454  13.243   0.180  1.00  0.00     0.168 HD
HETATM   58  N   UNK N   1      21.426  14.780   2.331  0.00  0.00    -0.336 N 
ATOM     59  HN  UNK N   1      22.209  14.611   2.963  1.00  0.00     0.168 HD
BRANCH  53  60
HETATM   60  N   UNK N   1      18.219  15.500  -0.248  0.00  0.00    -0.383 N 
HETATM   61  H   UNK N   1      17.272  15.452   0.016  0.00  0.00     0.157 HD
HETATM   62  H   UNK N   1      18.423  15.731  -1.183  0.00  0.00     0.157 HD
ENDBRANCH  53  60
ENDBRANCH  45  48
BRANCH  46  63
HETATM   63  O   UNK N   1      23.180  19.473   3.515  0.00  0.00    -0.388 OA
HETATM   64  H   UNK N   1      22.395  19.923   3.164  0.00  0.00     0.210 HD
ENDBRANCH  46  63
BRANCH  47  65
HETATM   65  O   UNK N   1      25.801  17.915   3.459  0.00  0.00    -0.286 OA
BRANCH  65  66
HETATM   66  P   UNK N   1      26.415  19.339   4.279  0.00  0.00     0.391 P 
HETATM   67  O   UNK N   1      25.817  20.585   3.576  0.00  0.00    -0.632 OA
BRANCH  66  68
HETATM   68  O   UNK N   1      25.870  19.439   5.923  0.00  0.00    -0.307 OA
HETATM   69  H   UNK N   1      26.365  19.883   6.629  0.00  0.00     0.222 HD
ENDBRANCH  66  68
BRANCH  66  70
HETATM   70  O   UNK N   1      28.142  19.487   4.160  0.00  0.00    -0.307 OA
HETATM   71  H   UNK N   1      29.058  19.462   3.841  0.00  0.00     0.222 HD
ENDBRANCH  66  70
ENDBRANCH  65  66
ENDBRANCH  47  65
ENDBRANCH  42  43
ENDBRANCH  41  42
ENDBRANCH  37  41
ENDBRANCH   1  37
TORSDOF 29
ENDMDL
MODEL 9
REMARK VINA RESULT:      -6.9      2.266      3.095
REMARK  29 active torsions:
REMARK  status: ('A' for Active; 'I' for Inactive)
REMARK    1  A    between atoms: C_2  and  C_4 
REMARK    2  A    between atoms: C_2  and  C_39 
REMARK    3  A    between atoms: C_4  and  O_5 
REMARK    4  A    between atoms: P_6  and  O_5 
REMARK    5  A    between atoms: P_6  and  O_7 
REMARK    6  A    between atoms: P_6  and  O_9 
REMARK    7  A    between atoms: P_10  and  O_9 
REMARK    8  A    between atoms: P_10  and  O_11 
REMARK    9  A    between atoms: P_10  and  O_13 
REMARK   10  A    between atoms: O_13  and  C_14 
REMARK   11  A    between atoms: C_15  and  C_14 
REMARK   12  A    between atoms: C_17  and  N_26 
REMARK   13  A    between atoms: C_18  and  O_19 
REMARK   14  A    between atoms: C_20  and  O_21 
REMARK   15  A    between atoms: O_21  and  P_22 
REMARK   16  A    between atoms: P_22  and  O_23 
REMARK   17  A    between atoms: P_22  and  O_24 
REMARK   18  A    between atoms: C_31  and  N_32 
REMARK   19  A    between atoms: C_39  and  O_40 
REMARK   20  A    between atoms: C_39  and  C_41 
REMARK       I    between atoms: C_41  and  N_43 
REMARK   21  A    between atoms: N_43  and  C_44 
REMARK   22  A    between atoms: C_44  and  C_45 
REMARK   23  A    between atoms: C_45  and  C_46 
REMARK       I    between atoms: C_46  and  N_48 
REMARK   24  A    between atoms: N_48  and  C_49 
REMARK   25  A    between atoms: C_49  and  C_50 
REMARK   26  A    between atoms: C_50  and  S_51 
REMARK   27  A    between atoms: S_51  and  C_52 
REMARK   28  A    between atoms: C_52  and  C_54 
REMARK   29  A    between atoms: C_57  and  O_58 
ROOT
HETATM    1  O   UNK N   1      34.978  16.215   8.042  0.00  0.00    -0.195 OA
ENDROOT
BRANCH   1   2
HETATM    2  P   UNK N   1      34.165  17.711   7.665  0.00  0.00     0.401 P 
HETATM    3  O   UNK N   1      32.803  17.673   8.409  0.00  0.00    -0.631 OA
BRANCH   2   4
HETATM    4  O   UNK N   1      33.852  17.856   5.956  0.00  0.00    -0.296 OA
BRANCH   4   5
HETATM    5  C   UNK N   1      33.867  16.571   5.405  0.00  0.00     0.192 C 
BRANCH   5   6
HETATM    6  C   UNK N   1      32.819  16.424   4.294  0.00  0.00     0.009 C 
HETATM    7  C   UNK N   1      33.485  16.019   2.990  0.00  0.00     0.020 C 
HETATM    8  C   UNK N   1      32.126  17.748   4.117  0.00  0.00     0.020 C 
BRANCH   6   9
HETATM    9  C   UNK N   1      31.720  15.429   4.672  0.00  0.00     0.219 C 
BRANCH   9  10
HETATM   10  O   UNK N   1      31.955  14.114   4.261  0.00  0.00    -0.385 OA
HETATM   11  H   UNK N   1      31.685  13.285   4.685  0.00  0.00     0.210 HD
ENDBRANCH   9  10
BRANCH   9  12
HETATM   12  C   UNK N   1      31.085  15.507   6.014  0.00  0.00     0.247 C 
HETATM   13  O   UNK N   1      31.530  14.880   6.966  0.00  0.00    -0.271 OA
HETATM   14  N   UNK N   1      30.102  16.411   6.180  0.00  0.00    -0.358 N 
HETATM   15  H   UNK N   1      29.723  16.858   5.389  0.00  0.00     0.162 HD
BRANCH  14  16
HETATM   16  C   UNK N   1      29.594  16.735   7.471  0.00  0.00     0.132 C 
BRANCH  16  17
HETATM   17  C   UNK N   1      28.218  17.341   7.273  0.00  0.00     0.122 C 
BRANCH  17  18
HETATM   18  C   UNK N   1      28.201  18.805   7.601  0.00  0.00     0.219 C 
HETATM   19  O   UNK N   1      28.603  19.165   8.694  0.00  0.00    -0.274 OA
HETATM   20  N   UNK N   1      27.791  19.742   6.703  0.00  0.00    -0.360 N 
HETATM   21  H   UNK N   1      27.912  20.689   6.941  0.00  0.00     0.162 HD
BRANCH  20  22
HETATM   22  C   UNK N   1      27.188  19.441   5.419  0.00  0.00     0.133 C 
BRANCH  22  23
HETATM   23  C   UNK N   1      25.688  19.689   5.396  0.00  0.00     0.102 C 
BRANCH  23  24
HETATM   24  S   UNK N   1      24.937  18.464   4.277  0.00  0.00    -0.086 SA
BRANCH  24  25
HETATM   25  C   UNK N   1      23.902  19.703   3.504  0.00  0.00     0.219 C 
HETATM   26  O   UNK N   1      24.369  20.811   3.289  0.00  0.00    -0.280 OA
BRANCH  25  27
HETATM   27  C   UNK N   1      22.486  19.418   3.192  0.00  0.00     0.021 A 
HETATM   28  C   UNK N   1      21.685  20.400   2.595  0.00  0.00     0.019 A 
HETATM   29  C   UNK N   1      20.330  20.154   2.364  0.00  0.00     0.037 A 
HETATM   30  C   UNK N   1      19.767  18.928   2.728  0.00  0.00     0.065 A 
HETATM   31  C   UNK N   1      20.563  17.939   3.310  0.00  0.00     0.037 A 
HETATM   32  C   UNK N   1      21.916  18.184   3.541  0.00  0.00     0.019 A 
BRANCH  30  33
HETATM   33  O   UNK N   1      18.462  18.699   2.522  0.00  0.00    -0.361 OA
HETATM   34  H   UNK N   1      18.014  19.061   1.783  0.00  0.00     0.217 HD
ENDBRANCH  30  33
ENDBRANCH  25  27
ENDBRANCH  24  25
ENDBRANCH  23  24
ENDBRANCH  22  23
ENDBRANCH  20  22
ENDBRANCH  17  18
ENDBRANCH  16  17
ENDBRANCH  14  16
ENDBRANCH   9  12
ENDBRANCH   6   9
ENDBRANCH   5   6
ENDBRANCH   4   5
ENDBRANCH   2   4
BRANCH   2  35
HETATM   35  O   UNK N   1      35.057  19.065   8.288  0.00  0.00    -0.307 OA
HETATM   36  H   UNK N   1      35.762  19.541   7.820  0.00  0.00     0.222 HD
ENDBRANCH   2  35
ENDBRANCH   1   2
BRANCH   1  37
HETATM   37  P   UNK N   1      34.948  16.026   9.780  0.00  0.00     0.401 P 
HETATM   38  O   UNK N   1      35.348  17.398  10.384  0.00  0.00    -0.631 OA
BRANCH  37  39
HETATM   39  O   UNK N   1      33.330  15.731  10.341  0.00  0.00    -0.307 OA
HETATM   40  H   UNK N   1      33.083  15.861  11.270  0.00  0.00     0.222 HD
ENDBRANCH  37  39
BRANCH  37  41
HETATM   41  O   UNK N   1      36.081  14.855  10.415  0.00  0.00    -0.294 OA
BRANCH  41  42
HETATM   42  C   UNK N   1      35.312  13.886  11.058  0.00  0.00     0.215 C 
BRANCH  42  43
HETATM   43  C   UNK N   1      36.202  12.823  11.708  0.00  0.00     0.180 C 
HETATM   44  O   UNK N   1      36.145  11.669  10.893  0.00  0.00    -0.353 OA
HETATM   45  C   UNK N   1      35.276  10.755  11.540  0.00  0.00     0.262 C 
HETATM   46  C   UNK N   1      34.654  11.448  12.727  0.00  0.00     0.199 C 
HETATM   47  C   UNK N   1      35.747  12.383  13.100  0.00  0.00     0.197 C 
BRANCH  45  48
HETATM   48  N   UNK N   1      34.217  10.288  10.646  0.00  0.00    -0.297 N 
HETATM   49  C   UNK N   1      33.135   9.529  10.961  0.00  0.00     0.188 A 
HETATM   50  N   UNK N   1      32.375   9.268   9.859  0.00  0.00    -0.346 N 
HETATM   51  C   UNK N   1      33.018   9.892   8.855  0.00  0.00     0.122 A 
ATOM     52  HN  UNK N   1      31.513   8.724   9.807  1.00  0.00     0.167 HD
HETATM   53  C   UNK N   1      32.710   9.967   7.506  0.00  0.00     0.131 A 
HETATM   54  C   UNK N   1      34.119  10.505   9.328  0.00  0.00     0.142 A 
HETATM   55  N   UNK N   1      33.549  10.677   6.693  0.00  0.00    -0.337 N 
HETATM   56  C   UNK N   1      34.665  11.297   7.202  0.00  0.00     0.183 A 
ATOM     57  HN  UNK N   1      33.344  10.747   5.697  1.00  0.00     0.168 HD
HETATM   58  N   UNK N   1      34.958  11.212   8.535  0.00  0.00    -0.336 N 
ATOM     59  HN  UNK N   1      35.785  11.669   8.922  1.00  0.00     0.168 HD
BRANCH  53  60
HETATM   60  N   UNK N   1      31.568   9.331   6.978  0.00  0.00    -0.383 N 
HETATM   61  H   UNK N   1      30.720   9.215   7.464  0.00  0.00     0.157 HD
HETATM   62  H   UNK N   1      31.623   8.979   6.060  0.00  0.00     0.157 HD
ENDBRANCH  53  60
ENDBRANCH  45  48
BRANCH  46  63
HETATM   63  O   UNK N   1      34.391  10.531  13.741  0.00  0.00    -0.388 OA
HETATM   64  H   UNK N   1      35.069  10.283  14.389  0.00  0.00     0.210 HD
ENDBRANCH  46  63
BRANCH  47  65
HETATM   65  O   UNK N   1      35.302  13.436  13.920  0.00  0.00    -0.286 OA
BRANCH  65  66
HETATM   66  P   UNK N   1      36.189  13.305  15.428  0.00  0.00     0.391 P 
HETATM   67  O   UNK N   1      36.773  11.871  15.510  0.00  0.00    -0.632 OA
BRANCH  66  68
HETATM   68  O   UNK N   1      37.565  14.360  15.476  0.00  0.00    -0.307 OA
HETATM   69  H   UNK N   1      38.359  14.187  16.005  0.00  0.00     0.222 HD
ENDBRANCH  66  68
BRANCH  66  70
HETATM   70  O   UNK N   1      35.171  13.503  16.822  0.00  0.00    -0.307 OA
HETATM   71  H   UNK N   1      34.485  13.384  17.497  0.00  0.00     0.222 HD
ENDBRANCH  66  70
ENDBRANCH  65  66
ENDBRANCH  47  65
ENDBRANCH  42  43
ENDBRANCH  41  42
ENDBRANCH  37  41
ENDBRANCH   1  37
TORSDOF 29
ENDMDL
