MODEL 1
REMARK VINA RESULT:      -4.1      0.000      0.000
REMARK  3 active torsions:
REMARK  status: ('A' for Active; 'I' for Inactive)
REMARK    1  A    between atoms: C_2  and  C_4 
REMARK    2  A    between atoms: C_4  and  C_5 
REMARK    3  A    between atoms: C_5  and  O_6 
ROOT
HETATM    1  C   UNK N   1      33.991  17.228   8.999  0.00  0.00     0.187 C 
ENDROOT
BRANCH   1   2
HETATM    2  C   UNK N   1      34.894  16.717  10.089  0.00  0.00     0.132 C 
HETATM    3  C   UNK N   1      34.600  15.389  10.690  0.00  0.00     0.091 C 
HETATM    4  O   UNK N   1      35.853  17.357  10.488  0.00  0.00    -0.298 OA
ENDBRANCH   1   2
BRANCH   1   5
HETATM    5  C   UNK N   1      34.566  18.226   8.029  0.00  0.00     0.146 C 
HETATM    6  O   UNK N   1      34.411  18.112   6.824  0.00  0.00    -0.650 OA
BRANCH   5   7
HETATM    7  O   UNK N   1      35.267  19.269   8.511  0.00  0.00    -0.776 OA
HETATM    8  H   UNK N   1      35.563  19.943   7.931  0.00  0.00     0.167 HD
ENDBRANCH   5   7
ENDBRANCH   1   5
TORSDOF 3
ENDMDL
MODEL 2
REMARK VINA RESULT:      -3.9     12.666     13.331
REMARK  3 active torsions:
REMARK  status: ('A' for Active; 'I' for Inactive)
REMARK    1  A    between atoms: C_2  and  C_4 
REMARK    2  A    between atoms: C_4  and  C_5 
REMARK    3  A    between atoms: C_5  and  O_6 
ROOT
HETATM    1  C   UNK N   1      22.466  11.990  11.485  0.00  0.00     0.187 C 
ENDROOT
BRANCH   1   2
HETATM    2  C   UNK N   1      22.321  12.987  10.366  0.00  0.00     0.132 C 
HETATM    3  C   UNK N   1      20.958  13.476  10.024  0.00  0.00     0.091 C 
HETATM    4  O   UNK N   1      23.282  13.400   9.739  0.00  0.00    -0.298 OA
ENDBRANCH   1   2
BRANCH   1   5
HETATM    5  C   UNK N   1      23.691  12.094  12.355  0.00  0.00     0.146 C 
HETATM    6  O   UNK N   1      23.616  12.072  13.573  0.00  0.00    -0.650 OA
BRANCH   5   7
HETATM    7  O   UNK N   1      24.895  12.215  11.768  0.00  0.00    -0.776 OA
HETATM    8  H   UNK N   1      25.425  12.970  11.934  0.00  0.00     0.167 HD
ENDBRANCH   5   7
ENDBRANCH   1   5
TORSDOF 3
ENDMDL
MODEL 3
REMARK VINA RESULT:      -3.8     14.647     15.579
REMARK  3 active torsions:
REMARK  status: ('A' for Active; 'I' for Inactive)
REMARK    1  A    between atoms: C_2  and  C_4 
REMARK    2  A    between atoms: C_4  and  C_5 
REMARK    3  A    between atoms: C_5  and  O_6 
ROOT
HETATM    1  C   UNK N   1      20.616  19.395   1.945  0.00  0.00     0.187 C 
ENDROOT
BRANCH   1   2
HETATM    2  C   UNK N   1      21.007  19.345   3.398  0.00  0.00     0.132 C 
HETATM    3  C   UNK N   1      21.917  18.259   3.851  0.00  0.00     0.091 C 
HETATM    4  O   UNK N   1      20.600  20.164   4.206  0.00  0.00    -0.298 OA
ENDBRANCH   1   2
BRANCH   1   5
HETATM    5  C   UNK N   1      20.906  20.665   1.190  0.00  0.00     0.146 C 
HETATM    6  O   UNK N   1      21.085  20.667  -0.017  0.00  0.00    -0.650 OA
BRANCH   5   7
HETATM    7  O   UNK N   1      20.969  21.824   1.870  0.00  0.00    -0.776 OA
HETATM    8  H   UNK N   1      21.438  21.868   2.680  0.00  0.00     0.167 HD
ENDBRANCH   5   7
ENDBRANCH   1   5
TORSDOF 3
ENDMDL
MODEL 4
REMARK VINA RESULT:      -3.8     13.135     13.712
REMARK  3 active torsions:
REMARK  status: ('A' for Active; 'I' for Inactive)
REMARK    1  A    between atoms: C_2  and  C_4 
REMARK    2  A    between atoms: C_4  and  C_5 
REMARK    3  A    between atoms: C_5  and  O_6 
ROOT
HETATM    1  C   UNK N   1      22.848  11.642  10.908  0.00  0.00     0.187 C 
ENDROOT
BRANCH   1   2
HETATM    2  C   UNK N   1      21.551  12.405  10.886  0.00  0.00     0.132 C 
HETATM    3  C   UNK N   1      21.415  13.548   9.944  0.00  0.00     0.091 C 
HETATM    4  O   UNK N   1      20.617  12.113  11.615  0.00  0.00    -0.298 OA
ENDBRANCH   1   2
BRANCH   1   5
HETATM    5  C   UNK N   1      23.870  12.034  11.942  0.00  0.00     0.146 C 
HETATM    6  O   UNK N   1      23.616  12.013  13.135  0.00  0.00    -0.650 OA
BRANCH   5   7
HETATM    7  O   UNK N   1      25.093  12.417  11.532  0.00  0.00    -0.776 OA
HETATM    8  H   UNK N   1      25.199  12.838  10.701  0.00  0.00     0.167 HD
ENDBRANCH   5   7
ENDBRANCH   1   5
TORSDOF 3
ENDMDL
MODEL 5
REMARK VINA RESULT:      -3.7      1.916      3.385
REMARK  3 active torsions:
REMARK  status: ('A' for Active; 'I' for Inactive)
REMARK    1  A    between atoms: C_2  and  C_4 
REMARK    2  A    between atoms: C_4  and  C_5 
REMARK    3  A    between atoms: C_5  and  O_6 
ROOT
HETATM    1  C   UNK N   1      33.270  17.705   8.726  0.00  0.00     0.187 C 
ENDROOT
BRANCH   1   2
HETATM    2  C   UNK N   1      31.911  17.690   8.078  0.00  0.00     0.132 C 
HETATM    3  C   UNK N   1      30.749  18.203   8.852  0.00  0.00     0.091 C 
HETATM    4  O   UNK N   1      31.740  17.270   6.945  0.00  0.00    -0.298 OA
ENDBRANCH   1   2
BRANCH   1   5
HETATM    5  C   UNK N   1      34.407  18.310   7.946  0.00  0.00     0.146 C 
HETATM    6  O   UNK N   1      35.195  19.087   8.459  0.00  0.00    -0.650 OA
BRANCH   5   7
HETATM    7  O   UNK N   1      34.551  17.979   6.650  0.00  0.00    -0.776 OA
HETATM    8  H   UNK N   1      33.796  17.888   6.102  0.00  0.00     0.167 HD
ENDBRANCH   5   7
ENDBRANCH   1   5
TORSDOF 3
ENDMDL
MODEL 6
REMARK VINA RESULT:      -3.6     12.806     13.603
REMARK  3 active torsions:
REMARK  status: ('A' for Active; 'I' for Inactive)
REMARK    1  A    between atoms: C_2  and  C_4 
REMARK    2  A    between atoms: C_4  and  C_5 
REMARK    3  A    between atoms: C_5  and  O_6 
ROOT
HETATM    1  C   UNK N   1      31.561  22.779  -3.494  0.00  0.00     0.187 C 
ENDROOT
BRANCH   1   2
HETATM    2  C   UNK N   1      30.407  23.070  -2.572  0.00  0.00     0.132 C 
HETATM    3  C   UNK N   1      29.105  23.473  -3.169  0.00  0.00     0.091 C 
HETATM    4  O   UNK N   1      30.511  22.986  -1.359  0.00  0.00    -0.298 OA
ENDBRANCH   1   2
BRANCH   1   5
HETATM    5  C   UNK N   1      32.357  21.527  -3.238  0.00  0.00     0.146 C 
HETATM    6  O   UNK N   1      32.697  20.786  -4.146  0.00  0.00    -0.650 OA
BRANCH   5   7
HETATM    7  O   UNK N   1      32.700  21.224  -1.973  0.00  0.00    -0.776 OA
HETATM    8  H   UNK N   1      33.484  20.740  -1.802  0.00  0.00     0.167 HD
ENDBRANCH   5   7
ENDBRANCH   1   5
TORSDOF 3
ENDMDL
MODEL 7
REMARK VINA RESULT:      -3.4     13.040     13.477
REMARK  3 active torsions:
REMARK  status: ('A' for Active; 'I' for Inactive)
REMARK    1  A    between atoms: C_2  and  C_4 
REMARK    2  A    between atoms: C_4  and  C_5 
REMARK    3  A    between atoms: C_5  and  O_6 
ROOT
HETATM    1  C   UNK N   1      22.613  11.760  10.541  0.00  0.00     0.187 C 
ENDROOT
BRANCH   1   2
HETATM    2  C   UNK N   1      23.597  11.908  11.670  0.00  0.00     0.132 C 
HETATM    3  C   UNK N   1      23.084  11.885  13.066  0.00  0.00     0.091 C 
HETATM    4  O   UNK N   1      24.793  12.046  11.473  0.00  0.00    -0.298 OA
ENDBRANCH   1   2
BRANCH   1   5
HETATM    5  C   UNK N   1      21.622  12.874  10.330  0.00  0.00     0.146 C 
HETATM    6  O   UNK N   1      21.960  13.955   9.875  0.00  0.00    -0.650 OA
BRANCH   5   7
HETATM    7  O   UNK N   1      20.333  12.665  10.653  0.00  0.00    -0.776 OA
HETATM    8  H   UNK N   1      19.673  12.693   9.989  0.00  0.00     0.167 HD
ENDBRANCH   5   7
ENDBRANCH   1   5
TORSDOF 3
ENDMDL
MODEL 8
REMARK VINA RESULT:      -3.2     11.157     12.009
REMARK  3 active torsions:
REMARK  status: ('A' for Active; 'I' for Inactive)
REMARK    1  A    between atoms: C_2  and  C_4 
REMARK    2  A    between atoms: C_4  and  C_5 
REMARK    3  A    between atoms: C_5  and  O_6 
ROOT
HETATM    1  C   UNK N   1      43.207  21.863   3.512  0.00  0.00     0.187 C 
ENDROOT
BRANCH   1   2
HETATM    2  C   UNK N   1      42.776  22.892   2.502  0.00  0.00     0.132 C 
HETATM    3  C   UNK N   1      41.439  22.748   1.867  0.00  0.00     0.091 C 
HETATM    4  O   UNK N   1      43.489  23.833   2.192  0.00  0.00    -0.298 OA
ENDBRANCH   1   2
BRANCH   1   5
HETATM    5  C   UNK N   1      44.235  22.276   4.532  0.00  0.00     0.146 C 
HETATM    6  O   UNK N   1      43.917  22.640   5.652  0.00  0.00    -0.650 OA
BRANCH   5   7
HETATM    7  O   UNK N   1      45.536  22.239   4.192  0.00  0.00    -0.776 OA
HETATM    8  H   UNK N   1      45.984  21.417   4.141  0.00  0.00     0.167 HD
ENDBRANCH   5   7
ENDBRANCH   1   5
TORSDOF 3
ENDMDL
MODEL 9
REMARK VINA RESULT:      -3.2     13.377     14.648
REMARK  3 active torsions:
REMARK  status: ('A' for Active; 'I' for Inactive)
REMARK    1  A    between atoms: C_2  and  C_4 
REMARK    2  A    between atoms: C_4  and  C_5 
REMARK    3  A    between atoms: C_5  and  O_6 
ROOT
HETATM    1  C   UNK N   1      29.368  23.838  -3.450  0.00  0.00     0.187 C 
ENDROOT
BRANCH   1   2
HETATM    2  C   UNK N   1      30.115  22.847  -2.598  0.00  0.00     0.132 C 
HETATM    3  C   UNK N   1      30.648  21.617  -3.241  0.00  0.00     0.091 C 
HETATM    4  O   UNK N   1      30.293  23.026  -1.404  0.00  0.00    -0.298 OA
ENDBRANCH   1   2
BRANCH   1   5
HETATM    5  C   UNK N   1      27.889  23.989  -3.210  0.00  0.00     0.146 C 
HETATM    6  O   UNK N   1      27.155  24.504  -4.037  0.00  0.00    -0.650 OA
BRANCH   5   7
HETATM    7  O   UNK N   1      27.372  23.541  -2.052  0.00  0.00    -0.776 OA
HETATM    8  H   UNK N   1      27.341  22.620  -1.877  0.00  0.00     0.167 HD
ENDBRANCH   5   7
ENDBRANCH   1   5
TORSDOF 3
ENDMDL
