MODEL 1
REMARK VINA RESULT:      -7.5      0.000      0.000
REMARK  7 active torsions:
REMARK  status: ('A' for Active; 'I' for Inactive)
REMARK    1  A    between atoms: C_15  and  C_14 
REMARK    2  A    between atoms: N_27  and  C_14 
REMARK    3  A    between atoms: O_28  and  C_17 
REMARK    4  A    between atoms: C_18  and  C_23 
REMARK    5  A    between atoms: C_26  and  C_22 
REMARK    6  A    between atoms: O_29  and  C_23 
REMARK    7  A    between atoms: C_26  and  O_30 
ROOT
HETATM    1  C   UNK N   1      28.152  22.069  -7.206  0.00  0.00     0.011 C 
HETATM    2  C   UNK N   1      26.803  21.834  -7.567  0.00  0.00     0.040 C 
HETATM    3  C   UNK N   1      28.261  26.189  -6.071  0.00  0.00    -0.015 C 
HETATM    4  C   UNK N   1      27.048  26.776  -6.107  0.00  0.00     0.011 C 
HETATM    5  C   UNK N   1      27.757  23.824  -3.059  0.00  0.00     0.048 C 
HETATM    6  C   UNK N   1      29.111  23.136  -3.033  0.00  0.00     0.274 C 
HETATM    7  C   UNK N   1      29.839  23.480  -5.897  0.00  0.00     0.076 C 
HETATM    8  C   UNK N   1      28.560  26.625  -3.685  0.00  0.00     0.028 C 
HETATM    9  C   UNK N   1      28.441  22.962  -6.162  0.00  0.00    -0.046 C 
HETATM   10  C   UNK N   1      25.769  22.573  -6.950  0.00  0.00     0.099 C 
HETATM   11  C   UNK N   1      27.125  27.292  -3.665  0.00  0.00     0.061 C 
HETATM   12  C   UNK N   1      29.927  24.626  -4.812  0.00  0.00     0.240 C 
HETATM   13  C   UNK N   1      27.380  23.566  -5.508  0.00  0.00    -0.003 C 
HETATM   14  C   UNK N   1      26.111  23.460  -5.929  0.00  0.00     0.110 C 
HETATM   15  C   UNK N   1      26.053  25.146  -4.418  0.00  0.00     0.182 C 
HETATM   16  C   UNK N   1      28.614  25.502  -4.753  0.00  0.00     0.024 C 
HETATM   17  C   UNK N   1      27.488  24.520  -4.405  0.00  0.00     0.035 C 
HETATM   18  C   UNK N   1      26.219  26.665  -4.819  0.00  0.00     0.112 C 
HETATM   19  N   UNK N   1      30.201  24.021  -3.486  0.00  0.00     0.095 N 
HETATM   20  O   UNK N   1      25.318  24.350  -5.310  0.00  0.00    -0.338 OA
ENDROOT
BRANCH  11  21
HETATM   21  C   UNK N   1      27.263  28.843  -3.631  0.00  0.00     0.057 C 
HETATM   22  C   UNK N   1      28.114  29.331  -2.472  0.00  0.00     0.046 C 
HETATM   23  C   UNK N   1      27.865  29.377  -4.921  0.00  0.00     0.046 C 
BRANCH  21  24
HETATM   24  O   UNK N   1      25.991  29.407  -3.505  0.00  0.00    -0.390 OA
HETATM   25  H   UNK N   1      25.257  29.185  -4.100  0.00  0.00     0.210 HD
ENDBRANCH  21  24
ENDBRANCH  11  21
BRANCH  18  26
HETATM   26  O   UNK N   1      24.967  27.326  -4.884  0.00  0.00    -0.378 OA
HETATM   27  C   UNK N   1      24.459  27.292  -6.193  0.00  0.00     0.203 C 
ENDBRANCH  18  26
BRANCH  19  28
HETATM   28  C   UNK N   1      31.516  23.336  -3.518  0.00  0.00     0.277 C 
BRANCH  28  29
HETATM   29  C   UNK N   1      31.565  21.896  -2.969  0.00  0.00     0.014 A 
HETATM   30  C   UNK N   1      32.962  21.343  -3.177  0.00  0.00     0.007 A 
HETATM   31  C   UNK N   1      31.832  20.872  -4.061  0.00  0.00     0.007 A 
ENDBRANCH  28  29
ENDBRANCH  19  28
BRANCH  10  32
HETATM   32  O   UNK N   1      24.496  22.438  -7.354  0.00  0.00    -0.358 OA
HETATM   33  H   UNK N   1      24.115  21.598  -7.522  0.00  0.00     0.217 HD
ENDBRANCH  10  32
TORSDOF 7
ENDMDL
MODEL 2
REMARK VINA RESULT:      -7.3     12.747     14.789
REMARK  7 active torsions:
REMARK  status: ('A' for Active; 'I' for Inactive)
REMARK    1  A    between atoms: C_15  and  C_14 
REMARK    2  A    between atoms: N_27  and  C_14 
REMARK    3  A    between atoms: O_28  and  C_17 
REMARK    4  A    between atoms: C_18  and  C_23 
REMARK    5  A    between atoms: C_26  and  C_22 
REMARK    6  A    between atoms: O_29  and  C_23 
REMARK    7  A    between atoms: C_26  and  O_30 
ROOT
HETATM    1  C   UNK N   1      21.775  19.911   3.302  0.00  0.00     0.011 C 
HETATM    2  C   UNK N   1      20.469  19.885   2.756  0.00  0.00     0.040 C 
HETATM    3  C   UNK N   1      21.706  16.964   6.397  0.00  0.00    -0.015 C 
HETATM    4  C   UNK N   1      20.531  16.307   6.472  0.00  0.00     0.011 C 
HETATM    5  C   UNK N   1      23.024  15.574   3.044  0.00  0.00     0.048 C 
HETATM    6  C   UNK N   1      24.335  16.335   2.939  0.00  0.00     0.274 C 
HETATM    7  C   UNK N   1      23.614  18.694   4.602  0.00  0.00     0.076 C 
HETATM    8  C   UNK N   1      22.980  14.926   5.952  0.00  0.00     0.028 C 
HETATM    9  C   UNK N   1      22.355  18.717   3.760  0.00  0.00    -0.046 C 
HETATM   10  C   UNK N   1      19.722  18.686   2.770  0.00  0.00     0.099 C 
HETATM   11  C   UNK N   1      21.622  14.113   5.992  0.00  0.00     0.061 C 
HETATM   12  C   UNK N   1      23.994  17.276   5.186  0.00  0.00     0.240 C 
HETATM   13  C   UNK N   1      21.623  17.548   3.636  0.00  0.00    -0.003 C 
HETATM   14  C   UNK N   1      20.339  17.531   3.251  0.00  0.00     0.110 C 
HETATM   15  C   UNK N   1      20.696  15.452   4.076  0.00  0.00     0.182 C 
HETATM   16  C   UNK N   1      22.727  16.365   5.432  0.00  0.00     0.024 C 
HETATM   17  C   UNK N   1      22.062  16.218   4.058  0.00  0.00     0.035 C 
HETATM   18  C   UNK N   1      20.408  15.063   5.580  0.00  0.00     0.112 C 
HETATM   19  N   UNK N   1      24.937  16.604   4.258  0.00  0.00     0.095 N 
HETATM   20  O   UNK N   1      19.780  16.332   3.480  0.00  0.00    -0.338 OA
ENDROOT
BRANCH  11  21
HETATM   21  C   UNK N   1      21.502  13.350   7.345  0.00  0.00     0.057 C 
HETATM   22  C   UNK N   1      21.440  11.844   7.165  0.00  0.00     0.046 C 
HETATM   23  C   UNK N   1      22.665  13.671   8.270  0.00  0.00     0.046 C 
BRANCH  21  24
HETATM   24  O   UNK N   1      20.334  13.759   7.992  0.00  0.00    -0.390 OA
HETATM   25  H   UNK N   1      20.238  14.636   8.397  0.00  0.00     0.210 HD
ENDBRANCH  21  24
ENDBRANCH  11  21
BRANCH  18  26
HETATM   26  O   UNK N   1      19.174  14.380   5.713  0.00  0.00    -0.378 OA
HETATM   27  C   UNK N   1      19.025  13.428   4.690  0.00  0.00     0.203 C 
ENDBRANCH  18  26
BRANCH  19  28
HETATM   28  C   UNK N   1      26.187  17.397   4.165  0.00  0.00     0.277 C 
BRANCH  28  29
HETATM   29  C   UNK N   1      27.058  17.474   5.434  0.00  0.00     0.014 A 
HETATM   30  C   UNK N   1      27.404  18.927   5.700  0.00  0.00     0.007 A 
HETATM   31  C   UNK N   1      28.456  17.998   5.142  0.00  0.00     0.007 A 
ENDBRANCH  28  29
ENDBRANCH  19  28
BRANCH  10  32
HETATM   32  O   UNK N   1      18.447  18.668   2.352  0.00  0.00    -0.358 OA
HETATM   33  H   UNK N   1      17.801  18.120   2.753  0.00  0.00     0.217 HD
ENDBRANCH  10  32
TORSDOF 7
ENDMDL
MODEL 3
REMARK VINA RESULT:      -7.1      2.712      6.271
REMARK  7 active torsions:
REMARK  status: ('A' for Active; 'I' for Inactive)
REMARK    1  A    between atoms: C_15  and  C_14 
REMARK    2  A    between atoms: N_27  and  C_14 
REMARK    3  A    between atoms: O_28  and  C_17 
REMARK    4  A    between atoms: C_18  and  C_23 
REMARK    5  A    between atoms: C_26  and  C_22 
REMARK    6  A    between atoms: O_29  and  C_23 
REMARK    7  A    between atoms: C_26  and  O_30 
ROOT
HETATM    1  C   UNK N   1      26.310  28.042  -5.915  0.00  0.00     0.011 C 
HETATM    2  C   UNK N   1      25.959  28.325  -4.573  0.00  0.00     0.040 C 
HETATM    3  C   UNK N   1      29.733  25.500  -5.623  0.00  0.00    -0.015 C 
HETATM    4  C   UNK N   1      30.055  25.195  -4.350  0.00  0.00     0.011 C 
HETATM    5  C   UNK N   1      26.432  23.523  -5.959  0.00  0.00     0.048 C 
HETATM    6  C   UNK N   1      26.049  23.889  -7.383  0.00  0.00     0.274 C 
HETATM    7  C   UNK N   1      27.483  26.487  -7.577  0.00  0.00     0.076 C 
HETATM    8  C   UNK N   1      29.377  23.163  -6.243  0.00  0.00     0.028 C 
HETATM    9  C   UNK N   1      26.830  26.779  -6.242  0.00  0.00    -0.046 C 
HETATM   10  C   UNK N   1      26.230  27.378  -3.560  0.00  0.00     0.099 C 
HETATM   11  C   UNK N   1      29.710  22.754  -4.751  0.00  0.00     0.061 C 
HETATM   12  C   UNK N   1      28.184  25.075  -7.677  0.00  0.00     0.240 C 
HETATM   13  C   UNK N   1      26.959  25.846  -5.227  0.00  0.00    -0.003 C 
HETATM   14  C   UNK N   1      26.763  26.145  -3.934  0.00  0.00     0.110 C 
HETATM   15  C   UNK N   1      27.788  24.125  -3.885  0.00  0.00     0.182 C 
HETATM   16  C   UNK N   1      28.719  24.567  -6.281  0.00  0.00     0.024 C 
HETATM   17  C   UNK N   1      27.482  24.488  -5.378  0.00  0.00     0.035 C 
HETATM   18  C   UNK N   1      29.354  23.959  -3.766  0.00  0.00     0.112 C 
HETATM   19  N   UNK N   1      27.226  24.096  -8.247  0.00  0.00     0.095 N 
HETATM   20  O   UNK N   1      27.219  25.166  -3.136  0.00  0.00    -0.338 OA
ENDROOT
BRANCH  11  21
HETATM   21  C   UNK N   1      31.152  22.171  -4.671  0.00  0.00     0.057 C 
HETATM   22  C   UNK N   1      31.185  20.766  -4.096  0.00  0.00     0.046 C 
HETATM   23  C   UNK N   1      31.817  22.142  -6.037  0.00  0.00     0.046 C 
BRANCH  21  24
HETATM   24  O   UNK N   1      31.927  22.994  -3.850  0.00  0.00    -0.390 OA
HETATM   25  H   UNK N   1      31.643  23.882  -3.581  0.00  0.00     0.210 HD
ENDBRANCH  21  24
ENDBRANCH  11  21
BRANCH  18  26
HETATM   26  O   UNK N   1      29.745  23.650  -2.440  0.00  0.00    -0.378 OA
HETATM   27  C   UNK N   1      28.773  22.850  -1.814  0.00  0.00     0.203 C 
ENDBRANCH  18  26
BRANCH  19  28
HETATM   28  C   UNK N   1      26.858  24.509  -9.623  0.00  0.00     0.277 C 
BRANCH  28  29
HETATM   29  C   UNK N   1      25.358  24.720  -9.909  0.00  0.00     0.014 A 
HETATM   30  C   UNK N   1      25.180  25.010 -11.388  0.00  0.00     0.007 A 
HETATM   31  C   UNK N   1      25.054  26.132 -10.385  0.00  0.00     0.007 A 
ENDBRANCH  28  29
ENDBRANCH  19  28
BRANCH  10  32
HETATM   32  O   UNK N   1      26.001  27.672  -2.270  0.00  0.00    -0.358 OA
HETATM   33  H   UNK N   1      25.153  27.574  -1.882  0.00  0.00     0.217 HD
ENDBRANCH  10  32
TORSDOF 7
ENDMDL
MODEL 4
REMARK VINA RESULT:      -6.9     13.087     15.589
REMARK  7 active torsions:
REMARK  status: ('A' for Active; 'I' for Inactive)
REMARK    1  A    between atoms: C_15  and  C_14 
REMARK    2  A    between atoms: N_27  and  C_14 
REMARK    3  A    between atoms: O_28  and  C_17 
REMARK    4  A    between atoms: C_18  and  C_23 
REMARK    5  A    between atoms: C_26  and  C_22 
REMARK    6  A    between atoms: O_29  and  C_23 
REMARK    7  A    between atoms: C_26  and  O_30 
ROOT
HETATM    1  C   UNK N   1      34.540  12.949   4.198  0.00  0.00     0.011 C 
HETATM    2  C   UNK N   1      35.833  13.361   4.603  0.00  0.00     0.040 C 
HETATM    3  C   UNK N   1      31.916  14.573   7.155  0.00  0.00    -0.015 C 
HETATM    4  C   UNK N   1      32.557  15.326   8.071  0.00  0.00     0.011 C 
HETATM    5  C   UNK N   1      32.271  16.856   4.061  0.00  0.00     0.048 C 
HETATM    6  C   UNK N   1      31.577  15.998   3.017  0.00  0.00     0.274 C 
HETATM    7  C   UNK N   1      32.010  13.336   4.271  0.00  0.00     0.076 C 
HETATM    8  C   UNK N   1      30.499  16.423   6.417  0.00  0.00     0.028 C 
HETATM    9  C   UNK N   1      33.445  13.801   4.414  0.00  0.00    -0.046 C 
HETATM   10  C   UNK N   1      35.997  14.572   5.311  0.00  0.00     0.099 C 
HETATM   11  C   UNK N   1      31.247  17.359   7.451  0.00  0.00     0.061 C 
HETATM   12  C   UNK N   1      30.925  14.379   4.751  0.00  0.00     0.240 C 
HETATM   13  C   UNK N   1      33.683  15.032   5.002  0.00  0.00    -0.003 C 
HETATM   14  C   UNK N   1      34.874  15.375   5.514  0.00  0.00     0.110 C 
HETATM   15  C   UNK N   1      33.453  16.945   6.318  0.00  0.00     0.182 C 
HETATM   16  C   UNK N   1      31.459  15.318   5.902  0.00  0.00     0.024 C 
HETATM   17  C   UNK N   1      32.671  16.043   5.305  0.00  0.00     0.035 C 
HETATM   18  C   UNK N   1      32.723  16.810   7.712  0.00  0.00     0.112 C 
HETATM   19  N   UNK N   1      30.484  15.190   3.589  0.00  0.00     0.095 N 
HETATM   20  O   UNK N   1      34.777  16.482   6.268  0.00  0.00    -0.338 OA
ENDROOT
BRANCH  11  21
HETATM   21  C   UNK N   1      30.345  17.598   8.698  0.00  0.00     0.057 C 
HETATM   22  C   UNK N   1      30.408  19.029   9.201  0.00  0.00     0.046 C 
HETATM   23  C   UNK N   1      28.892  17.260   8.407  0.00  0.00     0.046 C 
BRANCH  21  24
HETATM   24  O   UNK N   1      30.768  16.756   9.728  0.00  0.00    -0.390 OA
HETATM   25  H   UNK N   1      31.358  17.052  10.439  0.00  0.00     0.210 HD
ENDBRANCH  21  24
ENDBRANCH  11  21
BRANCH  18  26
HETATM   26  O   UNK N   1      33.369  17.575   8.714  0.00  0.00    -0.378 OA
HETATM   27  C   UNK N   1      34.249  16.771   9.456  0.00  0.00     0.203 C 
ENDBRANCH  18  26
BRANCH  19  28
HETATM   28  C   UNK N   1      29.840  14.307   2.586  0.00  0.00     0.277 C 
BRANCH  28  29
HETATM   29  C   UNK N   1      28.565  14.842   1.905  0.00  0.00     0.014 A 
HETATM   30  C   UNK N   1      27.759  15.624   2.925  0.00  0.00     0.007 A 
HETATM   31  C   UNK N   1      27.300  14.248   2.503  0.00  0.00     0.007 A 
ENDBRANCH  28  29
ENDBRANCH  19  28
BRANCH  10  32
HETATM   32  O   UNK N   1      37.198  14.926   5.793  0.00  0.00    -0.358 OA
HETATM   33  H   UNK N   1      37.800  15.444   5.294  0.00  0.00     0.217 HD
ENDBRANCH  10  32
TORSDOF 7
ENDMDL
MODEL 5
REMARK VINA RESULT:      -6.8     11.699     14.042
REMARK  7 active torsions:
REMARK  status: ('A' for Active; 'I' for Inactive)
REMARK    1  A    between atoms: C_15  and  C_14 
REMARK    2  A    between atoms: N_27  and  C_14 
REMARK    3  A    between atoms: O_28  and  C_17 
REMARK    4  A    between atoms: C_18  and  C_23 
REMARK    5  A    between atoms: C_26  and  C_22 
REMARK    6  A    between atoms: O_29  and  C_23 
REMARK    7  A    between atoms: C_26  and  O_30 
ROOT
HETATM    1  C   UNK N   1      28.671  18.642   7.372  0.00  0.00     0.011 C 
HETATM    2  C   UNK N   1      27.676  19.408   6.718  0.00  0.00     0.040 C 
HETATM    3  C   UNK N   1      28.569  14.845   5.412  0.00  0.00    -0.015 C 
HETATM    4  C   UNK N   1      27.696  14.806   4.385  0.00  0.00     0.011 C 
HETATM    5  C   UNK N   1      31.227  17.220   3.925  0.00  0.00     0.048 C 
HETATM    6  C   UNK N   1      32.199  17.292   5.091  0.00  0.00     0.274 C 
HETATM    7  C   UNK N   1      30.299  16.668   7.293  0.00  0.00     0.076 C 
HETATM    8  C   UNK N   1      30.488  14.334   3.987  0.00  0.00     0.028 C 
HETATM    9  C   UNK N   1      29.422  17.713   6.634  0.00  0.00    -0.046 C 
HETATM   10  C   UNK N   1      27.376  19.161   5.359  0.00  0.00     0.099 C 
HETATM   11  C   UNK N   1      29.510  14.314   2.741  0.00  0.00     0.061 C 
HETATM   12  C   UNK N   1      30.902  15.592   6.306  0.00  0.00     0.240 C 
HETATM   13  C   UNK N   1      29.169  17.601   5.277  0.00  0.00    -0.003 C 
HETATM   14  C   UNK N   1      28.141  18.216   4.676  0.00  0.00     0.110 C 
HETATM   15  C   UNK N   1      28.855  16.708   3.144  0.00  0.00     0.182 C 
HETATM   16  C   UNK N   1      29.973  15.332   5.056  0.00  0.00     0.024 C 
HETATM   17  C   UNK N   1      29.848  16.690   4.355  0.00  0.00     0.035 C 
HETATM   18  C   UNK N   1      28.252  15.253   3.025  0.00  0.00     0.112 C 
HETATM   19  N   UNK N   1      32.246  16.037   5.863  0.00  0.00     0.095 N 
HETATM   20  O   UNK N   1      27.942  17.732   3.439  0.00  0.00    -0.338 OA
ENDROOT
BRANCH  11  21
HETATM   21  C   UNK N   1      29.221  12.843   2.319  0.00  0.00     0.057 C 
HETATM   22  C   UNK N   1      29.538  12.580   0.857  0.00  0.00     0.046 C 
HETATM   23  C   UNK N   1      30.012  11.856   3.162  0.00  0.00     0.046 C 
BRANCH  21  24
HETATM   24  O   UNK N   1      27.867  12.572   2.525  0.00  0.00    -0.390 OA
HETATM   25  H   UNK N   1      27.550  11.729   2.889  0.00  0.00     0.210 HD
ENDBRANCH  21  24
ENDBRANCH  11  21
BRANCH  18  26
HETATM   26  O   UNK N   1      27.315  15.164   1.965  0.00  0.00    -0.378 OA
HETATM   27  C   UNK N   1      26.007  15.336   2.448  0.00  0.00     0.203 C 
ENDBRANCH  18  26
BRANCH  19  28
HETATM   28  C   UNK N   1      33.150  16.122   7.036  0.00  0.00     0.277 C 
BRANCH  28  29
HETATM   29  C   UNK N   1      34.000  17.401   7.169  0.00  0.00     0.014 A 
HETATM   30  C   UNK N   1      34.567  17.465   8.575  0.00  0.00     0.007 A 
HETATM   31  C   UNK N   1      33.424  18.373   8.186  0.00  0.00     0.007 A 
ENDBRANCH  28  29
ENDBRANCH  19  28
BRANCH  10  32
HETATM   32  O   UNK N   1      26.365  19.805   4.754  0.00  0.00    -0.358 OA
HETATM   33  H   UNK N   1      25.477  19.715   5.040  0.00  0.00     0.217 HD
ENDBRANCH  10  32
TORSDOF 7
ENDMDL
MODEL 6
REMARK VINA RESULT:      -6.7     19.670     23.346
REMARK  7 active torsions:
REMARK  status: ('A' for Active; 'I' for Inactive)
REMARK    1  A    between atoms: C_15  and  C_14 
REMARK    2  A    between atoms: N_27  and  C_14 
REMARK    3  A    between atoms: O_28  and  C_17 
REMARK    4  A    between atoms: C_18  and  C_23 
REMARK    5  A    between atoms: C_26  and  C_22 
REMARK    6  A    between atoms: O_29  and  C_23 
REMARK    7  A    between atoms: C_26  and  O_30 
ROOT
HETATM    1  C   UNK N   1      38.273   9.576  13.995  0.00  0.00     0.011 C 
HETATM    2  C   UNK N   1      38.245   8.508  13.067  0.00  0.00     0.040 C 
HETATM    3  C   UNK N   1      37.367  13.047  11.670  0.00  0.00    -0.015 C 
HETATM    4  C   UNK N   1      37.095  12.760  10.381  0.00  0.00     0.011 C 
HETATM    5  C   UNK N   1      34.244  11.525  13.357  0.00  0.00     0.048 C 
HETATM    6  C   UNK N   1      34.561  11.817  14.814  0.00  0.00     0.274 C 
HETATM    7  C   UNK N   1      37.525  11.947  14.607  0.00  0.00     0.076 C 
HETATM    8  C   UNK N   1      35.170  14.044  12.062  0.00  0.00     0.028 C 
HETATM    9  C   UNK N   1      37.381  10.650  13.838  0.00  0.00    -0.046 C 
HETATM   10  C   UNK N   1      37.398   8.577  11.938  0.00  0.00     0.099 C 
HETATM   11  C   UNK N   1      34.786  13.695  10.566  0.00  0.00     0.061 C 
HETATM   12  C   UNK N   1      36.550  13.102  14.146  0.00  0.00     0.240 C 
HETATM   13  C   UNK N   1      36.487  10.605  12.782  0.00  0.00    -0.003 C 
HETATM   14  C   UNK N   1      36.543   9.672  11.820  0.00  0.00     0.110 C 
HETATM   15  C   UNK N   1      35.138  11.241  10.987  0.00  0.00     0.182 C 
HETATM   16  C   UNK N   1      36.169  12.996  12.617  0.00  0.00     0.024 C 
HETATM   17  C   UNK N   1      35.492  11.628  12.462  0.00  0.00     0.035 C 
HETATM   18  C   UNK N   1      35.626  12.432  10.071  0.00  0.00     0.112 C 
HETATM   19  N   UNK N   1      35.326  13.067  14.984  0.00  0.00     0.095 N 
HETATM   20  O   UNK N   1      35.766  10.004  10.777  0.00  0.00    -0.338 OA
ENDROOT
BRANCH  11  21
HETATM   21  C   UNK N   1      34.850  14.981   9.690  0.00  0.00     0.057 C 
HETATM   22  C   UNK N   1      33.522  15.306   9.029  0.00  0.00     0.046 C 
HETATM   23  C   UNK N   1      35.284  16.189  10.505  0.00  0.00     0.046 C 
BRANCH  21  24
HETATM   24  O   UNK N   1      35.802  14.796   8.685  0.00  0.00    -0.390 OA
HETATM   25  H   UNK N   1      36.743  14.998   8.811  0.00  0.00     0.210 HD
ENDBRANCH  21  24
ENDBRANCH  11  21
BRANCH  18  26
HETATM   26  O   UNK N   1      35.373  12.172   8.701  0.00  0.00    -0.378 OA
HETATM   27  C   UNK N   1      34.073  11.668   8.528  0.00  0.00     0.203 C 
ENDBRANCH  18  26
BRANCH  19  28
HETATM   28  C   UNK N   1      35.687  13.327  16.398  0.00  0.00     0.277 C 
BRANCH  28  29
HETATM   29  C   UNK N   1      34.776  12.707  17.475  0.00  0.00     0.014 A 
HETATM   30  C   UNK N   1      35.230  13.195  18.838  0.00  0.00     0.007 A 
HETATM   31  C   UNK N   1      35.536  11.779  18.409  0.00  0.00     0.007 A 
ENDBRANCH  28  29
ENDBRANCH  19  28
BRANCH  10  32
HETATM   32  O   UNK N   1      37.436   7.622  10.995  0.00  0.00    -0.358 OA
HETATM   33  H   UNK N   1      36.865   7.636  10.252  0.00  0.00     0.217 HD
ENDBRANCH  10  32
TORSDOF 7
ENDMDL
MODEL 7
REMARK VINA RESULT:      -6.7     11.196     14.107
REMARK  7 active torsions:
REMARK  status: ('A' for Active; 'I' for Inactive)
REMARK    1  A    between atoms: C_15  and  C_14 
REMARK    2  A    between atoms: N_27  and  C_14 
REMARK    3  A    between atoms: O_28  and  C_17 
REMARK    4  A    between atoms: C_18  and  C_23 
REMARK    5  A    between atoms: C_26  and  C_22 
REMARK    6  A    between atoms: O_29  and  C_23 
REMARK    7  A    between atoms: C_26  and  O_30 
ROOT
HETATM    1  C   UNK N   1      25.811  19.456   3.819  0.00  0.00     0.011 C 
HETATM    2  C   UNK N   1      26.146  20.556   4.646  0.00  0.00     0.040 C 
HETATM    3  C   UNK N   1      29.310  17.000   3.824  0.00  0.00    -0.015 C 
HETATM    4  C   UNK N   1      30.284  17.473   4.627  0.00  0.00     0.011 C 
HETATM    5  C   UNK N   1      26.726  15.920   6.484  0.00  0.00     0.048 C 
HETATM    6  C   UNK N   1      25.613  15.415   5.581  0.00  0.00     0.274 C 
HETATM    7  C   UNK N   1      26.242  17.021   3.158  0.00  0.00     0.076 C 
HETATM    8  C   UNK N   1      29.126  14.892   5.046  0.00  0.00     0.028 C 
HETATM    9  C   UNK N   1      26.317  18.183   4.127  0.00  0.00    -0.046 C 
HETATM   10  C   UNK N   1      27.064  20.386   5.707  0.00  0.00     0.099 C 
HETATM   11  C   UNK N   1      30.239  15.415   6.042  0.00  0.00     0.061 C 
HETATM   12  C   UNK N   1      27.041  15.733   3.604  0.00  0.00     0.240 C 
HETATM   13  C   UNK N   1      27.113  18.051   5.252  0.00  0.00    -0.003 C 
HETATM   14  C   UNK N   1      27.549  19.103   5.961  0.00  0.00     0.110 C 
HETATM   15  C   UNK N   1      28.809  17.374   6.705  0.00  0.00     0.182 C 
HETATM   16  C   UNK N   1      28.294  16.081   4.500  0.00  0.00     0.024 C 
HETATM   17  C   UNK N   1      27.726  16.810   5.724  0.00  0.00     0.035 C 
HETATM   18  C   UNK N   1      30.218  17.010   6.091  0.00  0.00     0.112 C 
HETATM   19  N   UNK N   1      26.126  14.821   4.333  0.00  0.00     0.095 N 
HETATM   20  O   UNK N   1      28.519  18.742   6.817  0.00  0.00    -0.338 OA
ENDROOT
BRANCH  11  21
HETATM   21  C   UNK N   1      31.601  14.731   5.721  0.00  0.00     0.057 C 
HETATM   22  C   UNK N   1      32.242  14.097   6.943  0.00  0.00     0.046 C 
HETATM   23  C   UNK N   1      31.447  13.658   4.655  0.00  0.00     0.046 C 
BRANCH  21  24
HETATM   24  O   UNK N   1      32.481  15.691   5.217  0.00  0.00    -0.390 OA
HETATM   25  H   UNK N   1      32.309  16.644   5.279  0.00  0.00     0.210 HD
ENDBRANCH  21  24
ENDBRANCH  11  21
BRANCH  18  26
HETATM   26  O   UNK N   1      31.278  17.498   6.895  0.00  0.00    -0.378 OA
HETATM   27  C   UNK N   1      31.006  17.275   8.256  0.00  0.00     0.203 C 
ENDBRANCH  18  26
BRANCH  19  28
HETATM   28  C   UNK N   1      25.041  14.379   3.423  0.00  0.00     0.277 C 
BRANCH  28  29
HETATM   29  C   UNK N   1      25.466  13.864   2.033  0.00  0.00     0.014 A 
HETATM   30  C   UNK N   1      24.371  14.197   1.036  0.00  0.00     0.007 A 
HETATM   31  C   UNK N   1      24.540  12.774   1.516  0.00  0.00     0.007 A 
ENDBRANCH  28  29
ENDBRANCH  19  28
BRANCH  10  32
HETATM   32  O   UNK N   1      27.472  21.438   6.434  0.00  0.00    -0.358 OA
HETATM   33  H   UNK N   1      27.125  21.616   7.287  0.00  0.00     0.217 HD
ENDBRANCH  10  32
TORSDOF 7
ENDMDL
MODEL 8
REMARK VINA RESULT:      -6.6     22.150     25.913
REMARK  7 active torsions:
REMARK  status: ('A' for Active; 'I' for Inactive)
REMARK    1  A    between atoms: C_15  and  C_14 
REMARK    2  A    between atoms: N_27  and  C_14 
REMARK    3  A    between atoms: O_28  and  C_17 
REMARK    4  A    between atoms: C_18  and  C_23 
REMARK    5  A    between atoms: C_26  and  C_22 
REMARK    6  A    between atoms: O_29  and  C_23 
REMARK    7  A    between atoms: C_26  and  O_30 
ROOT
HETATM    1  C   UNK N   1      35.439   9.533  18.050  0.00  0.00     0.011 C 
HETATM    2  C   UNK N   1      35.197  10.784  18.668  0.00  0.00     0.040 C 
HETATM    3  C   UNK N   1      34.501  10.168  13.928  0.00  0.00    -0.015 C 
HETATM    4  C   UNK N   1      34.162  11.444  13.656  0.00  0.00     0.011 C 
HETATM    5  C   UNK N   1      38.258  10.633  14.692  0.00  0.00     0.048 C 
HETATM    6  C   UNK N   1      38.639   9.201  15.030  0.00  0.00     0.274 C 
HETATM    7  C   UNK N   1      35.970   8.228  15.912  0.00  0.00     0.076 C 
HETATM    8  C   UNK N   1      36.407  10.196  12.398  0.00  0.00     0.028 C 
HETATM    9  C   UNK N   1      35.945   9.496  16.741  0.00  0.00    -0.046 C 
HETATM   10  C   UNK N   1      35.368  11.978  17.931  0.00  0.00     0.099 C 
HETATM   11  C   UNK N   1      36.074  11.709  12.072  0.00  0.00     0.061 C 
HETATM   12  C   UNK N   1      36.388   8.431  14.402  0.00  0.00     0.240 C 
HETATM   13  C   UNK N   1      36.211  10.700  16.110  0.00  0.00    -0.003 C 
HETATM   14  C   UNK N   1      35.859  11.886  16.629  0.00  0.00     0.110 C 
HETATM   15  C   UNK N   1      36.395  12.359  14.480  0.00  0.00     0.182 C 
HETATM   16  C   UNK N   1      35.995   9.859  13.855  0.00  0.00     0.024 C 
HETATM   17  C   UNK N   1      36.737  10.856  14.754  0.00  0.00     0.035 C 
HETATM   18  C   UNK N   1      35.330  12.381  13.313  0.00  0.00     0.112 C 
HETATM   19  N   UNK N   1      37.850   8.214  14.269  0.00  0.00     0.095 N 
HETATM   20  O   UNK N   1      35.966  12.865  15.716  0.00  0.00    -0.338 OA
ENDROOT
BRANCH  11  21
HETATM   21  C   UNK N   1      35.377  11.811  10.683  0.00  0.00     0.057 C 
HETATM   22  C   UNK N   1      36.113  12.729   9.723  0.00  0.00     0.046 C 
HETATM   23  C   UNK N   1      35.242  10.446  10.027  0.00  0.00     0.046 C 
BRANCH  21  24
HETATM   24  O   UNK N   1      34.086  12.313  10.861  0.00  0.00    -0.390 OA
HETATM   25  H   UNK N   1      33.289  11.791  10.676  0.00  0.00     0.210 HD
ENDBRANCH  21  24
ENDBRANCH  11  21
BRANCH  18  26
HETATM   26  O   UNK N   1      34.930  13.704  12.998  0.00  0.00    -0.378 OA
HETATM   27  C   UNK N   1      36.045  14.559  12.963  0.00  0.00     0.203 C 
ENDBRANCH  18  26
BRANCH  19  28
HETATM   28  C   UNK N   1      38.177   6.815  14.637  0.00  0.00     0.277 C 
BRANCH  28  29
HETATM   29  C   UNK N   1      39.303   6.613  15.670  0.00  0.00     0.014 A 
HETATM   30  C   UNK N   1      39.464   5.127  15.931  0.00  0.00     0.007 A 
HETATM   31  C   UNK N   1      38.794   6.001  16.966  0.00  0.00     0.007 A 
ENDBRANCH  28  29
ENDBRANCH  19  28
BRANCH  10  32
HETATM   32  O   UNK N   1      35.044  13.165  18.467  0.00  0.00    -0.358 OA
HETATM   33  H   UNK N   1      35.217  13.367  19.366  0.00  0.00     0.217 HD
ENDBRANCH  10  32
TORSDOF 7
ENDMDL
MODEL 9
REMARK VINA RESULT:      -6.4     15.059     17.208
REMARK  7 active torsions:
REMARK  status: ('A' for Active; 'I' for Inactive)
REMARK    1  A    between atoms: C_15  and  C_14 
REMARK    2  A    between atoms: N_27  and  C_14 
REMARK    3  A    between atoms: O_28  and  C_17 
REMARK    4  A    between atoms: C_18  and  C_23 
REMARK    5  A    between atoms: C_26  and  C_22 
REMARK    6  A    between atoms: O_29  and  C_23 
REMARK    7  A    between atoms: C_26  and  O_30 
ROOT
HETATM    1  C   UNK N   1      20.332  16.273   8.618  0.00  0.00     0.011 C 
HETATM    2  C   UNK N   1      20.363  17.556   8.020  0.00  0.00     0.040 C 
HETATM    3  C   UNK N   1      20.536  13.547   5.331  0.00  0.00    -0.015 C 
HETATM    4  C   UNK N   1      20.674  14.167   4.142  0.00  0.00     0.011 C 
HETATM    5  C   UNK N   1      24.000  14.293   6.868  0.00  0.00     0.048 C 
HETATM    6  C   UNK N   1      23.838  13.623   8.222  0.00  0.00     0.274 C 
HETATM    7  C   UNK N   1      20.876  13.777   8.444  0.00  0.00     0.076 C 
HETATM    8  C   UNK N   1      22.637  12.321   5.098  0.00  0.00     0.028 C 
HETATM    9  C   UNK N   1      21.069  15.225   8.043  0.00  0.00    -0.046 C 
HETATM   10  C   UNK N   1      21.047  17.748   6.799  0.00  0.00     0.099 C 
HETATM   11  C   UNK N   1      22.865  13.050   3.712  0.00  0.00     0.061 C 
HETATM   12  C   UNK N   1      21.648  12.732   7.545  0.00  0.00     0.240 C 
HETATM   13  C   UNK N   1      21.821  15.501   6.913  0.00  0.00    -0.003 C 
HETATM   14  C   UNK N   1      21.750  16.671   6.260  0.00  0.00     0.110 C 
HETATM   15  C   UNK N   1      22.851  15.303   4.828  0.00  0.00     0.182 C 
HETATM   16  C   UNK N   1      21.841  13.239   6.062  0.00  0.00     0.024 C 
HETATM   17  C   UNK N   1      22.645  14.540   6.180  0.00  0.00     0.035 C 
HETATM   18  C   UNK N   1      22.118  14.460   3.711  0.00  0.00     0.112 C 
HETATM   19  N   UNK N   1      22.964  12.437   8.163  0.00  0.00     0.095 N 
HETATM   20  O   UNK N   1      22.346  16.592   5.059  0.00  0.00    -0.338 OA
ENDROOT
BRANCH  11  21
HETATM   21  C   UNK N   1      22.546  12.074   2.541  0.00  0.00     0.057 C 
HETATM   22  C   UNK N   1      23.676  11.979   1.531  0.00  0.00     0.046 C 
HETATM   23  C   UNK N   1      22.244  10.674   3.050  0.00  0.00     0.046 C 
BRANCH  21  24
HETATM   24  O   UNK N   1      21.405  12.527   1.874  0.00  0.00    -0.390 OA
HETATM   25  H   UNK N   1      20.562  12.045   1.890  0.00  0.00     0.210 HD
ENDBRANCH  21  24
ENDBRANCH  11  21
BRANCH  18  26
HETATM   26  O   UNK N   1      22.224  15.079   2.440  0.00  0.00    -0.378 OA
HETATM   27  C   UNK N   1      21.057  15.805   2.148  0.00  0.00     0.203 C 
ENDBRANCH  18  26
BRANCH  19  28
HETATM   28  C   UNK N   1      22.757  11.814   9.492  0.00  0.00     0.277 C 
BRANCH  28  29
HETATM   29  C   UNK N   1      23.183  12.639  10.722  0.00  0.00     0.014 A 
HETATM   30  C   UNK N   1      24.395  11.980  11.355  0.00  0.00     0.007 A 
HETATM   31  C   UNK N   1      23.043  11.856  12.018  0.00  0.00     0.007 A 
ENDBRANCH  28  29
ENDBRANCH  19  28
BRANCH  10  32
HETATM   32  O   UNK N   1      20.999  18.930   6.166  0.00  0.00    -0.358 OA
HETATM   33  H   UNK N   1      21.715  19.534   6.188  0.00  0.00     0.217 HD
ENDBRANCH  10  32
TORSDOF 7
ENDMDL
