MODEL 1
REMARK VINA RESULT:      -5.4      0.000      0.000
REMARK  10 active torsions:
REMARK  status: ('A' for Active; 'I' for Inactive)
REMARK    1  A    between atoms: C_2  and  O_1 
REMARK    2  A    between atoms: C_2  and  C_3 
REMARK    3  A    between atoms: C_2  and  C_9 
REMARK    4  A    between atoms: C_3  and  O_4 
REMARK    5  A    between atoms: O_4  and  P_5 
REMARK    6  A    between atoms: P_5  and  O_6 
REMARK    7  A    between atoms: P_5  and  O_7 
REMARK    8  A    between atoms: C_9  and  O_10 
REMARK    9  A    between atoms: C_9  and  C_11 
REMARK   10  A    between atoms: C_11  and  O_12 
ROOT
HETATM    1  C   UNK N   1      36.018  15.298  10.547  0.00  0.00     0.181 C 
ENDROOT
BRANCH   1   2
HETATM    2  O   UNK N   1      37.140  16.077  10.831  0.00  0.00    -0.390 OA
HETATM    3  H   UNK N   1      38.017  15.665  10.885  0.00  0.00     0.210 HD
ENDBRANCH   1   2
BRANCH   1   4
HETATM    4  C   UNK N   1      35.296  15.936   9.370  0.00  0.00     0.215 C 
BRANCH   4   5
HETATM    5  O   UNK N   1      35.066  17.295   9.603  0.00  0.00    -0.294 OA
BRANCH   5   6
HETATM    6  P   UNK N   1      33.911  17.775   8.394  0.00  0.00     0.390 P 
HETATM    7  O   UNK N   1      34.439  16.426   7.837  0.00  0.00    -0.632 OA
BRANCH   6   8
HETATM    8  O   UNK N   1      34.432  18.194   6.792  0.00  0.00    -0.307 OA
HETATM    9  H   UNK N   1      35.355  18.114   6.507  0.00  0.00     0.222 HD
ENDBRANCH   6   8
BRANCH   6  10
HETATM   10  O   UNK N   1      35.199  18.942   8.434  0.00  0.00    -0.307 OA
HETATM   11  H   UNK N   1      36.043  19.029   8.903  0.00  0.00     0.222 HD
ENDBRANCH   6  10
ENDBRANCH   5   6
ENDBRANCH   4   5
ENDBRANCH   1   4
BRANCH   1  12
HETATM   12  C   UNK N   1      35.099  15.214  11.774  0.00  0.00     0.246 C 
BRANCH  12  13
HETATM   13  O   UNK N   1      33.792  14.928  11.366  0.00  0.00    -0.382 OA
HETATM   14  H   UNK N   1      33.174  14.488  11.969  0.00  0.00     0.210 HD
ENDBRANCH  12  13
BRANCH  12  15
HETATM   15  C   UNK N   1      35.565  14.185  12.776  0.00  0.00     0.172 C 
HETATM   16  O   UNK N   1      34.755  13.449  13.316  0.00  0.00    -0.648 OA
BRANCH  15  17
HETATM   17  O   UNK N   1      36.875  14.046  13.054  0.00  0.00    -0.774 OA
HETATM   18  H   UNK N   1      37.308  13.221  13.168  0.00  0.00     0.167 HD
ENDBRANCH  15  17
ENDBRANCH  12  15
ENDBRANCH   1  12
TORSDOF 10
ENDMDL
MODEL 2
REMARK VINA RESULT:      -5.3      0.638      1.584
REMARK  10 active torsions:
REMARK  status: ('A' for Active; 'I' for Inactive)
REMARK    1  A    between atoms: C_2  and  O_1 
REMARK    2  A    between atoms: C_2  and  C_3 
REMARK    3  A    between atoms: C_2  and  C_9 
REMARK    4  A    between atoms: C_3  and  O_4 
REMARK    5  A    between atoms: O_4  and  P_5 
REMARK    6  A    between atoms: P_5  and  O_6 
REMARK    7  A    between atoms: P_5  and  O_7 
REMARK    8  A    between atoms: C_9  and  O_10 
REMARK    9  A    between atoms: C_9  and  C_11 
REMARK   10  A    between atoms: C_11  and  O_12 
ROOT
HETATM    1  C   UNK N   1      34.539  15.647  11.090  0.00  0.00     0.181 C 
ENDROOT
BRANCH   1   2
HETATM    2  O   UNK N   1      33.503  14.729  11.269  0.00  0.00    -0.390 OA
HETATM    3  H   UNK N   1      33.086  14.310  10.500  0.00  0.00     0.210 HD
ENDBRANCH   1   2
BRANCH   1   4
HETATM    4  C   UNK N   1      34.531  16.078   9.631  0.00  0.00     0.215 C 
BRANCH   4   5
HETATM    5  O   UNK N   1      34.634  17.468   9.521  0.00  0.00    -0.294 OA
BRANCH   5   6
HETATM    6  P   UNK N   1      33.655  17.888   8.145  0.00  0.00     0.390 P 
HETATM    7  O   UNK N   1      34.159  16.467   7.777  0.00  0.00    -0.632 OA
BRANCH   6   8
HETATM    8  O   UNK N   1      34.380  18.125   6.586  0.00  0.00    -0.307 OA
HETATM    9  H   UNK N   1      34.314  17.469   5.875  0.00  0.00     0.222 HD
ENDBRANCH   6   8
BRANCH   6  10
HETATM   10  O   UNK N   1      35.000  18.986   8.235  0.00  0.00    -0.307 OA
HETATM   11  H   UNK N   1      35.716  19.259   7.640  0.00  0.00     0.222 HD
ENDBRANCH   6  10
ENDBRANCH   5   6
ENDBRANCH   4   5
ENDBRANCH   1   4
BRANCH   1  12
HETATM   12  C   UNK N   1      35.886  15.015  11.468  0.00  0.00     0.246 C 
BRANCH  12  13
HETATM   13  O   UNK N   1      36.921  15.917  11.202  0.00  0.00    -0.382 OA
HETATM   14  H   UNK N   1      36.913  16.804  11.593  0.00  0.00     0.210 HD
ENDBRANCH  12  13
BRANCH  12  15
HETATM   15  C   UNK N   1      35.936  14.580  12.912  0.00  0.00     0.172 C 
HETATM   16  O   UNK N   1      35.112  13.789  13.340  0.00  0.00    -0.648 OA
BRANCH  15  17
HETATM   17  O   UNK N   1      36.909  15.029  13.730  0.00  0.00    -0.774 OA
HETATM   18  H   UNK N   1      36.755  15.472  14.542  0.00  0.00     0.167 HD
ENDBRANCH  15  17
ENDBRANCH  12  15
ENDBRANCH   1  12
TORSDOF 10
ENDMDL
MODEL 3
REMARK VINA RESULT:      -5.1      2.680      5.853
REMARK  10 active torsions:
REMARK  status: ('A' for Active; 'I' for Inactive)
REMARK    1  A    between atoms: C_2  and  O_1 
REMARK    2  A    between atoms: C_2  and  C_3 
REMARK    3  A    between atoms: C_2  and  C_9 
REMARK    4  A    between atoms: C_3  and  O_4 
REMARK    5  A    between atoms: O_4  and  P_5 
REMARK    6  A    between atoms: P_5  and  O_6 
REMARK    7  A    between atoms: P_5  and  O_7 
REMARK    8  A    between atoms: C_9  and  O_10 
REMARK    9  A    between atoms: C_9  and  C_11 
REMARK   10  A    between atoms: C_11  and  O_12 
ROOT
HETATM    1  C   UNK N   1      35.356  14.429  11.301  0.00  0.00     0.181 C 
ENDROOT
BRANCH   1   2
HETATM    2  O   UNK N   1      34.067  14.303  11.820  0.00  0.00    -0.390 OA
HETATM    3  H   UNK N   1      33.810  13.496  12.293  0.00  0.00     0.210 HD
ENDBRANCH   1   2
BRANCH   1   4
HETATM    4  C   UNK N   1      36.299  13.647  12.203  0.00  0.00     0.215 C 
BRANCH   4   5
HETATM    5  O   UNK N   1      36.503  14.319  13.412  0.00  0.00    -0.294 OA
BRANCH   5   6
HETATM    6  P   UNK N   1      36.471  13.078  14.632  0.00  0.00     0.390 P 
HETATM    7  O   UNK N   1      34.977  13.481  14.525  0.00  0.00    -0.632 OA
BRANCH   6   8
HETATM    8  O   UNK N   1      36.054  13.462  16.272  0.00  0.00    -0.307 OA
HETATM    9  H   UNK N   1      35.145  13.405  16.606  0.00  0.00     0.222 HD
ENDBRANCH   6   8
BRANCH   6  10
HETATM   10  O   UNK N   1      37.404  14.422  15.222  0.00  0.00    -0.307 OA
HETATM   11  H   UNK N   1      37.218  15.341  15.468  0.00  0.00     0.222 HD
ENDBRANCH   6  10
ENDBRANCH   5   6
ENDBRANCH   4   5
ENDBRANCH   1   4
BRANCH   1  12
HETATM   12  C   UNK N   1      35.765  15.907  11.231  0.00  0.00     0.246 C 
BRANCH  12  13
HETATM   13  O   UNK N   1      37.118  16.008  10.895  0.00  0.00    -0.382 OA
HETATM   14  H   UNK N   1      37.468  15.546  10.118  0.00  0.00     0.210 HD
ENDBRANCH  12  13
BRANCH  12  15
HETATM   15  C   UNK N   1      34.928  16.692  10.249  0.00  0.00     0.172 C 
HETATM   16  O   UNK N   1      35.347  17.744   9.795  0.00  0.00    -0.648 OA
BRANCH  15  17
HETATM   17  O   UNK N   1      33.734  16.223   9.838  0.00  0.00    -0.774 OA
HETATM   18  H   UNK N   1      33.599  15.375   9.463  0.00  0.00     0.167 HD
ENDBRANCH  15  17
ENDBRANCH  12  15
ENDBRANCH   1  12
TORSDOF 10
ENDMDL
MODEL 4
REMARK VINA RESULT:      -5.1      2.388      5.535
REMARK  10 active torsions:
REMARK  status: ('A' for Active; 'I' for Inactive)
REMARK    1  A    between atoms: C_2  and  O_1 
REMARK    2  A    between atoms: C_2  and  C_3 
REMARK    3  A    between atoms: C_2  and  C_9 
REMARK    4  A    between atoms: C_3  and  O_4 
REMARK    5  A    between atoms: O_4  and  P_5 
REMARK    6  A    between atoms: P_5  and  O_6 
REMARK    7  A    between atoms: P_5  and  O_7 
REMARK    8  A    between atoms: C_9  and  O_10 
REMARK    9  A    between atoms: C_9  and  C_11 
REMARK   10  A    between atoms: C_11  and  O_12 
ROOT
HETATM    1  C   UNK N   1      34.524  14.961  10.677  0.00  0.00     0.181 C 
ENDROOT
BRANCH   1   2
HETATM    2  O   UNK N   1      33.199  15.030  11.105  0.00  0.00    -0.390 OA
HETATM    3  H   UNK N   1      32.613  15.726  10.766  0.00  0.00     0.210 HD
ENDBRANCH   1   2
BRANCH   1   4
HETATM    4  C   UNK N   1      35.245  13.950  11.557  0.00  0.00     0.215 C 
BRANCH   4   5
HETATM    5  O   UNK N   1      35.045  14.235  12.911  0.00  0.00    -0.294 OA
BRANCH   5   6
HETATM    6  P   UNK N   1      36.251  13.308  13.754  0.00  0.00     0.390 P 
HETATM    7  O   UNK N   1      35.092  13.364  14.784  0.00  0.00    -0.632 OA
BRANCH   6   8
HETATM    8  O   UNK N   1      37.023  13.944  15.173  0.00  0.00    -0.307 OA
HETATM    9  H   UNK N   1      37.986  13.968  15.276  0.00  0.00     0.222 HD
ENDBRANCH   6   8
BRANCH   6  10
HETATM   10  O   UNK N   1      36.869  14.909  13.472  0.00  0.00    -0.307 OA
HETATM   11  H   UNK N   1      37.496  15.500  13.916  0.00  0.00     0.222 HD
ENDBRANCH   6  10
ENDBRANCH   5   6
ENDBRANCH   4   5
ENDBRANCH   1   4
BRANCH   1  12
HETATM   12  C   UNK N   1      35.191  16.341  10.768  0.00  0.00     0.246 C 
BRANCH  12  13
HETATM   13  O   UNK N   1      36.579  16.190  10.856  0.00  0.00    -0.382 OA
HETATM   14  H   UNK N   1      37.016  15.421  10.458  0.00  0.00     0.210 HD
ENDBRANCH  12  13
BRANCH  12  15
HETATM   15  C   UNK N   1      34.840  17.231   9.601  0.00  0.00     0.172 C 
HETATM   16  O   UNK N   1      33.924  16.926   8.855  0.00  0.00    -0.648 OA
BRANCH  15  17
HETATM   17  O   UNK N   1      35.508  18.383   9.394  0.00  0.00    -0.774 OA
HETATM   18  H   UNK N   1      35.927  18.614   8.587  0.00  0.00     0.167 HD
ENDBRANCH  15  17
ENDBRANCH  12  15
ENDBRANCH   1  12
TORSDOF 10
ENDMDL
MODEL 5
REMARK VINA RESULT:      -5.1      2.204      5.022
REMARK  10 active torsions:
REMARK  status: ('A' for Active; 'I' for Inactive)
REMARK    1  A    between atoms: C_2  and  O_1 
REMARK    2  A    between atoms: C_2  and  C_3 
REMARK    3  A    between atoms: C_2  and  C_9 
REMARK    4  A    between atoms: C_3  and  O_4 
REMARK    5  A    between atoms: O_4  and  P_5 
REMARK    6  A    between atoms: P_5  and  O_6 
REMARK    7  A    between atoms: P_5  and  O_7 
REMARK    8  A    between atoms: C_9  and  O_10 
REMARK    9  A    between atoms: C_9  and  C_11 
REMARK   10  A    between atoms: C_11  and  O_12 
ROOT
HETATM    1  C   UNK N   1      33.903  15.847   8.470  0.00  0.00     0.181 C 
ENDROOT
BRANCH   1   2
HETATM    2  O   UNK N   1      32.581  15.440   8.285  0.00  0.00    -0.390 OA
HETATM    3  H   UNK N   1      32.352  14.498   8.326  0.00  0.00     0.210 HD
ENDBRANCH   1   2
BRANCH   1   4
HETATM    4  C   UNK N   1      34.563  14.864   9.426  0.00  0.00     0.215 C 
BRANCH   4   5
HETATM    5  O   UNK N   1      35.953  15.006   9.405  0.00  0.00    -0.294 OA
BRANCH   5   6
HETATM    6  P   UNK N   1      36.509  14.250  10.871  0.00  0.00     0.390 P 
HETATM    7  O   UNK N   1      34.980  14.365  11.111  0.00  0.00    -0.632 OA
BRANCH   6   8
HETATM    8  O   UNK N   1      36.416  15.090  12.387  0.00  0.00    -0.307 OA
HETATM    9  H   UNK N   1      37.051  14.942  13.104  0.00  0.00     0.222 HD
ENDBRANCH   6   8
BRANCH   6  10
HETATM   10  O   UNK N   1      37.209  15.838  10.757  0.00  0.00    -0.307 OA
HETATM   11  H   UNK N   1      37.273  16.612  11.336  0.00  0.00     0.222 HD
ENDBRANCH   6  10
ENDBRANCH   5   6
ENDBRANCH   4   5
ENDBRANCH   1   4
BRANCH   1  12
HETATM   12  C   UNK N   1      33.952  17.275   9.032  0.00  0.00     0.246 C 
BRANCH  12  13
HETATM   13  O   UNK N   1      34.648  17.281  10.244  0.00  0.00    -0.382 OA
HETATM   14  H   UNK N   1      34.651  18.072  10.805  0.00  0.00     0.210 HD
ENDBRANCH  12  13
BRANCH  12  15
HETATM   15  C   UNK N   1      34.579  18.254   8.070  0.00  0.00     0.172 C 
HETATM   16  O   UNK N   1      35.244  19.185   8.493  0.00  0.00    -0.648 OA
BRANCH  15  17
HETATM   17  O   UNK N   1      34.443  18.089   6.739  0.00  0.00    -0.774 OA
HETATM   18  H   UNK N   1      34.710  17.322   6.270  0.00  0.00     0.167 HD
ENDBRANCH  15  17
ENDBRANCH  12  15
ENDBRANCH   1  12
TORSDOF 10
ENDMDL
MODEL 6
REMARK VINA RESULT:      -5.0     14.862     16.579
REMARK  10 active torsions:
REMARK  status: ('A' for Active; 'I' for Inactive)
REMARK    1  A    between atoms: C_2  and  O_1 
REMARK    2  A    between atoms: C_2  and  C_3 
REMARK    3  A    between atoms: C_2  and  C_9 
REMARK    4  A    between atoms: C_3  and  O_4 
REMARK    5  A    between atoms: O_4  and  P_5 
REMARK    6  A    between atoms: P_5  and  O_6 
REMARK    7  A    between atoms: P_5  and  O_7 
REMARK    8  A    between atoms: C_9  and  O_10 
REMARK    9  A    between atoms: C_9  and  C_11 
REMARK   10  A    between atoms: C_11  and  O_12 
ROOT
HETATM    1  C   UNK N   1      19.895  18.645   2.583  0.00  0.00     0.181 C 
ENDROOT
BRANCH   1   2
HETATM    2  O   UNK N   1      18.513  18.519   2.445  0.00  0.00    -0.390 OA
HETATM    3  H   UNK N   1      17.937  18.598   3.222  0.00  0.00     0.210 HD
ENDBRANCH   1   2
BRANCH   1   4
HETATM    4  C   UNK N   1      20.342  17.692   3.682  0.00  0.00     0.215 C 
BRANCH   4   5
HETATM    5  O   UNK N   1      21.710  17.423   3.583  0.00  0.00    -0.294 OA
BRANCH   5   6
HETATM    6  P   UNK N   1      22.244  17.177   5.220  0.00  0.00     0.390 P 
HETATM    7  O   UNK N   1      20.717  17.391   5.395  0.00  0.00    -0.632 OA
BRANCH   6   8
HETATM    8  O   UNK N   1      22.163  18.467   6.379  0.00  0.00    -0.307 OA
HETATM    9  H   UNK N   1      22.699  18.476   7.187  0.00  0.00     0.222 HD
ENDBRANCH   6   8
BRANCH   6  10
HETATM   10  O   UNK N   1      22.977  18.627   4.602  0.00  0.00    -0.307 OA
HETATM   11  H   UNK N   1      22.771  19.574   4.625  0.00  0.00     0.222 HD
ENDBRANCH   6  10
ENDBRANCH   5   6
ENDBRANCH   4   5
ENDBRANCH   1   4
BRANCH   1  12
HETATM   12  C   UNK N   1      20.269  20.094   2.929  0.00  0.00     0.246 C 
BRANCH  12  13
HETATM   13  O   UNK N   1      20.561  20.194   4.292  0.00  0.00    -0.382 OA
HETATM   14  H   UNK N   1      21.480  20.196   4.600  0.00  0.00     0.210 HD
ENDBRANCH  12  13
BRANCH  12  15
HETATM   15  C   UNK N   1      21.434  20.600   2.112  0.00  0.00     0.172 C 
HETATM   16  O   UNK N   1      22.447  20.988   2.670  0.00  0.00    -0.648 OA
BRANCH  15  17
HETATM   17  O   UNK N   1      21.380  20.595   0.766  0.00  0.00    -0.774 OA
HETATM   18  H   UNK N   1      20.781  20.078   0.262  0.00  0.00     0.167 HD
ENDBRANCH  15  17
ENDBRANCH  12  15
ENDBRANCH   1  12
TORSDOF 10
ENDMDL
MODEL 7
REMARK VINA RESULT:      -4.8     16.051     17.379
REMARK  10 active torsions:
REMARK  status: ('A' for Active; 'I' for Inactive)
REMARK    1  A    between atoms: C_2  and  O_1 
REMARK    2  A    between atoms: C_2  and  C_3 
REMARK    3  A    between atoms: C_2  and  C_9 
REMARK    4  A    between atoms: C_3  and  O_4 
REMARK    5  A    between atoms: O_4  and  P_5 
REMARK    6  A    between atoms: P_5  and  O_6 
REMARK    7  A    between atoms: P_5  and  O_7 
REMARK    8  A    between atoms: C_9  and  O_10 
REMARK    9  A    between atoms: C_9  and  C_11 
REMARK   10  A    between atoms: C_11  and  O_12 
ROOT
HETATM    1  C   UNK N   1      20.272  18.290   2.540  0.00  0.00     0.181 C 
ENDROOT
BRANCH   1   2
HETATM    2  O   UNK N   1      19.057  18.056   1.895  0.00  0.00    -0.390 OA
HETATM    3  H   UNK N   1      18.402  18.768   1.819  0.00  0.00     0.210 HD
ENDBRANCH   1   2
BRANCH   1   4
HETATM    4  C   UNK N   1      20.401  17.278   3.669  0.00  0.00     0.215 C 
BRANCH   4   5
HETATM    5  O   UNK N   1      19.156  17.017   4.250  0.00  0.00    -0.294 OA
BRANCH   5   6
HETATM    6  P   UNK N   1      19.416  15.644   5.285  0.00  0.00     0.390 P 
HETATM    7  O   UNK N   1      17.918  15.967   5.527  0.00  0.00    -0.632 OA
BRANCH   6   8
HETATM    8  O   UNK N   1      19.328  15.809   7.011  0.00  0.00    -0.307 OA
HETATM    9  H   UNK N   1      19.293  15.045   7.606  0.00  0.00     0.222 HD
ENDBRANCH   6   8
BRANCH   6  10
HETATM   10  O   UNK N   1      20.402  16.963   5.843  0.00  0.00    -0.307 OA
HETATM   11  H   UNK N   1      20.969  17.630   5.428  0.00  0.00     0.222 HD
ENDBRANCH   6  10
ENDBRANCH   5   6
ENDBRANCH   4   5
ENDBRANCH   1   4
BRANCH   1  12
HETATM   12  C   UNK N   1      20.325  19.725   3.082  0.00  0.00     0.246 C 
BRANCH  12  13
HETATM   13  O   UNK N   1      20.824  19.719   4.388  0.00  0.00    -0.382 OA
HETATM   14  H   UNK N   1      20.633  20.453   4.991  0.00  0.00     0.210 HD
ENDBRANCH  12  13
BRANCH  12  15
HETATM   15  C   UNK N   1      21.155  20.640   2.214  0.00  0.00     0.172 C 
HETATM   16  O   UNK N   1      21.239  20.434   1.014  0.00  0.00    -0.648 OA
BRANCH  15  17
HETATM   17  O   UNK N   1      21.779  21.709   2.747  0.00  0.00    -0.774 OA
HETATM   18  H   UNK N   1      22.505  21.658   3.338  0.00  0.00     0.167 HD
ENDBRANCH  15  17
ENDBRANCH  12  15
ENDBRANCH   1  12
TORSDOF 10
ENDMDL
MODEL 8
REMARK VINA RESULT:      -4.7     10.719     12.748
REMARK  10 active torsions:
REMARK  status: ('A' for Active; 'I' for Inactive)
REMARK    1  A    between atoms: C_2  and  O_1 
REMARK    2  A    between atoms: C_2  and  C_3 
REMARK    3  A    between atoms: C_2  and  C_9 
REMARK    4  A    between atoms: C_3  and  O_4 
REMARK    5  A    between atoms: O_4  and  P_5 
REMARK    6  A    between atoms: P_5  and  O_6 
REMARK    7  A    between atoms: P_5  and  O_7 
REMARK    8  A    between atoms: C_9  and  O_10 
REMARK    9  A    between atoms: C_9  and  C_11 
REMARK   10  A    between atoms: C_11  and  O_12 
ROOT
HETATM    1  C   UNK N   1      44.579  20.995   2.696  0.00  0.00     0.181 C 
ENDROOT
BRANCH   1   2
HETATM    2  O   UNK N   1      44.299  21.516   1.433  0.00  0.00    -0.390 OA
HETATM    3  H   UNK N   1      44.977  22.013   0.949  0.00  0.00     0.210 HD
ENDBRANCH   1   2
BRANCH   1   4
HETATM    4  C   UNK N   1      43.525  19.943   3.010  0.00  0.00     0.215 C 
BRANCH   4   5
HETATM    5  O   UNK N   1      42.367  20.536   3.521  0.00  0.00    -0.294 OA
BRANCH   5   6
HETATM    6  P   UNK N   1      41.092  20.042   2.444  0.00  0.00     0.390 P 
HETATM    7  O   UNK N   1      41.271  21.542   2.087  0.00  0.00    -0.632 OA
BRANCH   6   8
HETATM    8  O   UNK N   1      39.487  20.679   2.625  0.00  0.00    -0.307 OA
HETATM    9  H   UNK N   1      38.770  20.175   3.039  0.00  0.00     0.222 HD
ENDBRANCH   6   8
BRANCH   6  10
HETATM   10  O   UNK N   1      40.533  19.889   4.084  0.00  0.00    -0.307 OA
HETATM   11  H   UNK N   1      40.937  19.672   4.938  0.00  0.00     0.222 HD
ENDBRANCH   6  10
ENDBRANCH   5   6
ENDBRANCH   4   5
ENDBRANCH   1   4
BRANCH   1  12
HETATM   12  C   UNK N   1      44.571  22.111   3.751  0.00  0.00     0.246 C 
BRANCH  12  13
HETATM   13  O   UNK N   1      45.858  22.279   4.270  0.00  0.00    -0.382 OA
HETATM   14  H   UNK N   1      46.585  22.569   3.698  0.00  0.00     0.210 HD
ENDBRANCH  12  13
BRANCH  12  15
HETATM   15  C   UNK N   1      44.058  23.420   3.202  0.00  0.00     0.172 C 
HETATM   16  O   UNK N   1      44.843  24.302   2.893  0.00  0.00    -0.648 OA
BRANCH  15  17
HETATM   17  O   UNK N   1      42.738  23.614   3.015  0.00  0.00    -0.774 OA
HETATM   18  H   UNK N   1      42.182  24.082   3.608  0.00  0.00     0.167 HD
ENDBRANCH  15  17
ENDBRANCH  12  15
ENDBRANCH   1  12
TORSDOF 10
ENDMDL
MODEL 9
REMARK VINA RESULT:      -4.5      3.662      5.507
REMARK  10 active torsions:
REMARK  status: ('A' for Active; 'I' for Inactive)
REMARK    1  A    between atoms: C_2  and  O_1 
REMARK    2  A    between atoms: C_2  and  C_3 
REMARK    3  A    between atoms: C_2  and  C_9 
REMARK    4  A    between atoms: C_3  and  O_4 
REMARK    5  A    between atoms: O_4  and  P_5 
REMARK    6  A    between atoms: P_5  and  O_6 
REMARK    7  A    between atoms: P_5  and  O_7 
REMARK    8  A    between atoms: C_9  and  O_10 
REMARK    9  A    between atoms: C_9  and  C_11 
REMARK   10  A    between atoms: C_11  and  O_12 
ROOT
HETATM    1  C   UNK N   1      32.514  17.450   7.811  0.00  0.00     0.181 C 
ENDROOT
BRANCH   1   2
HETATM    2  O   UNK N   1      32.204  16.881   9.047  0.00  0.00    -0.390 OA
HETATM    3  H   UNK N   1      32.620  17.218   9.856  0.00  0.00     0.210 HD
ENDBRANCH   1   2
BRANCH   1   4
HETATM    4  C   UNK N   1      31.743  16.689   6.743  0.00  0.00     0.215 C 
BRANCH   4   5
HETATM    5  O   UNK N   1      31.552  17.481   5.606  0.00  0.00    -0.294 OA
BRANCH   5   6
HETATM    6  P   UNK N   1      30.840  16.418   4.427  0.00  0.00     0.390 P 
HETATM    7  O   UNK N   1      32.332  16.439   4.002  0.00  0.00    -0.632 OA
BRANCH   6   8
HETATM    8  O   UNK N   1      30.761  16.880   2.755  0.00  0.00    -0.307 OA
HETATM    9  H   UNK N   1      30.524  16.256   2.053  0.00  0.00     0.222 HD
ENDBRANCH   6   8
BRANCH   6  10
HETATM   10  O   UNK N   1      30.151  18.005   4.242  0.00  0.00    -0.307 OA
HETATM   11  H   UNK N   1      29.258  18.367   4.139  0.00  0.00     0.222 HD
ENDBRANCH   6  10
ENDBRANCH   5   6
ENDBRANCH   4   5
ENDBRANCH   1   4
BRANCH   1  12
HETATM   12  C   UNK N   1      34.025  17.380   7.552  0.00  0.00     0.246 C 
BRANCH  12  13
HETATM   13  O   UNK N   1      34.319  17.959   6.313  0.00  0.00    -0.382 OA
HETATM   14  H   UNK N   1      33.741  18.642   5.940  0.00  0.00     0.210 HD
ENDBRANCH  12  13
BRANCH  12  15
HETATM   15  C   UNK N   1      34.830  18.048   8.640  0.00  0.00     0.172 C 
HETATM   16  O   UNK N   1      35.086  17.444   9.668  0.00  0.00    -0.648 OA
BRANCH  15  17
HETATM   17  O   UNK N   1      35.304  19.298   8.472  0.00  0.00    -0.774 OA
HETATM   18  H   UNK N   1      35.595  19.853   9.170  0.00  0.00     0.167 HD
ENDBRANCH  15  17
ENDBRANCH  12  15
ENDBRANCH   1  12
TORSDOF 10
ENDMDL
