REMARK  31 active torsions:
REMARK  status: ('A' for Active; 'I' for Inactive)
REMARK    1  A    between atoms: C_4  and  C_3 
REMARK    2  A    between atoms: C_12  and  C_3 
REMARK    3  A    between atoms: N_25  and  C_4 
REMARK    4  A    between atoms: C_6  and  C_5 
REMARK    5  A    between atoms: N_23  and  C_5 
REMARK    6  A    between atoms: S_54  and  C_6 
REMARK    7  A    between atoms: C_11  and  C_7 
REMARK    8  A    between atoms: O_46  and  C_7 
REMARK    9  A    between atoms: C_21  and  C_8 
REMARK   10  A    between atoms: O_47  and  C_8 
REMARK   11  A    between atoms: N_23  and  C_12 
REMARK   12  A    between atoms: O_34  and  C_12 
REMARK   13  A    between atoms: C_14  and  O_35 
REMARK   14  A    between atoms: C_15  and  O_49 
REMARK   15  A    between atoms: C_19  and  C_16 
REMARK   16  A    between atoms: C_21  and  C_16 
REMARK   17  A    between atoms: C_16  and  O_36 
REMARK   18  A    between atoms: N_22  and  C_17 
REMARK   19  A    between atoms: N_25  and  C_19 
REMARK   20  A    between atoms: O_37  and  C_19 
REMARK   21  A    between atoms: C_20  and  N_33 
REMARK   22  A    between atoms: P_51  and  O_38 
REMARK   23  A    between atoms: P_51  and  O_39 
REMARK   24  A    between atoms: P_52  and  O_41 
REMARK   25  A    between atoms: P_53  and  O_43 
REMARK   26  A    between atoms: S_54  and  O_45 
REMARK   27  A    between atoms: P_52  and  O_46 
REMARK   28  A    between atoms: P_53  and  O_47 
REMARK   29  A    between atoms: P_51  and  O_49 
REMARK   30  A    between atoms: P_52  and  O_50 
REMARK   31  A    between atoms: P_53  and  O_50 
ROOT
HETATM    1  O   UNK N   1      -1.224  -2.913   2.404  0.00  0.00    -0.631 OA
HETATM    2  P   UNK N   1      -2.269  -1.871   1.921  0.00  0.00     0.401 P 
ENDROOT
BRANCH   2   3
HETATM    3  O   UNK N   1      -2.410  -0.721   3.213  0.00  0.00    -0.307 OA
HETATM    4  H   UNK N   1      -1.894  -0.332   3.936  0.00  0.00     0.222 HD
ENDBRANCH   2   3
BRANCH   2   5
HETATM    5  O   UNK N   1      -1.688  -1.029   0.509  0.00  0.00    -0.294 OA
BRANCH   5   6
HETATM    6  C   UNK N   1      -0.955  -1.929  -0.280  0.00  0.00     0.215 C 
BRANCH   6   7
HETATM    7  C   UNK N   1       0.387  -1.317  -0.686  0.00  0.00     0.180 C 
HETATM    8  C   UNK N   1       1.562  -1.924   0.106  0.00  0.00     0.197 C 
HETATM    9  C   UNK N   1       2.461  -0.713   0.144  0.00  0.00     0.199 C 
HETATM   10  C   UNK N   1       1.408   0.340   0.456  0.00  0.00     0.262 C 
HETATM   11  O   UNK N   1       0.367   0.082  -0.453  0.00  0.00    -0.353 OA
BRANCH   8  12
HETATM   12  O   UNK N   1       2.220  -3.009  -0.522  0.00  0.00    -0.286 OA
BRANCH  12  13
HETATM   13  P   UNK N   1       1.164  -4.406  -0.646  0.00  0.00     0.391 P 
HETATM   14  O   UNK N   1       0.361  -4.563   0.672  0.00  0.00    -0.632 OA
BRANCH  13  15
HETATM   15  O   UNK N   1       0.031  -4.258  -1.955  0.00  0.00    -0.307 OA
HETATM   16  H   UNK N   1      -0.214  -3.668  -2.685  0.00  0.00     0.222 HD
ENDBRANCH  13  15
BRANCH  13  17
HETATM   17  O   UNK N   1       2.090  -5.862  -0.826  0.00  0.00    -0.307 OA
HETATM   18  H   UNK N   1       1.644  -6.717  -0.926  0.00  0.00     0.222 HD
ENDBRANCH  13  17
ENDBRANCH  12  13
ENDBRANCH   8  12
BRANCH   9  19
HETATM   19  O   UNK N   1       3.452  -0.821   1.121  0.00  0.00    -0.388 OA
HETATM   20  H   UNK N   1       3.732  -1.455   1.800  0.00  0.00     0.210 HD
ENDBRANCH   9  19
BRANCH  10  21
HETATM   21  N   UNK N   1       1.828   1.742   0.348  0.00  0.00    -0.297 N 
HETATM   22  C   UNK N   1       0.962   2.788   0.412  0.00  0.00     0.188 A 
HETATM   23  N   UNK N   1       1.608   3.982   0.324  0.00  0.00    -0.346 N 
HETATM   24  C   UNK N   1       2.904   3.651   0.217  0.00  0.00     0.122 A 
ATOM     25  HN  UNK N   1       1.199   4.917   0.336  1.00  0.00     0.167 HD
HETATM   26  C   UNK N   1       4.019   4.467   0.139  0.00  0.00     0.131 A 
HETATM   27  C   UNK N   1       3.041   2.308   0.223  0.00  0.00     0.142 A 
HETATM   28  N   UNK N   1       5.245   3.870   0.071  0.00  0.00    -0.337 N 
HETATM   29  C   UNK N   1       5.364   2.500   0.078  0.00  0.00     0.183 A 
ATOM     30  HN  UNK N   1       6.083   4.448   0.016  1.00  0.00     0.168 HD
HETATM   31  N   UNK N   1       4.251   1.705   0.156  0.00  0.00    -0.336 N 
ATOM     32  HN  UNK N   1       4.332   0.688   0.163  1.00  0.00     0.168 HD
BRANCH  26  33
HETATM   33  N   UNK N   1       3.900   5.871   0.150  0.00  0.00    -0.383 N 
HETATM   34  H   UNK N   1       4.708   6.434   0.157  0.00  0.00     0.157 HD
HETATM   35  H   UNK N   1       3.008   6.290   0.150  0.00  0.00     0.157 HD
ENDBRANCH  26  33
ENDBRANCH  10  21
ENDBRANCH   6   7
ENDBRANCH   5   6
ENDBRANCH   2   5
BRANCH   2  36
HETATM   36  O   UNK N   1      -3.817  -2.649   1.709  0.00  0.00    -0.195 OA
BRANCH  36  37
HETATM   37  P   UNK N   1      -3.776  -3.512   0.193  0.00  0.00     0.401 P 
HETATM   38  O   UNK N   1      -5.113  -4.295   0.106  0.00  0.00    -0.631 OA
BRANCH  37  39
HETATM   39  O   UNK N   1      -2.538  -4.728   0.175  0.00  0.00    -0.307 OA
HETATM   40  H   UNK N   1      -2.781  -5.667   0.164  0.00  0.00     0.222 HD
ENDBRANCH  37  39
BRANCH  37  41
HETATM   41  O   UNK N   1      -3.711  -2.501  -1.233  0.00  0.00    -0.296 OA
BRANCH  41  42
HETATM   42  C   UNK N   1      -4.203  -1.225  -0.904  0.00  0.00     0.192 C 
BRANCH  42  43
HETATM   43  C   UNK N   1      -5.708  -1.060  -1.169  0.00  0.00     0.008 C 
HETATM   44  C   UNK N   1      -5.911   0.271  -1.877  0.00  0.00     0.020 C 
HETATM   45  C   UNK N   1      -6.214  -2.157  -2.107  0.00  0.00     0.020 C 
BRANCH  43  46
HETATM   46  C   UNK N   1      -6.468  -1.083   0.182  0.00  0.00     0.202 C 
BRANCH  46  47
HETATM   47  C   UNK N   1      -7.963  -1.158   0.022  0.00  0.00     0.141 C 
BRANCH  47  48
HETATM   48  N   UNK N   1      -8.612  -0.209  -0.564  0.00  0.00    -0.372 N 
ATOM     49  HN  UNK N   1      -8.097   0.605  -0.899  1.00  0.00     0.161 HD
BRANCH  48  50
HETATM   50  C   UNK N   1     -10.045  -0.257  -0.764  0.00  0.00     0.129 C 
BRANCH  50  51
HETATM   51  C   UNK N   1     -10.776  -0.221   0.570  0.00  0.00     0.103 C 
BRANCH  51  52
HETATM   52  C   UNK N   1     -11.614  -1.446   0.740  0.00  0.00     0.112 C 
BRANCH  52  53
HETATM   53  N   UNK N   1     -12.660  -1.619   0.010  0.00  0.00    -0.374 N 
ATOM     54  HN  UNK N   1     -12.901  -0.920  -0.694  1.00  0.00     0.161 HD
BRANCH  53  55
HETATM   55  C   UNK N   1     -13.497  -2.781   0.167  0.00  0.00     0.134 C 
BRANCH  55  56
HETATM   56  C   UNK N   1     -13.230  -3.755  -0.959  0.00  0.00     0.124 C 
BRANCH  56  57
HETATM   57  S   UNK N   1     -13.199  -5.440  -0.288  0.00  0.00    -0.014 SA
BRANCH  57  58
HETATM   58  O   UNK N   1     -11.491  -5.411  -0.112  0.00  0.00    -0.330 OA
HETATM   59  H   UNK N   1     -10.994  -6.238  -0.012  0.00  0.00     0.227 HD
ENDBRANCH  57  58
ENDBRANCH  56  57
ENDBRANCH  55  56
ENDBRANCH  53  55
ENDBRANCH  52  53
BRANCH  52  60
HETATM   60  O   UNK N   1     -11.261  -2.364   1.665  0.00  0.00    -0.350 OA
HETATM   61  H   UNK N   1     -11.691  -2.895   2.307  0.00  0.00     0.219 HD
ENDBRANCH  52  60
ENDBRANCH  51  52
ENDBRANCH  50  51
ENDBRANCH  48  50
ENDBRANCH  47  48
BRANCH  47  62
HETATM   62  O   UNK N   1      -8.609  -2.249   0.487  0.00  0.00    -0.348 OA
HETATM   63  H   UNK N   1      -9.489  -2.239   0.810  0.00  0.00     0.219 HD
ENDBRANCH  47  62
ENDBRANCH  46  47
BRANCH  46  64
HETATM   64  O   UNK N   1      -6.128   0.030   0.959  0.00  0.00    -0.387 OA
HETATM   65  H   UNK N   1      -5.341   0.212   1.498  0.00  0.00     0.210 HD
ENDBRANCH  46  64
ENDBRANCH  43  46
ENDBRANCH  42  43
ENDBRANCH  41  42
ENDBRANCH  37  41
ENDBRANCH  36  37
ENDBRANCH   2  36
TORSDOF 31
