MODEL 1
REMARK VINA RESULT:      -6.5      0.000      0.000
REMARK  22 active torsions:
REMARK  status: ('A' for Active; 'I' for Inactive)
REMARK    1  A    between atoms: C_1  and  C_2 
REMARK    2  A    between atoms: C_1  and  C_16 
REMARK    3  A    between atoms: C_2  and  C_3 
REMARK    4  A    between atoms: C_3  and  C_4 
REMARK    5  A    between atoms: C_4  and  C_5 
REMARK    6  A    between atoms: C_5  and  C_6 
REMARK    7  A    between atoms: C_6  and  C_7 
REMARK    8  A    between atoms: C_7  and  C_8 
REMARK    9  A    between atoms: C_8  and  C_9 
REMARK   10  A    between atoms: C_9  and  C_10 
REMARK   11  A    between atoms: C_10  and  C_11 
REMARK   12  A    between atoms: C_16  and  C_17 
REMARK   13  A    between atoms: C_18  and  C_19 
REMARK   14  A    between atoms: C_19  and  O_21 
REMARK   15  A    between atoms: O_21  and  C_22 
REMARK   16  A    between atoms: C_22  and  C_24 
REMARK   17  A    between atoms: C_64  and  C_24 
REMARK   18  A    between atoms: C_30  and  C_65 
REMARK   19  A    between atoms: C_35  and  C_64 
REMARK   20  A    between atoms: C_49  and  C_62 
REMARK   21  A    between atoms: C_52  and  C_57 
REMARK   22  A    between atoms: C_65  and  O_66 
ROOT
HETATM    1  C   UNK N   1      25.625  17.804   4.059  0.00  0.00     0.081 A 
HETATM    2  C   UNK N   1      24.296  17.815   3.965  0.00  0.00     0.016 A 
HETATM    3  N   UNK N   1      26.567  16.845   3.930  0.00  0.00    -0.247 N 
HETATM    4  C   UNK N   1      26.157  18.973   4.371  0.00  0.00     0.049 A 
HETATM    5  C   UNK N   1      23.494  16.627   3.537  0.00  0.00     0.024 C 
HETATM    6  C   UNK N   1      23.774  19.242   4.265  0.00  0.00     0.197 A 
HETATM    7  C   UNK N   1      27.753  17.503   4.079  0.00  0.00     0.066 A 
HETATM    8 Mg   UNK N   1      26.095  14.797   3.957  0.00  0.00     0.000 Mg
HETATM    9  C   UNK N   1      27.517  18.846   4.366  0.00  0.00    -0.017 A 
HETATM   10  C   UNK N   1      25.101  19.901   4.618  0.00  0.00     0.180 A 
HETATM   11  C   UNK N   1      22.027  16.339   3.767  0.00  0.00     0.046 C 
HETATM   12  N   UNK N   1      24.061  15.647   2.945  0.00  0.00    -0.362 N 
ATOM     13  HN  UNK N   1      25.064  15.573   2.776  1.00  0.00     0.165 HD
HETATM   14  C   UNK N   1      28.979  16.964   4.028  0.00  0.00     0.057 C 
HETATM   15  N   UNK N   1      25.931  13.295   2.523  0.00  0.00    -0.248 N 
HETATM   16  C   UNK N   1      28.513  19.913   4.664  0.00  0.00     0.052 C 
HETATM   17  O   UNK N   1      25.258  21.039   5.024  0.00  0.00    -0.291 OA
HETATM   18  C   UNK N   1      21.704  15.181   2.784  0.00  0.00     0.041 C 
HETATM   19  C   UNK N   1      23.115  14.691   2.559  0.00  0.00     0.016 C 
HETATM   20  C   UNK N   1      29.286  15.557   3.729  0.00  0.00     0.016 C 
HETATM   21  C   UNK N   1      26.899  12.395   2.209  0.00  0.00     0.073 A 
HETATM   22  C   UNK N   1      24.789  12.878   1.918  0.00  0.00     0.066 A 
HETATM   23  C   UNK N   1      21.153  15.686   1.459  0.00  0.00     0.017 C 
HETATM   24  C   UNK N   1      23.429  13.482   2.057  0.00  0.00     0.057 C 
HETATM   25  C   UNK N   1      30.664  14.963   3.845  0.00  0.00     0.045 C 
HETATM   26  N   UNK N   1      28.411  14.736   3.317  0.00  0.00    -0.362 N 
ATOM     27  HN  UNK N   1      27.437  14.969   3.124  1.00  0.00     0.165 HD
HETATM   28  C   UNK N   1      26.366  11.381   1.418  0.00  0.00     0.046 A 
HETATM   29  C   UNK N   1      28.309  12.420   2.678  0.00  0.00     0.058 C 
HETATM   30  C   UNK N   1      25.032  11.705   1.226  0.00  0.00    -0.017 A 
HETATM   31  C   UNK N   1      30.408  13.455   3.594  0.00  0.00     0.041 C 
HETATM   32  C   UNK N   1      28.971  13.476   3.167  0.00  0.00     0.016 C 
HETATM   33  C   UNK N   1      24.017  10.904   0.478  0.00  0.00     0.052 C 
HETATM   34  C   UNK N   1      31.324  12.968   2.487  0.00  0.00     0.017 C 
ENDROOT
BRANCH  11  35
HETATM   35  C   UNK N   1      21.011  17.363   4.287  0.00  0.00     0.021 C 
BRANCH  35  36
HETATM   36  C   UNK N   1      20.079  17.005   5.439  0.00  0.00     0.112 C 
BRANCH  36  37
HETATM   37  C   UNK N   1      20.708  17.418   6.750  0.00  0.00     0.259 C 
HETATM   38  O   UNK N   1      21.450  18.393   6.798  0.00  0.00    -0.265 OA
BRANCH  37  39
HETATM   39  O   UNK N   1      20.394  16.746   7.890  0.00  0.00    -0.318 OA
BRANCH  39  40
HETATM   40  C   UNK N   1      21.144  15.681   8.355  0.00  0.00     0.206 C 
BRANCH  40  41
HETATM   41  C   UNK N   1      21.083  14.589   7.331  0.00  0.00     0.002 C 
HETATM   42  C   UNK N   1      22.145  14.173   6.641  0.00  0.00    -0.086 C 
HETATM   43  C   UNK N   1      23.491  14.820   6.780  0.00  0.00     0.043 C 
BRANCH  42  44
HETATM   44  C   UNK N   1      21.993  12.979   5.777  0.00  0.00     0.033 C 
BRANCH  44  45
HETATM   45  C   UNK N   1      20.735  12.243   6.196  0.00  0.00     0.005 C 
BRANCH  45  46
HETATM   46  C   UNK N   1      20.481  11.078   5.267  0.00  0.00     0.004 C 
BRANCH  46  47
HETATM   47  C   UNK N   1      21.146  11.303   3.918  0.00  0.00    -0.019 C 
HETATM   48  C   UNK N   1      20.134  11.810   2.906  0.00  0.00     0.010 C 
BRANCH  47  49
HETATM   49  C   UNK N   1      21.682   9.993   3.404  0.00  0.00     0.004 C 
BRANCH  49  50
HETATM   50  C   UNK N   1      22.725   9.404   4.344  0.00  0.00     0.001 C 
BRANCH  50  51
HETATM   51  C   UNK N   1      24.111  10.051   4.229  0.00  0.00     0.004 C 
BRANCH  51  52
HETATM   52  C   UNK N   1      24.833  10.359   5.548  0.00  0.00    -0.019 C 
HETATM   53  C   UNK N   1      25.384  11.780   5.558  0.00  0.00     0.010 C 
BRANCH  52  54
HETATM   54  C   UNK N   1      23.897  10.172   6.734  0.00  0.00     0.004 C 
BRANCH  54  55
HETATM   55  C   UNK N   1      24.200  11.158   7.854  0.00  0.00     0.001 C 
BRANCH  55  56
HETATM   56  C   UNK N   1      23.057  11.160   8.850  0.00  0.00     0.004 C 
BRANCH  56  57
HETATM   57  C   UNK N   1      23.405  11.989  10.076  0.00  0.00    -0.023 C 
HETATM   58  C   UNK N   1      22.227  12.842  10.512  0.00  0.00     0.009 C 
HETATM   59  C   UNK N   1      24.567  12.898   9.740  0.00  0.00     0.009 C 
ENDBRANCH  56  57
ENDBRANCH  55  56
ENDBRANCH  54  55
ENDBRANCH  52  54
ENDBRANCH  51  52
ENDBRANCH  50  51
ENDBRANCH  49  50
ENDBRANCH  47  49
ENDBRANCH  46  47
ENDBRANCH  45  46
ENDBRANCH  44  45
ENDBRANCH  42  44
ENDBRANCH  40  41
ENDBRANCH  39  40
ENDBRANCH  37  39
ENDBRANCH  36  37
ENDBRANCH  35  36
ENDBRANCH  11  35
BRANCH   6  60
HETATM   60  C   UNK N   1      23.251  19.926   3.009  0.00  0.00     0.274 C 
HETATM   61  O   UNK N   1      24.002  20.610   2.321  0.00  0.00    -0.264 OA
BRANCH  60  62
HETATM   62  O   UNK N   1      21.970  19.752   2.623  0.00  0.00    -0.326 OA
HETATM   63  C   UNK N   1      21.037  20.759   2.714  0.00  0.00     0.213 C 
ENDBRANCH  60  62
ENDBRANCH   6  60
BRANCH  28  64
HETATM   64  C   UNK N   1      27.057  10.156   0.924  0.00  0.00     0.158 C 
HETATM   65  C   UNK N   1      26.770   8.808   1.499  0.00  0.00     0.097 C 
HETATM   66  O   UNK N   1      27.850  10.235  -0.001  0.00  0.00    -0.293 OA
ENDBRANCH  28  64
BRANCH  25  67
HETATM   67  C   UNK N   1      31.307  15.201   5.201  0.00  0.00     0.007 C 
HETATM   68  C   UNK N   1      32.716  15.739   5.013  0.00  0.00     0.006 C 
ENDBRANCH  25  67
TORSDOF 22
ENDMDL
MODEL 2
REMARK VINA RESULT:      -6.5      2.159      5.012
REMARK  22 active torsions:
REMARK  status: ('A' for Active; 'I' for Inactive)
REMARK    1  A    between atoms: C_1  and  C_2 
REMARK    2  A    between atoms: C_1  and  C_16 
REMARK    3  A    between atoms: C_2  and  C_3 
REMARK    4  A    between atoms: C_3  and  C_4 
REMARK    5  A    between atoms: C_4  and  C_5 
REMARK    6  A    between atoms: C_5  and  C_6 
REMARK    7  A    between atoms: C_6  and  C_7 
REMARK    8  A    between atoms: C_7  and  C_8 
REMARK    9  A    between atoms: C_8  and  C_9 
REMARK   10  A    between atoms: C_9  and  C_10 
REMARK   11  A    between atoms: C_10  and  C_11 
REMARK   12  A    between atoms: C_16  and  C_17 
REMARK   13  A    between atoms: C_18  and  C_19 
REMARK   14  A    between atoms: C_19  and  O_21 
REMARK   15  A    between atoms: O_21  and  C_22 
REMARK   16  A    between atoms: C_22  and  C_24 
REMARK   17  A    between atoms: C_64  and  C_24 
REMARK   18  A    between atoms: C_30  and  C_65 
REMARK   19  A    between atoms: C_35  and  C_64 
REMARK   20  A    between atoms: C_49  and  C_62 
REMARK   21  A    between atoms: C_52  and  C_57 
REMARK   22  A    between atoms: C_65  and  O_66 
ROOT
HETATM    1  C   UNK N   1      23.337  15.498   3.326  0.00  0.00     0.081 A 
HETATM    2  C   UNK N   1      22.478  14.514   3.061  0.00  0.00     0.016 A 
HETATM    3  N   UNK N   1      24.683  15.574   3.398  0.00  0.00    -0.247 N 
HETATM    4  C   UNK N   1      22.766  16.656   3.608  0.00  0.00     0.049 A 
HETATM    5  C   UNK N   1      22.904  13.146   2.632  0.00  0.00     0.024 C 
HETATM    6  C   UNK N   1      21.031  15.056   3.174  0.00  0.00     0.197 A 
HETATM    7  C   UNK N   1      24.943  16.890   3.644  0.00  0.00     0.066 A 
HETATM    8 Mg   UNK N   1      25.899  13.863   3.531  0.00  0.00     0.000 Mg
HETATM    9  C   UNK N   1      23.746  17.590   3.788  0.00  0.00    -0.017 A 
HETATM   10  C   UNK N   1      21.352  16.470   3.640  0.00  0.00     0.180 A 
HETATM   11  C   UNK N   1      22.130  11.849   2.694  0.00  0.00     0.046 C 
HETATM   12  N   UNK N   1      24.089  12.947   2.200  0.00  0.00    -0.362 N 
ATOM     13  HN  UNK N   1      24.822  13.656   2.168  1.00  0.00     0.165 HD
HETATM   14  C   UNK N   1      26.150  17.452   3.796  0.00  0.00     0.057 C 
HETATM   15  N   UNK N   1      27.120  12.808   2.216  0.00  0.00    -0.248 N 
HETATM   16  C   UNK N   1      23.556  19.029   4.123  0.00  0.00     0.052 C 
HETATM   17  O   UNK N   1      20.547  17.323   3.968  0.00  0.00    -0.291 OA
HETATM   18  C   UNK N   1      22.927  10.882   1.776  0.00  0.00     0.041 C 
HETATM   19  C   UNK N   1      24.243  11.623   1.775  0.00  0.00     0.016 C 
HETATM   20  C   UNK N   1      27.442  16.764   3.654  0.00  0.00     0.016 C 
HETATM   21  C   UNK N   1      28.467  12.950   2.103  0.00  0.00     0.073 A 
HETATM   22  C   UNK N   1      26.776  11.703   1.505  0.00  0.00     0.066 A 
HETATM   23  C   UNK N   1      22.385  10.860   0.353  0.00  0.00     0.017 C 
HETATM   24  C   UNK N   1      25.421  11.079   1.418  0.00  0.00     0.057 C 
HETATM   25  C   UNK N   1      28.765  17.397   3.995  0.00  0.00     0.045 C 
HETATM   26  N   UNK N   1      27.545  15.584   3.202  0.00  0.00    -0.362 N 
ATOM     27  HN  UNK N   1      26.766  15.017   2.867  1.00  0.00     0.165 HD
HETATM   28  C   UNK N   1      28.991  11.913   1.336  0.00  0.00     0.046 A 
HETATM   29  C   UNK N   1      29.297  14.002   2.746  0.00  0.00     0.058 C 
HETATM   30  C   UNK N   1      27.910  11.138   0.948  0.00  0.00    -0.017 A 
HETATM   31  C   UNK N   1      29.758  16.218   3.837  0.00  0.00     0.041 C 
HETATM   32  C   UNK N   1      28.870  15.175   3.229  0.00  0.00     0.016 C 
HETATM   33  C   UNK N   1      27.956   9.880   0.143  0.00  0.00     0.052 C 
HETATM   34  C   UNK N   1      30.879  16.628   2.901  0.00  0.00     0.017 C 
ENDROOT
BRANCH  11  35
HETATM   35  C   UNK N   1      20.630  11.743   2.994  0.00  0.00     0.021 C 
BRANCH  35  36
HETATM   36  C   UNK N   1      20.145  11.499   4.418  0.00  0.00     0.112 C 
BRANCH  36  37
HETATM   37  C   UNK N   1      20.002  10.014   4.660  0.00  0.00     0.259 C 
HETATM   38  O   UNK N   1      18.980   9.567   5.170  0.00  0.00    -0.265 OA
BRANCH  37  39
HETATM   39  O   UNK N   1      20.983   9.167   4.249  0.00  0.00    -0.318 OA
BRANCH  39  40
HETATM   40  C   UNK N   1      21.826   8.521   5.135  0.00  0.00     0.206 C 
BRANCH  40  41
HETATM   41  C   UNK N   1      22.508   9.561   5.968  0.00  0.00     0.002 C 
HETATM   42  C   UNK N   1      23.388   9.270   6.927  0.00  0.00    -0.086 C 
HETATM   43  C   UNK N   1      23.718   7.856   7.304  0.00  0.00     0.043 C 
BRANCH  42  44
HETATM   44  C   UNK N   1      24.116  10.388   7.570  0.00  0.00     0.033 C 
BRANCH  44  45
HETATM   45  C   UNK N   1      23.211  11.010   8.617  0.00  0.00     0.005 C 
BRANCH  45  46
HETATM   46  C   UNK N   1      24.019  11.877   9.554  0.00  0.00     0.004 C 
BRANCH  46  47
HETATM   47  C   UNK N   1      23.128  12.501  10.619  0.00  0.00    -0.019 C 
HETATM   48  C   UNK N   1      23.519  12.000  11.997  0.00  0.00     0.010 C 
BRANCH  47  49
HETATM   49  C   UNK N   1      21.700  12.088  10.375  0.00  0.00     0.004 C 
BRANCH  49  50
HETATM   50  C   UNK N   1      20.778  13.294  10.263  0.00  0.00     0.001 C 
BRANCH  50  51
HETATM   51  C   UNK N   1      21.358  14.456   9.448  0.00  0.00     0.004 C 
BRANCH  51  52
HETATM   52  C   UNK N   1      20.474  15.013   8.324  0.00  0.00    -0.019 C 
HETATM   53  C   UNK N   1      20.003  16.428   8.639  0.00  0.00     0.010 C 
BRANCH  52  54
HETATM   54  C   UNK N   1      21.222  15.013   6.998  0.00  0.00     0.004 C 
BRANCH  54  55
HETATM   55  C   UNK N   1      22.529  14.237   7.087  0.00  0.00     0.001 C 
BRANCH  55  56
HETATM   56  C   UNK N   1      23.689  15.162   6.775  0.00  0.00     0.004 C 
BRANCH  56  57
HETATM   57  C   UNK N   1      25.017  14.499   7.108  0.00  0.00    -0.023 C 
HETATM   58  C   UNK N   1      26.167  15.480   6.966  0.00  0.00     0.009 C 
HETATM   59  C   UNK N   1      25.241  13.344   6.157  0.00  0.00     0.009 C 
ENDBRANCH  56  57
ENDBRANCH  55  56
ENDBRANCH  54  55
ENDBRANCH  52  54
ENDBRANCH  51  52
ENDBRANCH  50  51
ENDBRANCH  49  50
ENDBRANCH  47  49
ENDBRANCH  46  47
ENDBRANCH  45  46
ENDBRANCH  44  45
ENDBRANCH  42  44
ENDBRANCH  40  41
ENDBRANCH  39  40
ENDBRANCH  37  39
ENDBRANCH  36  37
ENDBRANCH  35  36
ENDBRANCH  11  35
BRANCH   6  60
HETATM   60  C   UNK N   1      20.365  15.172   1.809  0.00  0.00     0.274 C 
HETATM   61  O   UNK N   1      19.359  14.518   1.557  0.00  0.00    -0.264 OA
BRANCH  60  62
HETATM   62  O   UNK N   1      20.855  16.024   0.885  0.00  0.00    -0.326 OA
HETATM   63  C   UNK N   1      20.048  16.913   0.211  0.00  0.00     0.213 C 
ENDBRANCH  60  62
ENDBRANCH   6  60
BRANCH  28  64
HETATM   64  C   UNK N   1      30.426  11.641   1.036  0.00  0.00     0.158 C 
HETATM   65  C   UNK N   1      31.294  10.879   1.983  0.00  0.00     0.097 C 
HETATM   66  O   UNK N   1      30.907  12.008  -0.024  0.00  0.00    -0.293 OA
ENDBRANCH  28  64
BRANCH  25  67
HETATM   67  C   UNK N   1      28.807  17.977   5.398  0.00  0.00     0.007 C 
HETATM   68  C   UNK N   1      29.681  17.106   6.287  0.00  0.00     0.006 C 
ENDBRANCH  25  67
TORSDOF 22
ENDMDL
MODEL 3
REMARK VINA RESULT:      -6.2      7.325     12.101
REMARK  22 active torsions:
REMARK  status: ('A' for Active; 'I' for Inactive)
REMARK    1  A    between atoms: C_1  and  C_2 
REMARK    2  A    between atoms: C_1  and  C_16 
REMARK    3  A    between atoms: C_2  and  C_3 
REMARK    4  A    between atoms: C_3  and  C_4 
REMARK    5  A    between atoms: C_4  and  C_5 
REMARK    6  A    between atoms: C_5  and  C_6 
REMARK    7  A    between atoms: C_6  and  C_7 
REMARK    8  A    between atoms: C_7  and  C_8 
REMARK    9  A    between atoms: C_8  and  C_9 
REMARK   10  A    between atoms: C_9  and  C_10 
REMARK   11  A    between atoms: C_10  and  C_11 
REMARK   12  A    between atoms: C_16  and  C_17 
REMARK   13  A    between atoms: C_18  and  C_19 
REMARK   14  A    between atoms: C_19  and  O_21 
REMARK   15  A    between atoms: O_21  and  C_22 
REMARK   16  A    between atoms: C_22  and  C_24 
REMARK   17  A    between atoms: C_64  and  C_24 
REMARK   18  A    between atoms: C_30  and  C_65 
REMARK   19  A    between atoms: C_35  and  C_64 
REMARK   20  A    between atoms: C_49  and  C_62 
REMARK   21  A    between atoms: C_52  and  C_57 
REMARK   22  A    between atoms: C_65  and  O_66 
ROOT
HETATM    1  C   UNK N   1      31.674  13.419   5.257  0.00  0.00     0.081 A 
HETATM    2  C   UNK N   1      32.359  13.970   6.258  0.00  0.00     0.016 A 
HETATM    3  N   UNK N   1      30.455  13.641   4.720  0.00  0.00    -0.247 N 
HETATM    4  C   UNK N   1      32.295  12.416   4.661  0.00  0.00     0.049 A 
HETATM    5  C   UNK N   1      31.887  15.173   7.012  0.00  0.00     0.024 C 
HETATM    6  C   UNK N   1      33.714  13.235   6.416  0.00  0.00     0.197 A 
HETATM    7  C   UNK N   1      30.378  12.777   3.667  0.00  0.00     0.066 A 
HETATM    8 Mg   UNK N   1      28.984  14.774   5.706  0.00  0.00     0.000 Mg
HETATM    9  C   UNK N   1      31.526  11.989   3.617  0.00  0.00    -0.017 A 
HETATM   10  C   UNK N   1      33.511  12.156   5.360  0.00  0.00     0.180 A 
HETATM   11  C   UNK N   1      32.304  15.658   8.382  0.00  0.00     0.046 C 
HETATM   12  N   UNK N   1      30.961  15.911   6.531  0.00  0.00    -0.362 N 
ATOM     13  HN  UNK N   1      30.455  15.718   5.667  1.00  0.00     0.165 HD
HETATM   14  C   UNK N   1      29.345  12.633   2.825  0.00  0.00     0.057 C 
HETATM   15  N   UNK N   1      28.216  16.700   5.508  0.00  0.00    -0.248 N 
HETATM   16  C   UNK N   1      31.839  10.878   2.675  0.00  0.00     0.052 C 
HETATM   17  O   UNK N   1      34.264  11.228   5.121  0.00  0.00    -0.291 OA
HETATM   18  C   UNK N   1      31.774  17.116   8.451  0.00  0.00     0.041 C 
HETATM   19  C   UNK N   1      30.739  17.020   7.354  0.00  0.00     0.016 C 
HETATM   20  C   UNK N   1      28.114  13.436   2.831  0.00  0.00     0.016 C 
HETATM   21  C   UNK N   1      27.084  17.033   4.834  0.00  0.00     0.073 A 
HETATM   22  C   UNK N   1      28.597  17.797   6.212  0.00  0.00     0.066 A 
HETATM   23  C   UNK N   1      32.826  18.133   8.032  0.00  0.00     0.017 C 
HETATM   24  C   UNK N   1      29.724  17.889   7.189  0.00  0.00     0.057 C 
HETATM   25  C   UNK N   1      26.915  13.130   1.973  0.00  0.00     0.045 C 
HETATM   26  N   UNK N   1      27.976  14.476   3.544  0.00  0.00    -0.362 N 
ATOM     27  HN  UNK N   1      28.698  14.871   4.146  1.00  0.00     0.165 HD
HETATM   28  C   UNK N   1      26.724  18.344   5.130  0.00  0.00     0.046 A 
HETATM   29  C   UNK N   1      26.285  16.135   3.959  0.00  0.00     0.058 C 
HETATM   30  C   UNK N   1      27.698  18.825   5.992  0.00  0.00    -0.017 A 
HETATM   31  C   UNK N   1      25.862  14.147   2.482  0.00  0.00     0.041 C 
HETATM   32  C   UNK N   1      26.700  14.997   3.387  0.00  0.00     0.016 C 
HETATM   33  C   UNK N   1      27.738  20.175   6.630  0.00  0.00     0.052 C 
HETATM   34  C   UNK N   1      25.315  14.934   1.305  0.00  0.00     0.017 C 
ENDROOT
BRANCH  11  35
HETATM   35  C   UNK N   1      33.505  15.119   9.168  0.00  0.00     0.021 C 
BRANCH  35  36
HETATM   36  C   UNK N   1      33.791  15.624  10.578  0.00  0.00     0.112 C 
BRANCH  36  37
HETATM   37  C   UNK N   1      35.210  16.138  10.656  0.00  0.00     0.259 C 
HETATM   38  O   UNK N   1      35.483  17.262  10.245  0.00  0.00    -0.265 OA
BRANCH  37  39
HETATM   39  O   UNK N   1      36.171  15.378  11.245  0.00  0.00    -0.318 OA
BRANCH  39  40
HETATM   40  C   UNK N   1      35.926  14.609  12.368  0.00  0.00     0.206 C 
BRANCH  40  41
HETATM   41  C   UNK N   1      36.815  13.405  12.309  0.00  0.00     0.002 C 
HETATM   42  C   UNK N   1      36.519  12.311  11.607  0.00  0.00    -0.086 C 
HETATM   43  C   UNK N   1      35.223  12.163  10.868  0.00  0.00     0.043 C 
BRANCH  42  44
HETATM   44  C   UNK N   1      37.551  11.253  11.493  0.00  0.00     0.033 C 
BRANCH  44  45
HETATM   45  C   UNK N   1      36.858   9.904  11.509  0.00  0.00     0.005 C 
BRANCH  45  46
HETATM   46  C   UNK N   1      36.996   9.264  12.871  0.00  0.00     0.004 C 
BRANCH  46  47
HETATM   47  C   UNK N   1      35.656   8.741  13.364  0.00  0.00    -0.019 C 
HETATM   48  C   UNK N   1      34.588   8.936  12.304  0.00  0.00     0.010 C 
BRANCH  47  49
HETATM   49  C   UNK N   1      35.234   9.524  14.580  0.00  0.00     0.004 C 
BRANCH  49  50
HETATM   50  C   UNK N   1      34.187  10.574  14.237  0.00  0.00     0.001 C 
BRANCH  50  51
HETATM   51  C   UNK N   1      34.243  11.829  15.115  0.00  0.00     0.004 C 
BRANCH  51  52
HETATM   52  C   UNK N   1      35.501  12.006  15.977  0.00  0.00    -0.019 C 
HETATM   53  C   UNK N   1      36.084  13.407  15.824  0.00  0.00     0.010 C 
BRANCH  52  54
HETATM   54  C   UNK N   1      35.192  11.745  17.445  0.00  0.00     0.004 C 
BRANCH  54  55
HETATM   55  C   UNK N   1      36.052  10.623  18.012  0.00  0.00     0.001 C 
BRANCH  55  56
HETATM   56  C   UNK N   1      35.284   9.897  19.098  0.00  0.00     0.004 C 
BRANCH  56  57
HETATM   57  C   UNK N   1      34.255   8.951  18.496  0.00  0.00    -0.023 C 
HETATM   58  C   UNK N   1      33.099   8.722  19.453  0.00  0.00     0.009 C 
HETATM   59  C   UNK N   1      34.919   7.623  18.207  0.00  0.00     0.009 C 
ENDBRANCH  56  57
ENDBRANCH  55  56
ENDBRANCH  54  55
ENDBRANCH  52  54
ENDBRANCH  51  52
ENDBRANCH  50  51
ENDBRANCH  49  50
ENDBRANCH  47  49
ENDBRANCH  46  47
ENDBRANCH  45  46
ENDBRANCH  44  45
ENDBRANCH  42  44
ENDBRANCH  40  41
ENDBRANCH  39  40
ENDBRANCH  37  39
ENDBRANCH  36  37
ENDBRANCH  35  36
ENDBRANCH  11  35
BRANCH   6  60
HETATM   60  C   UNK N   1      34.881  14.099   5.960  0.00  0.00     0.274 C 
HETATM   61  O   UNK N   1      34.677  15.119   5.311  0.00  0.00    -0.264 OA
BRANCH  60  62
HETATM   62  O   UNK N   1      36.145  13.768   6.300  0.00  0.00    -0.326 OA
HETATM   63  C   UNK N   1      36.638  13.979   7.568  0.00  0.00     0.213 C 
ENDBRANCH  60  62
ENDBRANCH   6  60
BRANCH  28  64
HETATM   64  C   UNK N   1      25.508  19.077   4.675  0.00  0.00     0.158 C 
HETATM   65  C   UNK N   1      25.564  20.076   3.565  0.00  0.00     0.097 C 
HETATM   66  O   UNK N   1      24.425  18.837   5.184  0.00  0.00    -0.293 OA
ENDBRANCH  28  64
BRANCH  25  67
HETATM   67  C   UNK N   1      26.424  11.700   2.119  0.00  0.00     0.007 C 
HETATM   68  C   UNK N   1      25.453  11.374   0.995  0.00  0.00     0.006 C 
ENDBRANCH  25  67
TORSDOF 22
ENDMDL
MODEL 4
REMARK VINA RESULT:      -6.2      6.570     11.806
REMARK  22 active torsions:
REMARK  status: ('A' for Active; 'I' for Inactive)
REMARK    1  A    between atoms: C_1  and  C_2 
REMARK    2  A    between atoms: C_1  and  C_16 
REMARK    3  A    between atoms: C_2  and  C_3 
REMARK    4  A    between atoms: C_3  and  C_4 
REMARK    5  A    between atoms: C_4  and  C_5 
REMARK    6  A    between atoms: C_5  and  C_6 
REMARK    7  A    between atoms: C_6  and  C_7 
REMARK    8  A    between atoms: C_7  and  C_8 
REMARK    9  A    between atoms: C_8  and  C_9 
REMARK   10  A    between atoms: C_9  and  C_10 
REMARK   11  A    between atoms: C_10  and  C_11 
REMARK   12  A    between atoms: C_16  and  C_17 
REMARK   13  A    between atoms: C_18  and  C_19 
REMARK   14  A    between atoms: C_19  and  O_21 
REMARK   15  A    between atoms: O_21  and  C_22 
REMARK   16  A    between atoms: C_22  and  C_24 
REMARK   17  A    between atoms: C_64  and  C_24 
REMARK   18  A    between atoms: C_30  and  C_65 
REMARK   19  A    between atoms: C_35  and  C_64 
REMARK   20  A    between atoms: C_49  and  C_62 
REMARK   21  A    between atoms: C_52  and  C_57 
REMARK   22  A    between atoms: C_65  and  O_66 
ROOT
HETATM    1  C   UNK N   1      31.818  13.591   5.456  0.00  0.00     0.081 A 
HETATM    2  C   UNK N   1      32.445  14.152   6.490  0.00  0.00     0.016 A 
HETATM    3  N   UNK N   1      30.611  13.772   4.880  0.00  0.00    -0.247 N 
HETATM    4  C   UNK N   1      32.502  12.626   4.866  0.00  0.00     0.049 A 
HETATM    5  C   UNK N   1      31.895  15.321   7.246  0.00  0.00     0.024 C 
HETATM    6  C   UNK N   1      33.822  13.471   6.684  0.00  0.00     0.197 A 
HETATM    7  C   UNK N   1      30.607  12.925   3.810  0.00  0.00     0.066 A 
HETATM    8 Mg   UNK N   1      29.059  14.824   5.831  0.00  0.00     0.000 Mg
HETATM    9  C   UNK N   1      31.788  12.186   3.788  0.00  0.00    -0.017 A 
HETATM   10  C   UNK N   1      33.703  12.404   5.603  0.00  0.00     0.180 A 
HETATM   11  C   UNK N   1      32.243  15.797   8.638  0.00  0.00     0.046 C 
HETATM   12  N   UNK N   1      30.957  16.028   6.746  0.00  0.00    -0.362 N 
ATOM     13  HN  UNK N   1      30.490  15.830   5.860  1.00  0.00     0.165 HD
HETATM   14  C   UNK N   1      29.612  12.753   2.930  0.00  0.00     0.057 C 
HETATM   15  N   UNK N   1      28.218  16.719   5.638  0.00  0.00    -0.248 N 
HETATM   16  C   UNK N   1      32.181  11.107   2.839  0.00  0.00     0.052 C 
HETATM   17  O   UNK N   1      34.503  11.514   5.375  0.00  0.00    -0.291 OA
HETATM   18  C   UNK N   1      31.649  17.230   8.712  0.00  0.00     0.041 C 
HETATM   19  C   UNK N   1      30.659  17.112   7.578  0.00  0.00     0.016 C 
HETATM   20  C   UNK N   1      28.347  13.504   2.906  0.00  0.00     0.016 C 
HETATM   21  C   UNK N   1      27.096  17.016   4.931  0.00  0.00     0.073 A 
HETATM   22  C   UNK N   1      28.527  17.818   6.374  0.00  0.00     0.066 A 
HETATM   23  C   UNK N   1      32.672  18.298   8.349  0.00  0.00     0.017 C 
HETATM   24  C   UNK N   1      29.614  17.939   7.392  0.00  0.00     0.057 C 
HETATM   25  C   UNK N   1      27.194  13.163   2.000  0.00  0.00     0.045 C 
HETATM   26  N   UNK N   1      28.141  14.523   3.631  0.00  0.00    -0.362 N 
ATOM     27  HN  UNK N   1      28.824  14.938   4.264  1.00  0.00     0.165 HD
HETATM   28  C   UNK N   1      26.671  18.306   5.235  0.00  0.00     0.046 A 
HETATM   29  C   UNK N   1      26.368  16.103   4.012  0.00  0.00     0.058 C 
HETATM   30  C   UNK N   1      27.593  18.812   6.139  0.00  0.00    -0.017 A 
HETATM   31  C   UNK N   1      26.081  14.126   2.488  0.00  0.00     0.041 C 
HETATM   32  C   UNK N   1      26.851  14.994   3.437  0.00  0.00     0.016 C 
HETATM   33  C   UNK N   1      27.553  20.150   6.800  0.00  0.00     0.052 C 
HETATM   34  C   UNK N   1      25.542  14.910   1.306  0.00  0.00     0.017 C 
ENDROOT
BRANCH  11  35
HETATM   35  C   UNK N   1      33.438  15.295   9.457  0.00  0.00     0.021 C 
BRANCH  35  36
HETATM   36  C   UNK N   1      34.737  16.092   9.491  0.00  0.00     0.112 C 
BRANCH  36  37
HETATM   37  C   UNK N   1      35.692  15.468  10.482  0.00  0.00     0.259 C 
HETATM   38  O   UNK N   1      36.888  15.389  10.221  0.00  0.00    -0.265 OA
BRANCH  37  39
HETATM   39  O   UNK N   1      35.232  15.055  11.693  0.00  0.00    -0.318 OA
BRANCH  39  40
HETATM   40  C   UNK N   1      36.023  15.053  12.828  0.00  0.00     0.206 C 
BRANCH  40  41
HETATM   41  C   UNK N   1      35.695  13.824  13.618  0.00  0.00     0.002 C 
HETATM   42  C   UNK N   1      36.150  13.605  14.852  0.00  0.00    -0.086 C 
HETATM   43  C   UNK N   1      37.098  14.547  15.532  0.00  0.00     0.043 C 
BRANCH  42  44
HETATM   44  C   UNK N   1      35.626  12.433  15.593  0.00  0.00     0.033 C 
BRANCH  44  45
HETATM   45  C   UNK N   1      34.232  12.126  15.078  0.00  0.00     0.005 C 
BRANCH  45  46
HETATM   46  C   UNK N   1      34.089  10.645  14.816  0.00  0.00     0.004 C 
BRANCH  46  47
HETATM   47  C   UNK N   1      34.694  10.271  13.471  0.00  0.00    -0.019 C 
HETATM   48  C   UNK N   1      33.603  10.090  12.431  0.00  0.00     0.010 C 
BRANCH  47  49
HETATM   49  C   UNK N   1      35.417   8.956  13.601  0.00  0.00     0.004 C 
BRANCH  49  50
HETATM   50  C   UNK N   1      36.857   9.056  13.119  0.00  0.00     0.001 C 
BRANCH  50  51
HETATM   51  C   UNK N   1      37.389  10.491  13.019  0.00  0.00     0.004 C 
BRANCH  51  52
HETATM   52  C   UNK N   1      37.956  10.918  11.658  0.00  0.00    -0.019 C 
HETATM   53  C   UNK N   1      38.158   9.716  10.742  0.00  0.00     0.010 C 
BRANCH  52  54
HETATM   54  C   UNK N   1      37.034  11.922  10.980  0.00  0.00     0.004 C 
BRANCH  54  55
HETATM   55  C   UNK N   1      36.580  11.435   9.610  0.00  0.00     0.001 C 
BRANCH  55  56
HETATM   56  C   UNK N   1      35.070  11.531   9.515  0.00  0.00     0.004 C 
BRANCH  56  57
HETATM   57  C   UNK N   1      34.504  10.390   8.684  0.00  0.00    -0.023 C 
HETATM   58  C   UNK N   1      32.986  10.400   8.704  0.00  0.00     0.009 C 
HETATM   59  C   UNK N   1      34.990   9.077   9.258  0.00  0.00     0.009 C 
ENDBRANCH  56  57
ENDBRANCH  55  56
ENDBRANCH  54  55
ENDBRANCH  52  54
ENDBRANCH  51  52
ENDBRANCH  50  51
ENDBRANCH  49  50
ENDBRANCH  47  49
ENDBRANCH  46  47
ENDBRANCH  45  46
ENDBRANCH  44  45
ENDBRANCH  42  44
ENDBRANCH  40  41
ENDBRANCH  39  40
ENDBRANCH  37  39
ENDBRANCH  36  37
ENDBRANCH  35  36
ENDBRANCH  11  35
BRANCH   6  60
HETATM   60  C   UNK N   1      34.967  14.392   6.284  0.00  0.00     0.274 C 
HETATM   61  O   UNK N   1      34.744  15.405   5.630  0.00  0.00    -0.264 OA
BRANCH  60  62
HETATM   62  O   UNK N   1      36.228  14.120   6.680  0.00  0.00    -0.326 OA
HETATM   63  C   UNK N   1      37.297  14.192   5.816  0.00  0.00     0.213 C 
ENDBRANCH  60  62
ENDBRANCH   6  60
BRANCH  28  64
HETATM   64  C   UNK N   1      25.442  18.996   4.749  0.00  0.00     0.158 C 
HETATM   65  C   UNK N   1      25.496  20.028   3.671  0.00  0.00     0.097 C 
HETATM   66  O   UNK N   1      24.351  18.691   5.205  0.00  0.00    -0.293 OA
ENDBRANCH  28  64
BRANCH  25  67
HETATM   67  C   UNK N   1      26.759  11.711   2.104  0.00  0.00     0.007 C 
HETATM   68  C   UNK N   1      27.234  10.945   0.880  0.00  0.00     0.006 C 
ENDBRANCH  25  67
TORSDOF 22
ENDMDL
MODEL 5
REMARK VINA RESULT:      -6.1      3.002      6.059
REMARK  22 active torsions:
REMARK  status: ('A' for Active; 'I' for Inactive)
REMARK    1  A    between atoms: C_1  and  C_2 
REMARK    2  A    between atoms: C_1  and  C_16 
REMARK    3  A    between atoms: C_2  and  C_3 
REMARK    4  A    between atoms: C_3  and  C_4 
REMARK    5  A    between atoms: C_4  and  C_5 
REMARK    6  A    between atoms: C_5  and  C_6 
REMARK    7  A    between atoms: C_6  and  C_7 
REMARK    8  A    between atoms: C_7  and  C_8 
REMARK    9  A    between atoms: C_8  and  C_9 
REMARK   10  A    between atoms: C_9  and  C_10 
REMARK   11  A    between atoms: C_10  and  C_11 
REMARK   12  A    between atoms: C_16  and  C_17 
REMARK   13  A    between atoms: C_18  and  C_19 
REMARK   14  A    between atoms: C_19  and  O_21 
REMARK   15  A    between atoms: O_21  and  C_22 
REMARK   16  A    between atoms: C_22  and  C_24 
REMARK   17  A    between atoms: C_64  and  C_24 
REMARK   18  A    between atoms: C_30  and  C_65 
REMARK   19  A    between atoms: C_35  and  C_64 
REMARK   20  A    between atoms: C_49  and  C_62 
REMARK   21  A    between atoms: C_52  and  C_57 
REMARK   22  A    between atoms: C_65  and  O_66 
ROOT
HETATM    1  C   UNK N   1      30.790  16.510   6.712  0.00  0.00     0.081 A 
HETATM    2  C   UNK N   1      29.461  16.485   6.612  0.00  0.00     0.016 A 
HETATM    3  N   UNK N   1      31.786  15.786   6.158  0.00  0.00    -0.247 N 
HETATM    4  C   UNK N   1      31.254  17.419   7.551  0.00  0.00     0.049 A 
HETATM    5  C   UNK N   1      28.726  15.598   5.657  0.00  0.00     0.024 C 
HETATM    6  C   UNK N   1      28.858  17.564   7.545  0.00  0.00     0.197 A 
HETATM    7  C   UNK N   1      32.932  16.363   6.621  0.00  0.00     0.066 A 
HETATM    8 Mg   UNK N   1      31.439  13.947   5.200  0.00  0.00     0.000 Mg
HETATM    9  C   UNK N   1      32.619  17.392   7.508  0.00  0.00    -0.017 A 
HETATM   10  C   UNK N   1      30.148  18.054   8.191  0.00  0.00     0.180 A 
HETATM   11  C   UNK N   1      27.283  15.149   5.699  0.00  0.00     0.046 C 
HETATM   12  N   UNK N   1      29.343  15.053   4.680  0.00  0.00    -0.362 N 
ATOM     13  HN  UNK N   1      30.347  15.128   4.513  1.00  0.00     0.165 HD
HETATM   14  C   UNK N   1      34.187  15.987   6.341  0.00  0.00     0.057 C 
HETATM   15  N   UNK N   1      31.346  13.301   3.222  0.00  0.00    -0.248 N 
HETATM   16  C   UNK N   1      33.553  18.246   8.294  0.00  0.00     0.052 C 
HETATM   17  O   UNK N   1      30.242  18.869   9.091  0.00  0.00    -0.291 OA
HETATM   18  C   UNK N   1      27.017  14.580   4.278  0.00  0.00     0.041 C 
HETATM   19  C   UNK N   1      28.452  14.341   3.871  0.00  0.00     0.016 C 
HETATM   20  C   UNK N   1      34.574  14.913   5.413  0.00  0.00     0.016 C 
HETATM   21  C   UNK N   1      32.362  12.717   2.534  0.00  0.00     0.073 A 
HETATM   22  C   UNK N   1      30.222  13.154   2.473  0.00  0.00     0.066 A 
HETATM   23  C   UNK N   1      26.418  15.621   3.343  0.00  0.00     0.017 C 
HETATM   24  C   UNK N   1      28.830  13.537   2.860  0.00  0.00     0.057 C 
HETATM   25  C   UNK N   1      35.988  14.418   5.256  0.00  0.00     0.045 C 
HETATM   26  N   UNK N   1      33.745  14.336   4.647  0.00  0.00    -0.362 N 
ATOM     27  HN  UNK N   1      32.756  14.574   4.571  1.00  0.00     0.165 HD
HETATM   28  C   UNK N   1      31.880  12.172   1.348  0.00  0.00     0.046 A 
HETATM   29  C   UNK N   1      33.774  12.601   2.982  0.00  0.00     0.058 C 
HETATM   30  C   UNK N   1      30.526  12.468   1.311  0.00  0.00    -0.017 A 
HETATM   31  C   UNK N   1      35.819  13.199   4.314  0.00  0.00     0.041 C 
HETATM   32  C   UNK N   1      34.378  13.335   3.925  0.00  0.00     0.016 C 
HETATM   33  C   UNK N   1      29.551  12.061   0.255  0.00  0.00     0.052 C 
HETATM   34  C   UNK N   1      36.748  13.352   3.124  0.00  0.00     0.017 C 
ENDROOT
BRANCH  11  35
HETATM   35  C   UNK N   1      26.214  15.740   6.626  0.00  0.00     0.021 C 
BRANCH  35  36
HETATM   36  C   UNK N   1      24.869  15.041   6.792  0.00  0.00     0.112 C 
BRANCH  36  37
HETATM   37  C   UNK N   1      25.050  13.772   7.591  0.00  0.00     0.259 C 
HETATM   38  O   UNK N   1      25.483  13.820   8.738  0.00  0.00    -0.265 OA
BRANCH  37  39
HETATM   39  O   UNK N   1      24.667  12.580   7.059  0.00  0.00    -0.318 OA
BRANCH  39  40
HETATM   40  C   UNK N   1      23.929  11.651   7.770  0.00  0.00     0.206 C 
BRANCH  40  41
HETATM   41  C   UNK N   1      22.628  12.286   8.151  0.00  0.00     0.002 C 
HETATM   42  C   UNK N   1      22.171  12.325   9.403  0.00  0.00    -0.086 C 
HETATM   43  C   UNK N   1      22.897  11.666  10.538  0.00  0.00     0.043 C 
BRANCH  42  44
HETATM   44  C   UNK N   1      20.953  13.122   9.678  0.00  0.00     0.033 C 
BRANCH  44  45
HETATM   45  C   UNK N   1      21.272  14.585   9.434  0.00  0.00     0.005 C 
BRANCH  45  46
HETATM   46  C   UNK N   1      20.221  15.205   8.544  0.00  0.00     0.004 C 
BRANCH  46  47
HETATM   47  C   UNK N   1      20.540  16.666   8.263  0.00  0.00    -0.019 C 
HETATM   48  C   UNK N   1      19.473  17.566   8.858  0.00  0.00     0.010 C 
BRANCH  47  49
HETATM   49  C   UNK N   1      20.546  16.896   6.775  0.00  0.00     0.004 C 
BRANCH  49  50
HETATM   50  C   UNK N   1      21.462  18.049   6.387  0.00  0.00     0.001 C 
BRANCH  50  51
HETATM   51  C   UNK N   1      21.300  18.521   4.937  0.00  0.00     0.004 C 
BRANCH  51  52
HETATM   52  C   UNK N   1      22.316  17.977   3.923  0.00  0.00    -0.019 C 
HETATM   53  C   UNK N   1      23.693  17.810   4.555  0.00  0.00     0.010 C 
BRANCH  52  54
HETATM   54  C   UNK N   1      21.854  16.641   3.357  0.00  0.00     0.004 C 
BRANCH  54  55
HETATM   55  C   UNK N   1      22.761  15.499   3.794  0.00  0.00     0.001 C 
BRANCH  55  56
HETATM   56  C   UNK N   1      21.968  14.515   4.631  0.00  0.00     0.004 C 
BRANCH  56  57
HETATM   57  C   UNK N   1      22.320  13.082   4.263  0.00  0.00    -0.023 C 
HETATM   58  C   UNK N   1      23.741  12.986   3.738  0.00  0.00     0.009 C 
HETATM   59  C   UNK N   1      21.370  12.604   3.187  0.00  0.00     0.009 C 
ENDBRANCH  56  57
ENDBRANCH  55  56
ENDBRANCH  54  55
ENDBRANCH  52  54
ENDBRANCH  51  52
ENDBRANCH  50  51
ENDBRANCH  49  50
ENDBRANCH  47  49
ENDBRANCH  46  47
ENDBRANCH  45  46
ENDBRANCH  44  45
ENDBRANCH  42  44
ENDBRANCH  40  41
ENDBRANCH  39  40
ENDBRANCH  37  39
ENDBRANCH  36  37
ENDBRANCH  35  36
ENDBRANCH  11  35
BRANCH   6  60
HETATM   60  C   UNK N   1      28.278  18.731   6.757  0.00  0.00     0.274 C 
HETATM   61  O   UNK N   1      27.716  19.650   7.340  0.00  0.00    -0.264 OA
BRANCH  60  62
HETATM   62  O   UNK N   1      28.416  18.779   5.415  0.00  0.00    -0.326 OA
HETATM   63  C   UNK N   1      27.547  19.487   4.617  0.00  0.00     0.213 C 
ENDBRANCH  60  62
ENDBRANCH   6  60
BRANCH  28  64
HETATM   64  C   UNK N   1      32.637  11.373   0.342  0.00  0.00     0.158 C 
HETATM   65  C   UNK N   1      33.286  12.014  -0.841  0.00  0.00     0.097 C 
HETATM   66  O   UNK N   1      32.772  10.170   0.496  0.00  0.00    -0.293 OA
ENDBRANCH  28  64
BRANCH  25  67
HETATM   67  C   UNK N   1      36.633  14.020   6.572  0.00  0.00     0.007 C 
HETATM   68  C   UNK N   1      36.003  12.736   7.085  0.00  0.00     0.006 C 
ENDBRANCH  25  67
TORSDOF 22
ENDMDL
MODEL 6
REMARK VINA RESULT:      -6.1      3.233      9.628
REMARK  22 active torsions:
REMARK  status: ('A' for Active; 'I' for Inactive)
REMARK    1  A    between atoms: C_1  and  C_2 
REMARK    2  A    between atoms: C_1  and  C_16 
REMARK    3  A    between atoms: C_2  and  C_3 
REMARK    4  A    between atoms: C_3  and  C_4 
REMARK    5  A    between atoms: C_4  and  C_5 
REMARK    6  A    between atoms: C_5  and  C_6 
REMARK    7  A    between atoms: C_6  and  C_7 
REMARK    8  A    between atoms: C_7  and  C_8 
REMARK    9  A    between atoms: C_8  and  C_9 
REMARK   10  A    between atoms: C_9  and  C_10 
REMARK   11  A    between atoms: C_10  and  C_11 
REMARK   12  A    between atoms: C_16  and  C_17 
REMARK   13  A    between atoms: C_18  and  C_19 
REMARK   14  A    between atoms: C_19  and  O_21 
REMARK   15  A    between atoms: O_21  and  C_22 
REMARK   16  A    between atoms: C_22  and  C_24 
REMARK   17  A    between atoms: C_64  and  C_24 
REMARK   18  A    between atoms: C_30  and  C_65 
REMARK   19  A    between atoms: C_35  and  C_64 
REMARK   20  A    between atoms: C_49  and  C_62 
REMARK   21  A    between atoms: C_52  and  C_57 
REMARK   22  A    between atoms: C_65  and  O_66 
ROOT
HETATM    1  C   UNK N   1      30.289  12.440   2.198  0.00  0.00     0.081 A 
HETATM    2  C   UNK N   1      31.404  12.966   2.701  0.00  0.00     0.016 A 
HETATM    3  N   UNK N   1      28.984  12.788   2.240  0.00  0.00    -0.247 N 
HETATM    4  C   UNK N   1      30.473  11.315   1.529  0.00  0.00     0.049 A 
HETATM    5  C   UNK N   1      31.442  14.280   3.417  0.00  0.00     0.024 C 
HETATM    6  C   UNK N   1      32.607  12.063   2.333  0.00  0.00     0.197 A 
HETATM    7  C   UNK N   1      28.354  11.863   1.460  0.00  0.00     0.066 A 
HETATM    8 Mg   UNK N   1      28.241  14.191   3.618  0.00  0.00     0.000 Mg
HETATM    9  C   UNK N   1      29.274  10.919   1.008  0.00  0.00    -0.017 A 
HETATM   10  C   UNK N   1      31.846  10.943   1.636  0.00  0.00     0.180 A 
HETATM   11  C   UNK N   1      32.485  14.808   4.376  0.00  0.00     0.046 C 
HETATM   12  N   UNK N   1      30.469  15.100   3.308  0.00  0.00    -0.362 N 
ATOM     13  HN  UNK N   1      29.606  14.913   2.797  1.00  0.00     0.165 HD
HETATM   14  C   UNK N   1      27.041  11.799   1.199  0.00  0.00     0.057 C 
HETATM   15  N   UNK N   1      27.643  16.184   3.527  0.00  0.00    -0.248 N 
HETATM   16  C   UNK N   1      29.017   9.705   0.184  0.00  0.00     0.052 C 
HETATM   17  O   UNK N   1      32.318   9.903   1.212  0.00  0.00    -0.291 OA
HETATM   18  C   UNK N   1      32.178  16.327   4.478  0.00  0.00     0.041 C 
HETATM   19  C   UNK N   1      30.751  16.292   3.985  0.00  0.00     0.016 C 
HETATM   20  C   UNK N   1      26.028  12.766   1.648  0.00  0.00     0.016 C 
HETATM   21  C   UNK N   1      26.362  16.618   3.395  0.00  0.00     0.073 A 
HETATM   22  C   UNK N   1      28.402  17.269   3.831  0.00  0.00     0.066 A 
HETATM   23  C   UNK N   1      33.005  17.149   3.499  0.00  0.00     0.017 C 
HETATM   24  C   UNK N   1      29.855  17.278   4.178  0.00  0.00     0.057 C 
HETATM   25  C   UNK N   1      24.547  12.564   1.468  0.00  0.00     0.045 C 
HETATM   26  N   UNK N   1      26.328  13.868   2.200  0.00  0.00    -0.362 N 
ATOM     27  HN  UNK N   1      27.278  14.204   2.354  1.00  0.00     0.165 HD
HETATM   28  C   UNK N   1      26.298  17.987   3.641  0.00  0.00     0.046 A 
HETATM   29  C   UNK N   1      25.174  15.776   3.100  0.00  0.00     0.058 C 
HETATM   30  C   UNK N   1      27.597  18.393   3.901  0.00  0.00    -0.017 A 
HETATM   31  C   UNK N   1      23.942  13.756   2.252  0.00  0.00     0.041 C 
HETATM   32  C   UNK N   1      25.176  14.549   2.562  0.00  0.00     0.016 C 
HETATM   33  C   UNK N   1      28.047  19.770   4.265  0.00  0.00     0.052 C 
HETATM   34  C   UNK N   1      22.987  14.517   1.352  0.00  0.00     0.017 C 
ENDROOT
BRANCH  11  35
HETATM   35  C   UNK N   1      33.860  14.170   4.605  0.00  0.00     0.021 C 
BRANCH  35  36
HETATM   36  C   UNK N   1      34.256  13.672   5.990  0.00  0.00     0.112 C 
BRANCH  36  37
HETATM   37  C   UNK N   1      35.047  14.741   6.708  0.00  0.00     0.259 C 
HETATM   38  O   UNK N   1      35.503  15.694   6.085  0.00  0.00    -0.265 OA
BRANCH  37  39
HETATM   39  O   UNK N   1      35.193  14.679   8.059  0.00  0.00    -0.318 OA
BRANCH  39  40
HETATM   40  C   UNK N   1      34.799  15.705   8.898  0.00  0.00     0.206 C 
BRANCH  40  41
HETATM   41  C   UNK N   1      33.351  15.984   8.639  0.00  0.00     0.002 C 
HETATM   42  C   UNK N   1      32.903  17.149   8.170  0.00  0.00    -0.086 C 
HETATM   43  C   UNK N   1      33.814  18.315   7.927  0.00  0.00     0.043 C 
BRANCH  42  44
HETATM   44  C   UNK N   1      31.471  17.250   7.801  0.00  0.00     0.033 C 
BRANCH  44  45
HETATM   45  C   UNK N   1      30.657  17.380   9.074  0.00  0.00     0.005 C 
BRANCH  45  46
HETATM   46  C   UNK N   1      29.672  18.519   8.947  0.00  0.00     0.004 C 
BRANCH  46  47
HETATM   47  C   UNK N   1      28.680  18.257   7.824  0.00  0.00    -0.019 C 
HETATM   48  C   UNK N   1      27.767  19.454   7.634  0.00  0.00     0.010 C 
BRANCH  47  49
HETATM   49  C   UNK N   1      27.813  17.081   8.193  0.00  0.00     0.004 C 
BRANCH  49  50
HETATM   50  C   UNK N   1      26.894  16.680   7.048  0.00  0.00     0.001 C 
BRANCH  50  51
HETATM   51  C   UNK N   1      26.894  15.178   6.737  0.00  0.00     0.004 C 
BRANCH  51  52
HETATM   52  C   UNK N   1      25.520  14.503   6.622  0.00  0.00    -0.019 C 
HETATM   53  C   UNK N   1      25.230  13.628   7.837  0.00  0.00     0.010 C 
BRANCH  52  54
HETATM   54  C   UNK N   1      24.417  15.542   6.473  0.00  0.00     0.004 C 
BRANCH  54  55
HETATM   55  C   UNK N   1      23.085  14.903   6.104  0.00  0.00     0.001 C 
BRANCH  55  56
HETATM   56  C   UNK N   1      21.980  15.522   6.937  0.00  0.00     0.004 C 
BRANCH  56  57
HETATM   57  C   UNK N   1      21.021  16.316   6.063  0.00  0.00    -0.023 C 
HETATM   58  C   UNK N   1      21.432  16.250   4.602  0.00  0.00     0.009 C 
HETATM   59  C   UNK N   1      21.035  17.762   6.507  0.00  0.00     0.009 C 
ENDBRANCH  56  57
ENDBRANCH  55  56
ENDBRANCH  54  55
ENDBRANCH  52  54
ENDBRANCH  51  52
ENDBRANCH  50  51
ENDBRANCH  49  50
ENDBRANCH  47  49
ENDBRANCH  46  47
ENDBRANCH  45  46
ENDBRANCH  44  45
ENDBRANCH  42  44
ENDBRANCH  40  41
ENDBRANCH  39  40
ENDBRANCH  37  39
ENDBRANCH  36  37
ENDBRANCH  35  36
ENDBRANCH  11  35
BRANCH   6  60
HETATM   60  C   UNK N   1      33.504  12.715   1.290  0.00  0.00     0.274 C 
HETATM   61  O   UNK N   1      34.587  13.188   1.617  0.00  0.00    -0.264 OA
BRANCH  60  62
HETATM   62  O   UNK N   1      33.131  12.741  -0.006  0.00  0.00    -0.326 OA
HETATM   63  C   UNK N   1      33.979  12.355  -1.019  0.00  0.00     0.213 C 
ENDBRANCH  60  62
ENDBRANCH   6  60
BRANCH  28  64
HETATM   64  C   UNK N   1      25.079  18.845   3.684  0.00  0.00     0.158 C 
HETATM   65  C   UNK N   1      24.159  18.842   4.861  0.00  0.00     0.097 C 
HETATM   66  O   UNK N   1      24.836  19.605   2.760  0.00  0.00    -0.293 OA
ENDBRANCH  28  64
BRANCH  25  67
HETATM   67  C   UNK N   1      24.054  11.233   2.009  0.00  0.00     0.007 C 
HETATM   68  C   UNK N   1      23.583  10.355   0.860  0.00  0.00     0.006 C 
ENDBRANCH  25  67
TORSDOF 22
ENDMDL
MODEL 7
REMARK VINA RESULT:      -6.1      6.519     11.607
REMARK  22 active torsions:
REMARK  status: ('A' for Active; 'I' for Inactive)
REMARK    1  A    between atoms: C_1  and  C_2 
REMARK    2  A    between atoms: C_1  and  C_16 
REMARK    3  A    between atoms: C_2  and  C_3 
REMARK    4  A    between atoms: C_3  and  C_4 
REMARK    5  A    between atoms: C_4  and  C_5 
REMARK    6  A    between atoms: C_5  and  C_6 
REMARK    7  A    between atoms: C_6  and  C_7 
REMARK    8  A    between atoms: C_7  and  C_8 
REMARK    9  A    between atoms: C_8  and  C_9 
REMARK   10  A    between atoms: C_9  and  C_10 
REMARK   11  A    between atoms: C_10  and  C_11 
REMARK   12  A    between atoms: C_16  and  C_17 
REMARK   13  A    between atoms: C_18  and  C_19 
REMARK   14  A    between atoms: C_19  and  O_21 
REMARK   15  A    between atoms: O_21  and  C_22 
REMARK   16  A    between atoms: C_22  and  C_24 
REMARK   17  A    between atoms: C_64  and  C_24 
REMARK   18  A    between atoms: C_30  and  C_65 
REMARK   19  A    between atoms: C_35  and  C_64 
REMARK   20  A    between atoms: C_49  and  C_62 
REMARK   21  A    between atoms: C_52  and  C_57 
REMARK   22  A    between atoms: C_65  and  O_66 
ROOT
HETATM    1  C   UNK N   1      31.681  13.533   5.288  0.00  0.00     0.081 A 
HETATM    2  C   UNK N   1      32.338  14.081   6.310  0.00  0.00     0.016 A 
HETATM    3  N   UNK N   1      30.464  13.733   4.739  0.00  0.00    -0.247 N 
HETATM    4  C   UNK N   1      32.338  12.561   4.679  0.00  0.00     0.049 A 
HETATM    5  C   UNK N   1      31.821  15.253   7.083  0.00  0.00     0.024 C 
HETATM    6  C   UNK N   1      33.710  13.380   6.470  0.00  0.00     0.197 A 
HETATM    7  C   UNK N   1      30.425  12.891   3.666  0.00  0.00     0.066 A 
HETATM    8 Mg   UNK N   1      28.948  14.803   5.729  0.00  0.00     0.000 Mg
HETATM    9  C   UNK N   1      31.595  12.136   3.614  0.00  0.00    -0.017 A 
HETATM   10  C   UNK N   1      33.552  12.320   5.388  0.00  0.00     0.180 A 
HETATM   11  C   UNK N   1      32.206  15.718   8.469  0.00  0.00     0.046 C 
HETATM   12  N   UNK N   1      30.882  15.975   6.606  0.00  0.00    -0.362 N 
ATOM     13  HN  UNK N   1      30.393  15.788   5.731  1.00  0.00     0.165 HD
HETATM   14  C   UNK N   1      29.408  12.737   2.807  0.00  0.00     0.057 C 
HETATM   15  N   UNK N   1      28.129  16.710   5.562  0.00  0.00    -0.248 N 
HETATM   16  C   UNK N   1      31.952  11.056   2.652  0.00  0.00     0.052 C 
HETATM   17  O   UNK N   1      34.334  11.419   5.139  0.00  0.00    -0.291 OA
HETATM   18  C   UNK N   1      31.634  17.159   8.562  0.00  0.00     0.041 C 
HETATM   19  C   UNK N   1      30.618  17.060   7.450  0.00  0.00     0.016 C 
HETATM   20  C   UNK N   1      28.154  13.505   2.814  0.00  0.00     0.016 C 
HETATM   21  C   UNK N   1      26.997  17.026   4.881  0.00  0.00     0.073 A 
HETATM   22  C   UNK N   1      28.470  17.801   6.296  0.00  0.00     0.066 A 
HETATM   23  C   UNK N   1      32.663  18.214   8.181  0.00  0.00     0.017 C 
HETATM   24  C   UNK N   1      29.580  17.902   7.290  0.00  0.00     0.057 C 
HETATM   25  C   UNK N   1      26.976  13.185   1.933  0.00  0.00     0.045 C 
HETATM   26  N   UNK N   1      27.977  14.524   3.547  0.00  0.00    -0.362 N 
ATOM     27  HN  UNK N   1      28.680  14.926   4.168  1.00  0.00     0.165 HD
HETATM   28  C   UNK N   1      26.596  18.320   5.200  0.00  0.00     0.046 A 
HETATM   29  C   UNK N   1      26.236  16.126   3.975  0.00  0.00     0.058 C 
HETATM   30  C   UNK N   1      27.545  18.809   6.085  0.00  0.00    -0.017 A 
HETATM   31  C   UNK N   1      25.888  14.161   2.449  0.00  0.00     0.041 C 
HETATM   32  C   UNK N   1      26.690  15.013   3.384  0.00  0.00     0.016 C 
HETATM   33  C   UNK N   1      27.538  20.144   6.753  0.00  0.00     0.052 C 
HETATM   34  C   UNK N   1      25.335  14.958   1.283  0.00  0.00     0.017 C 
ENDROOT
BRANCH  11  35
HETATM   35  C   UNK N   1      33.412  15.196   9.260  0.00  0.00     0.021 C 
BRANCH  35  36
HETATM   36  C   UNK N   1      34.784  15.835   9.081  0.00  0.00     0.112 C 
BRANCH  36  37
HETATM   37  C   UNK N   1      35.277  16.364  10.408  0.00  0.00     0.259 C 
HETATM   38  O   UNK N   1      35.740  17.497  10.488  0.00  0.00    -0.265 OA
BRANCH  37  39
HETATM   39  O   UNK N   1      35.143  15.604  11.528  0.00  0.00    -0.318 OA
BRANCH  39  40
HETATM   40  C   UNK N   1      36.220  14.998  12.148  0.00  0.00     0.206 C 
BRANCH  40  41
HETATM   41  C   UNK N   1      36.282  13.576  11.684  0.00  0.00     0.002 C 
HETATM   42  C   UNK N   1      37.103  13.155  10.721  0.00  0.00    -0.086 C 
HETATM   43  C   UNK N   1      37.992  14.096   9.964  0.00  0.00     0.043 C 
BRANCH  42  44
HETATM   44  C   UNK N   1      37.190  11.699  10.463  0.00  0.00     0.033 C 
BRANCH  44  45
HETATM   45  C   UNK N   1      36.917  11.456   8.991  0.00  0.00     0.005 C 
BRANCH  45  46
HETATM   46  C   UNK N   1      35.448  11.179   8.773  0.00  0.00     0.004 C 
BRANCH  46  47
HETATM   47  C   UNK N   1      34.968  10.051   9.675  0.00  0.00    -0.019 C 
HETATM   48  C   UNK N   1      34.720   8.792   8.864  0.00  0.00     0.010 C 
BRANCH  47  49
HETATM   49  C   UNK N   1      33.660  10.446  10.309  0.00  0.00     0.004 C 
BRANCH  49  50
HETATM   50  C   UNK N   1      33.503   9.840  11.697  0.00  0.00     0.001 C 
BRANCH  50  51
HETATM   51  C   UNK N   1      34.260  10.590  12.799  0.00  0.00     0.004 C 
BRANCH  51  52
HETATM   52  C   UNK N   1      35.223   9.757  13.657  0.00  0.00    -0.019 C 
HETATM   53  C   UNK N   1      35.424   8.365  13.069  0.00  0.00     0.010 C 
BRANCH  52  54
HETATM   54  C   UNK N   1      36.572  10.452  13.785  0.00  0.00     0.004 C 
BRANCH  54  55
HETATM   55  C   UNK N   1      36.953  10.682  15.241  0.00  0.00     0.001 C 
BRANCH  55  56
HETATM   56  C   UNK N   1      35.695  10.809  16.078  0.00  0.00     0.004 C 
BRANCH  56  57
HETATM   57  C   UNK N   1      35.609  12.184  16.724  0.00  0.00    -0.023 C 
HETATM   58  C   UNK N   1      35.259  12.074  18.197  0.00  0.00     0.009 C 
HETATM   59  C   UNK N   1      34.534  12.987  16.026  0.00  0.00     0.009 C 
ENDBRANCH  56  57
ENDBRANCH  55  56
ENDBRANCH  54  55
ENDBRANCH  52  54
ENDBRANCH  51  52
ENDBRANCH  50  51
ENDBRANCH  49  50
ENDBRANCH  47  49
ENDBRANCH  46  47
ENDBRANCH  45  46
ENDBRANCH  44  45
ENDBRANCH  42  44
ENDBRANCH  40  41
ENDBRANCH  39  40
ENDBRANCH  37  39
ENDBRANCH  36  37
ENDBRANCH  35  36
ENDBRANCH  11  35
BRANCH   6  60
HETATM   60  C   UNK N   1      34.858  14.287   6.049  0.00  0.00     0.274 C 
HETATM   61  O   UNK N   1      34.644  15.266   5.344  0.00  0.00    -0.264 OA
BRANCH  60  62
HETATM   62  O   UNK N   1      36.113  14.039   6.482  0.00  0.00    -0.326 OA
HETATM   63  C   UNK N   1      37.205  14.142   5.651  0.00  0.00     0.213 C 
ENDBRANCH  60  62
ENDBRANCH   6  60
BRANCH  28  64
HETATM   64  C   UNK N   1      25.366  19.029   4.744  0.00  0.00     0.158 C 
HETATM   65  C   UNK N   1      25.413  20.075   3.679  0.00  0.00     0.097 C 
HETATM   66  O   UNK N   1      24.280  18.729   5.215  0.00  0.00    -0.293 OA
ENDBRANCH  28  64
BRANCH  25  67
HETATM   67  C   UNK N   1      26.524  11.738   2.040  0.00  0.00     0.007 C 
HETATM   68  C   UNK N   1      27.282  10.888   1.034  0.00  0.00     0.006 C 
ENDBRANCH  25  67
TORSDOF 22
ENDMDL
MODEL 8
REMARK VINA RESULT:      -6.1      2.835      5.482
REMARK  22 active torsions:
REMARK  status: ('A' for Active; 'I' for Inactive)
REMARK    1  A    between atoms: C_1  and  C_2 
REMARK    2  A    between atoms: C_1  and  C_16 
REMARK    3  A    between atoms: C_2  and  C_3 
REMARK    4  A    between atoms: C_3  and  C_4 
REMARK    5  A    between atoms: C_4  and  C_5 
REMARK    6  A    between atoms: C_5  and  C_6 
REMARK    7  A    between atoms: C_6  and  C_7 
REMARK    8  A    between atoms: C_7  and  C_8 
REMARK    9  A    between atoms: C_8  and  C_9 
REMARK   10  A    between atoms: C_9  and  C_10 
REMARK   11  A    between atoms: C_10  and  C_11 
REMARK   12  A    between atoms: C_16  and  C_17 
REMARK   13  A    between atoms: C_18  and  C_19 
REMARK   14  A    between atoms: C_19  and  O_21 
REMARK   15  A    between atoms: O_21  and  C_22 
REMARK   16  A    between atoms: C_22  and  C_24 
REMARK   17  A    between atoms: C_64  and  C_24 
REMARK   18  A    between atoms: C_30  and  C_65 
REMARK   19  A    between atoms: C_35  and  C_64 
REMARK   20  A    between atoms: C_49  and  C_62 
REMARK   21  A    between atoms: C_52  and  C_57 
REMARK   22  A    between atoms: C_65  and  O_66 
ROOT
HETATM    1  C   UNK N   1      30.550  16.389   6.553  0.00  0.00     0.081 A 
HETATM    2  C   UNK N   1      29.234  16.459   6.359  0.00  0.00     0.016 A 
HETATM    3  N   UNK N   1      31.529  15.592   6.074  0.00  0.00    -0.247 N 
HETATM    4  C   UNK N   1      31.018  17.269   7.422  0.00  0.00     0.049 A 
HETATM    5  C   UNK N   1      28.507  15.620   5.355  0.00  0.00     0.024 C 
HETATM    6  C   UNK N   1      28.645  17.585   7.244  0.00  0.00     0.197 A 
HETATM    7  C   UNK N   1      32.678  16.089   6.617  0.00  0.00     0.066 A 
HETATM    8 Mg   UNK N   1      31.120  13.776   5.097  0.00  0.00     0.000 Mg
HETATM    9  C   UNK N   1      32.377  17.143   7.477  0.00  0.00    -0.017 A 
HETATM   10  C   UNK N   1      29.918  17.986   7.980  0.00  0.00     0.180 A 
HETATM   11  C   UNK N   1      27.036  15.275   5.295  0.00  0.00     0.046 C 
HETATM   12  N   UNK N   1      29.152  15.025   4.426  0.00  0.00    -0.362 N 
ATOM     13  HN  UNK N   1      30.167  15.027   4.332  1.00  0.00     0.165 HD
HETATM   14  C   UNK N   1      33.919  15.622   6.428  0.00  0.00     0.057 C 
HETATM   15  N   UNK N   1      31.122  13.123   3.120  0.00  0.00    -0.248 N 
HETATM   16  C   UNK N   1      33.311  17.934   8.326  0.00  0.00     0.052 C 
HETATM   17  O   UNK N   1      30.005  18.799   8.883  0.00  0.00    -0.291 OA
HETATM   18  C   UNK N   1      26.832  14.717   3.860  0.00  0.00     0.041 C 
HETATM   19  C   UNK N   1      28.271  14.372   3.557  0.00  0.00     0.016 C 
HETATM   20  C   UNK N   1      34.294  14.516   5.533  0.00  0.00     0.016 C 
HETATM   21  C   UNK N   1      32.140  12.464   2.507  0.00  0.00     0.073 A 
HETATM   22  C   UNK N   1      30.047  13.052   2.292  0.00  0.00     0.066 A 
HETATM   23  C   UNK N   1      26.378  15.791   2.882  0.00  0.00     0.017 C 
HETATM   24  C   UNK N   1      28.663  13.536   2.577  0.00  0.00     0.057 C 
HETATM   25  C   UNK N   1      35.675  13.920   5.479  0.00  0.00     0.045 C 
HETATM   26  N   UNK N   1      33.482  13.994   4.710  0.00  0.00    -0.362 N 
ATOM     27  HN  UNK N   1      32.520  14.302   4.564  1.00  0.00     0.165 HD
HETATM   28  C   UNK N   1      31.706  11.946   1.291  0.00  0.00     0.046 A 
HETATM   29  C   UNK N   1      33.505  12.250   3.055  0.00  0.00     0.058 C 
HETATM   30  C   UNK N   1      30.383  12.337   1.156  0.00  0.00    -0.017 A 
HETATM   31  C   UNK N   1      35.487  12.709   4.530  0.00  0.00     0.041 C 
HETATM   32  C   UNK N   1      34.091  12.945   4.039  0.00  0.00     0.016 C 
HETATM   33  C   UNK N   1      29.460  11.993   0.034  0.00  0.00     0.052 C 
HETATM   34  C   UNK N   1      36.507  12.787   3.409  0.00  0.00     0.017 C 
ENDROOT
BRANCH  11  35
HETATM   35  C   UNK N   1      25.949  15.948   6.141  0.00  0.00     0.021 C 
BRANCH  35  36
HETATM   36  C   UNK N   1      24.636  15.225   6.423  0.00  0.00     0.112 C 
BRANCH  36  37
HETATM   37  C   UNK N   1      23.525  15.855   5.615  0.00  0.00     0.259 C 
HETATM   38  O   UNK N   1      23.297  15.469   4.473  0.00  0.00    -0.265 OA
BRANCH  37  39
HETATM   39  O   UNK N   1      22.734  16.804   6.182  0.00  0.00    -0.318 OA
BRANCH  39  40
HETATM   40  C   UNK N   1      21.377  16.625   6.373  0.00  0.00     0.206 C 
BRANCH  40  41
HETATM   41  C   UNK N   1      21.191  15.623   7.470  0.00  0.00     0.002 C 
HETATM   42  C   UNK N   1      20.338  15.793   8.480  0.00  0.00    -0.086 C 
HETATM   43  C   UNK N   1      19.536  17.049   8.644  0.00  0.00     0.043 C 
BRANCH  42  44
HETATM   44  C   UNK N   1      20.125  14.661   9.413  0.00  0.00     0.033 C 
BRANCH  44  45
HETATM   45  C   UNK N   1      21.470  14.025   9.709  0.00  0.00     0.005 C 
BRANCH  45  46
HETATM   46  C   UNK N   1      21.279  12.741  10.483  0.00  0.00     0.004 C 
BRANCH  46  47
HETATM   47  C   UNK N   1      22.605  12.019  10.671  0.00  0.00    -0.019 C 
HETATM   48  C   UNK N   1      22.912  11.850  12.148  0.00  0.00     0.010 C 
BRANCH  47  49
HETATM   49  C   UNK N   1      23.710  12.847  10.071  0.00  0.00     0.004 C 
BRANCH  49  50
HETATM   50  C   UNK N   1      24.303  12.183   8.835  0.00  0.00     0.001 C 
BRANCH  50  51
HETATM   51  C   UNK N   1      23.572  10.910   8.394  0.00  0.00     0.004 C 
BRANCH  51  52
HETATM   52  C   UNK N   1      23.067  10.878   6.945  0.00  0.00    -0.019 C 
HETATM   53  C   UNK N   1      22.493  12.228   6.528  0.00  0.00     0.010 C 
BRANCH  52  54
HETATM   54  C   UNK N   1      24.187  10.488   5.990  0.00  0.00     0.004 C 
BRANCH  54  55
HETATM   55  C   UNK N   1      24.806  11.707   5.318  0.00  0.00     0.001 C 
BRANCH  55  56
HETATM   56  C   UNK N   1      25.175  11.363   3.888  0.00  0.00     0.004 C 
BRANCH  56  57
HETATM   57  C   UNK N   1      24.497  12.310   2.910  0.00  0.00    -0.023 C 
HETATM   58  C   UNK N   1      23.025  11.972   2.755  0.00  0.00     0.009 C 
HETATM   59  C   UNK N   1      25.169  12.186   1.560  0.00  0.00     0.009 C 
ENDBRANCH  56  57
ENDBRANCH  55  56
ENDBRANCH  54  55
ENDBRANCH  52  54
ENDBRANCH  51  52
ENDBRANCH  50  51
ENDBRANCH  49  50
ENDBRANCH  47  49
ENDBRANCH  46  47
ENDBRANCH  45  46
ENDBRANCH  44  45
ENDBRANCH  42  44
ENDBRANCH  40  41
ENDBRANCH  39  40
ENDBRANCH  37  39
ENDBRANCH  36  37
ENDBRANCH  35  36
ENDBRANCH  11  35
BRANCH   6  60
HETATM   60  C   UNK N   1      28.208  18.785   6.414  0.00  0.00     0.274 C 
HETATM   61  O   UNK N   1      28.433  18.815   5.209  0.00  0.00    -0.264 OA
BRANCH  60  62
HETATM   62  O   UNK N   1      27.536  19.802   6.992  0.00  0.00    -0.326 OA
HETATM   63  C   UNK N   1      26.969  20.815   6.253  0.00  0.00     0.213 C 
ENDBRANCH  60  62
ENDBRANCH   6  60
BRANCH  28  64
HETATM   64  C   UNK N   1      32.473  11.087   0.343  0.00  0.00     0.158 C 
HETATM   65  C   UNK N   1      32.675   9.629   0.594  0.00  0.00     0.097 C 
HETATM   66  O   UNK N   1      32.920  11.565  -0.687  0.00  0.00    -0.293 OA
ENDBRANCH  28  64
BRANCH  25  67
HETATM   67  C   UNK N   1      36.195  13.487   6.839  0.00  0.00     0.007 C 
HETATM   68  C   UNK N   1      37.675  13.816   6.950  0.00  0.00     0.006 C 
ENDBRANCH  25  67
TORSDOF 22
ENDMDL
MODEL 9
REMARK VINA RESULT:      -6.0      3.199      9.304
REMARK  22 active torsions:
REMARK  status: ('A' for Active; 'I' for Inactive)
REMARK    1  A    between atoms: C_1  and  C_2 
REMARK    2  A    between atoms: C_1  and  C_16 
REMARK    3  A    between atoms: C_2  and  C_3 
REMARK    4  A    between atoms: C_3  and  C_4 
REMARK    5  A    between atoms: C_4  and  C_5 
REMARK    6  A    between atoms: C_5  and  C_6 
REMARK    7  A    between atoms: C_6  and  C_7 
REMARK    8  A    between atoms: C_7  and  C_8 
REMARK    9  A    between atoms: C_8  and  C_9 
REMARK   10  A    between atoms: C_9  and  C_10 
REMARK   11  A    between atoms: C_10  and  C_11 
REMARK   12  A    between atoms: C_16  and  C_17 
REMARK   13  A    between atoms: C_18  and  C_19 
REMARK   14  A    between atoms: C_19  and  O_21 
REMARK   15  A    between atoms: O_21  and  C_22 
REMARK   16  A    between atoms: C_22  and  C_24 
REMARK   17  A    between atoms: C_64  and  C_24 
REMARK   18  A    between atoms: C_30  and  C_65 
REMARK   19  A    between atoms: C_35  and  C_64 
REMARK   20  A    between atoms: C_49  and  C_62 
REMARK   21  A    between atoms: C_52  and  C_57 
REMARK   22  A    between atoms: C_65  and  O_66 
ROOT
HETATM    1  C   UNK N   1      30.089  12.674   2.721  0.00  0.00     0.081 A 
HETATM    2  C   UNK N   1      31.185  13.215   3.254  0.00  0.00     0.016 A 
HETATM    3  N   UNK N   1      28.790  13.039   2.675  0.00  0.00    -0.247 N 
HETATM    4  C   UNK N   1      30.292  11.512   2.124  0.00  0.00     0.049 A 
HETATM    5  C   UNK N   1      31.203  14.565   3.898  0.00  0.00     0.024 C 
HETATM    6  C   UNK N   1      32.392  12.278   3.000  0.00  0.00     0.197 A 
HETATM    7  C   UNK N   1      28.188  12.080   1.914  0.00  0.00     0.066 A 
HETATM    8 Mg   UNK N   1      27.995  14.524   3.933  0.00  0.00     0.000 Mg
HETATM    9  C   UNK N   1      29.117  11.102   1.562  0.00  0.00    -0.017 A 
HETATM   10  C   UNK N   1      31.653  11.131   2.324  0.00  0.00     0.180 A 
HETATM   11  C   UNK N   1      32.202  15.133   4.881  0.00  0.00     0.046 C 
HETATM   12  N   UNK N   1      30.249  15.389   3.694  0.00  0.00    -0.362 N 
ATOM     13  HN  UNK N   1      29.412  15.184   3.148  1.00  0.00     0.165 HD
HETATM   14  C   UNK N   1      26.890  12.017   1.587  0.00  0.00     0.057 C 
HETATM   15  N   UNK N   1      27.432  16.515   3.703  0.00  0.00    -0.248 N 
HETATM   16  C   UNK N   1      28.887   9.847   0.794  0.00  0.00     0.052 C 
HETATM   17  O   UNK N   1      32.131  10.064   1.983  0.00  0.00    -0.291 OA
HETATM   18  C   UNK N   1      31.912  16.658   4.884  0.00  0.00     0.041 C 
HETATM   19  C   UNK N   1      30.512  16.612   4.319  0.00  0.00     0.016 C 
HETATM   20  C   UNK N   1      25.869  13.018   1.928  0.00  0.00     0.016 C 
HETATM   21  C   UNK N   1      26.166  16.957   3.480  0.00  0.00     0.073 A 
HETATM   22  C   UNK N   1      28.189  17.607   3.988  0.00  0.00     0.066 A 
HETATM   23  C   UNK N   1      32.801  17.416   3.908  0.00  0.00     0.017 C 
HETATM   24  C   UNK N   1      29.622  17.618   4.410  0.00  0.00     0.057 C 
HETATM   25  C   UNK N   1      24.397  12.824   1.681  0.00  0.00     0.045 C 
HETATM   26  N   UNK N   1      26.155  14.145   2.435  0.00  0.00    -0.362 N 
ATOM     27  HN  UNK N   1      27.101  14.478   2.622  1.00  0.00     0.165 HD
HETATM   28  C   UNK N   1      26.108  18.337   3.648  0.00  0.00     0.046 A 
HETATM   29  C   UNK N   1      24.983  16.113   3.168  0.00  0.00     0.058 C 
HETATM   30  C   UNK N   1      27.398  18.742   3.954  0.00  0.00    -0.017 A 
HETATM   31  C   UNK N   1      23.769  14.064   2.366  0.00  0.00     0.041 C 
HETATM   32  C   UNK N   1      24.995  14.859   2.698  0.00  0.00     0.016 C 
HETATM   33  C   UNK N   1      27.848  20.131   4.266  0.00  0.00     0.052 C 
HETATM   34  C   UNK N   1      22.873  14.785   1.376  0.00  0.00     0.017 C 
ENDROOT
BRANCH  11  35
HETATM   35  C   UNK N   1      33.554  14.492   5.217  0.00  0.00     0.021 C 
BRANCH  35  36
HETATM   36  C   UNK N   1      34.764  15.366   5.527  0.00  0.00     0.112 C 
BRANCH  36  37
HETATM   37  C   UNK N   1      35.135  15.225   6.984  0.00  0.00     0.259 C 
HETATM   38  O   UNK N   1      35.759  14.241   7.370  0.00  0.00    -0.265 OA
BRANCH  37  39
HETATM   39  O   UNK N   1      34.835  16.224   7.857  0.00  0.00    -0.318 OA
BRANCH  39  40
HETATM   40  C   UNK N   1      34.274  15.983   9.098  0.00  0.00     0.206 C 
BRANCH  40  41
HETATM   41  C   UNK N   1      32.786  15.941   8.934  0.00  0.00     0.002 C 
HETATM   42  C   UNK N   1      32.067  16.983   8.515  0.00  0.00    -0.086 C 
HETATM   43  C   UNK N   1      32.685  18.320   8.238  0.00  0.00     0.043 C 
BRANCH  42  44
HETATM   44  C   UNK N   1      30.627  16.770   8.237  0.00  0.00     0.033 C 
BRANCH  44  45
HETATM   45  C   UNK N   1      29.850  17.021   9.516  0.00  0.00     0.005 C 
BRANCH  45  46
HETATM   46  C   UNK N   1      28.397  17.286   9.199  0.00  0.00     0.004 C 
BRANCH  46  47
HETATM   47  C   UNK N   1      28.226  17.703   7.746  0.00  0.00    -0.019 C 
HETATM   48  C   UNK N   1      28.147  19.215   7.633  0.00  0.00     0.010 C 
BRANCH  47  49
HETATM   49  C   UNK N   1      26.931  17.143   7.218  0.00  0.00     0.004 C 
BRANCH  49  50
HETATM   50  C   UNK N   1      27.027  15.644   6.969  0.00  0.00     0.001 C 
BRANCH  50  51
HETATM   51  C   UNK N   1      25.753  14.865   7.318  0.00  0.00     0.004 C 
BRANCH  51  52
HETATM   52  C   UNK N   1      25.113  14.055   6.182  0.00  0.00    -0.019 C 
HETATM   53  C   UNK N   1      26.012  12.901   5.751  0.00  0.00     0.010 C 
BRANCH  52  54
HETATM   54  C   UNK N   1      23.757  13.507   6.606  0.00  0.00     0.004 C 
BRANCH  54  55
HETATM   55  C   UNK N   1      23.637  13.406   8.120  0.00  0.00     0.001 C 
BRANCH  55  56
HETATM   56  C   UNK N   1      23.046  12.060   8.492  0.00  0.00     0.004 C 
BRANCH  56  57
HETATM   57  C   UNK N   1      23.278  11.754   9.964  0.00  0.00    -0.023 C 
HETATM   58  C   UNK N   1      22.175  12.345  10.825  0.00  0.00     0.009 C 
HETATM   59  C   UNK N   1      24.601  12.352  10.388  0.00  0.00     0.009 C 
ENDBRANCH  56  57
ENDBRANCH  55  56
ENDBRANCH  54  55
ENDBRANCH  52  54
ENDBRANCH  51  52
ENDBRANCH  50  51
ENDBRANCH  49  50
ENDBRANCH  47  49
ENDBRANCH  46  47
ENDBRANCH  45  46
ENDBRANCH  44  45
ENDBRANCH  42  44
ENDBRANCH  40  41
ENDBRANCH  39  40
ENDBRANCH  37  39
ENDBRANCH  36  37
ENDBRANCH  35  36
ENDBRANCH  11  35
BRANCH   6  60
HETATM   60  C   UNK N   1      33.352  12.863   1.972  0.00  0.00     0.274 C 
HETATM   61  O   UNK N   1      32.972  13.081   0.828  0.00  0.00    -0.264 OA
BRANCH  60  62
HETATM   62  O   UNK N   1      34.615  13.181   2.326  0.00  0.00    -0.326 OA
HETATM   63  C   UNK N   1      35.704  12.769   1.593  0.00  0.00     0.213 C 
ENDBRANCH  60  62
ENDBRANCH   6  60
BRANCH  28  64
HETATM   64  C   UNK N   1      24.902  19.210   3.580  0.00  0.00     0.158 C 
HETATM   65  C   UNK N   1      24.759  20.271   2.538  0.00  0.00     0.097 C 
HETATM   66  O   UNK N   1      23.981  19.040   4.363  0.00  0.00    -0.293 OA
ENDBRANCH  28  64
BRANCH  25  67
HETATM   67  C   UNK N   1      23.857  11.530   2.266  0.00  0.00     0.007 C 
HETATM   68  C   UNK N   1      23.411  10.606   1.144  0.00  0.00     0.006 C 
ENDBRANCH  25  67
TORSDOF 22
ENDMDL
