REMARK  6 active torsions:
REMARK  status: ('A' for Active; 'I' for Inactive)
REMARK    1  A    between atoms: C_2  and  N_1 
REMARK    2  A    between atoms: C_2  and  C_3 
REMARK    3  A    between atoms: C_2  and  C_12 
REMARK    4  A    between atoms: C_3  and  C_4 
REMARK    5  A    between atoms: C_7  and  O_8 
REMARK    6  A    between atoms: C_12  and  O_13 
ROOT
HETATM    1  C   UNK N   1       1.352  -0.001  -0.365  0.00  0.00    -0.054 A 
HETATM    2  C   UNK N   1       0.234  -0.827  -0.219  0.00  0.00     0.010 A 
HETATM    3  C   UNK N   1      -1.030  -0.268  -0.013  0.00  0.00     0.038 A 
HETATM    4  C   UNK N   1      -1.181   1.121   0.043  0.00  0.00     0.082 A 
HETATM    5  C   UNK N   1      -0.059   1.953  -0.096  0.00  0.00     0.040 A 
HETATM    6  I   UNK N   1      -0.235   4.054  -0.018  0.00  0.00    -0.042 I 
HETATM    7  C   UNK N   1       1.202   1.389  -0.305  0.00  0.00     0.028 A 
ENDROOT
BRANCH   1   8
HETATM    8  C   UNK N   1       2.679  -0.613  -0.668  0.00  0.00     0.074 C 
BRANCH   8   9
HETATM    9  C   UNK N   1       3.748  -0.331   0.380  0.00  0.00     0.177 C 
BRANCH   9  10
HETATM   10  N   UNK N   1       4.148   1.068   0.323  0.00  0.00    -0.417 N 
HETATM   11  H   UNK N   1       5.137   1.316   0.284  0.00  0.00     0.150 HD
HETATM   12  H   UNK N   1       3.439   1.802   0.323  0.00  0.00     0.150 HD
ENDBRANCH   9  10
BRANCH   9  13
HETATM   13  C   UNK N   1       4.924  -1.222   0.104  0.00  0.00     0.163 C 
HETATM   14  O   UNK N   1       4.787  -2.435   0.148  0.00  0.00    -0.648 OA
BRANCH  13  15
HETATM   15  O   UNK N   1       6.128  -0.700  -0.204  0.00  0.00    -0.775 OA
HETATM   16  H   UNK N   1       6.860  -1.244  -0.418  0.00  0.00     0.167 HD
ENDBRANCH  13  15
ENDBRANCH   9  13
ENDBRANCH   8   9
ENDBRANCH   1   8
BRANCH   4  17
HETATM   17  O   UNK N   1      -2.403   1.649   0.224  0.00  0.00    -0.359 OA
HETATM   18  H   UNK N   1      -2.510   2.572   0.351  0.00  0.00     0.217 HD
ENDBRANCH   4  17
TORSDOF 6
