REMARK  3 active torsions:
REMARK  status: ('A' for Active; 'I' for Inactive)
REMARK    1  A    between atoms: N_2  and  C_5 
REMARK    2  A    between atoms: C_5  and  C_6 
REMARK    3  A    between atoms: C_6  and  S_7 
ROOT
HETATM    1  C   UNK N   1       3.521  -1.237   0.916  0.00  0.00     0.271 C 
HETATM    2  N   UNK N   1       2.405  -1.117  -0.004  0.00  0.00    -0.078 N 
HETATM    3  C   UNK N   1       2.578   0.112  -0.762  0.00  0.00     0.271 C 
HETATM    4  C   UNK N   1       2.433  -2.256  -0.905  0.00  0.00     0.271 C 
ENDROOT
BRANCH   2   5
HETATM    5  C   UNK N   1       1.165  -1.106   0.783  0.00  0.00     0.245 C 
BRANCH   5   6
HETATM    6  C   UNK N   1      -0.090  -0.873  -0.059  0.00  0.00     0.098 C 
BRANCH   6   7
HETATM    7  S   UNK N   1      -0.574   0.876   0.030  0.00  0.00    -0.181 SA
HETATM    8  H   UNK N   1       0.379   1.845   0.097  0.00  0.00     0.101 HD
ENDBRANCH   6   7
ENDBRANCH   5   6
ENDBRANCH   2   5
TORSDOF 3
