MODEL 1
REMARK VINA RESULT:      -5.3      0.000      0.000
REMARK  4 active torsions:
REMARK  status: ('A' for Active; 'I' for Inactive)
REMARK    1  A    between atoms: C_2  and  C_4 
REMARK    2  A    between atoms: C_4  and  N_5 
REMARK    3  A    between atoms: C_4  and  C_9 
REMARK       I    between atoms: N_5  and  C_6 
REMARK       I    between atoms: C_6  and  N_7 
REMARK    4  A    between atoms: C_9  and  O_10 
ROOT
HETATM    1  C   UNK N   1      33.516  17.308   8.688  0.00  0.00     0.187 C 
ENDROOT
BRANCH   1   2
HETATM    2  C   UNK N   1      32.009  17.163   8.401  0.00  0.00     0.010 C 
HETATM    3  C   UNK N   1      30.976  18.187   8.835  0.00  0.00     0.012 C 
HETATM    4  C   UNK N   1      31.504  15.945   7.646  0.00  0.00     0.012 C 
ENDBRANCH   1   2
BRANCH   1   5
HETATM    5  N   UNK N   1      33.960  16.469   9.801  0.00  0.00    -0.329 N 
HETATM    6  C   UNK N   1      35.056  16.523  10.602  0.00  0.00     0.314 C 
HETATM    7  N   UNK N   1      35.201  15.594  11.565  0.00  0.00    -0.352 N 
HETATM    8  O   UNK N   1      35.904  17.382  10.474  0.00  0.00    -0.248 OA
HETATM    9  H   UNK N   1      35.988  15.616  12.156  0.00  0.00     0.160 HD
HETATM   10  H   UNK N   1      34.519  14.892  11.679  0.00  0.00     0.160 HD
HETATM   11  H   UNK N   1      33.350  15.725  10.009  0.00  0.00     0.165 HD
ENDBRANCH   1   5
BRANCH   1  12
HETATM   12  C   UNK N   1      34.408  18.240   7.870  0.00  0.00     0.164 C 
HETATM   13  O   UNK N   1      34.496  18.083   6.663  0.00  0.00    -0.648 OA
BRANCH  12  14
HETATM   14  O   UNK N   1      35.107  19.238   8.433  0.00  0.00    -0.775 OA
HETATM   15  H   UNK N   1      35.931  19.061   8.843  0.00  0.00     0.167 HD
ENDBRANCH  12  14
ENDBRANCH   1  12
TORSDOF 4
ENDMDL
MODEL 2
REMARK VINA RESULT:      -4.9      1.581      2.112
REMARK  4 active torsions:
REMARK  status: ('A' for Active; 'I' for Inactive)
REMARK    1  A    between atoms: C_2  and  C_4 
REMARK    2  A    between atoms: C_4  and  N_5 
REMARK    3  A    between atoms: C_4  and  C_9 
REMARK       I    between atoms: N_5  and  C_6 
REMARK       I    between atoms: C_6  and  N_7 
REMARK    4  A    between atoms: C_9  and  O_10 
ROOT
HETATM    1  C   UNK N   1      33.122  17.449   8.469  0.00  0.00     0.187 C 
ENDROOT
BRANCH   1   2
HETATM    2  C   UNK N   1      31.639  17.549   8.064  0.00  0.00     0.010 C 
HETATM    3  C   UNK N   1      31.067  16.886   6.825  0.00  0.00     0.012 C 
HETATM    4  C   UNK N   1      30.678  18.346   8.930  0.00  0.00     0.012 C 
ENDBRANCH   1   2
BRANCH   1   5
HETATM    5  N   UNK N   1      33.333  16.582   9.627  0.00  0.00    -0.329 N 
HETATM    6  C   UNK N   1      33.556  15.246   9.738  0.00  0.00     0.314 C 
HETATM    7  N   UNK N   1      33.716  14.715  10.965  0.00  0.00    -0.352 N 
HETATM    8  O   UNK N   1      33.616  14.522   8.766  0.00  0.00    -0.248 OA
HETATM    9  H   UNK N   1      33.880  13.750  11.066  0.00  0.00     0.160 HD
HETATM   10  H   UNK N   1      33.670  15.293  11.761  0.00  0.00     0.160 HD
HETATM   11  H   UNK N   1      33.307  17.055  10.491  0.00  0.00     0.165 HD
ENDBRANCH   1   5
BRANCH   1  12
HETATM   12  C   UNK N   1      34.218  18.195   7.709  0.00  0.00     0.164 C 
HETATM   13  O   UNK N   1      34.910  19.011   8.298  0.00  0.00    -0.648 OA
BRANCH  12  14
HETATM   14  O   UNK N   1      34.454  17.987   6.405  0.00  0.00    -0.775 OA
HETATM   15  H   UNK N   1      34.837  18.664   5.884  0.00  0.00     0.167 HD
ENDBRANCH  12  14
ENDBRANCH   1  12
TORSDOF 4
ENDMDL
MODEL 3
REMARK VINA RESULT:      -4.9     14.183     15.598
REMARK  4 active torsions:
REMARK  status: ('A' for Active; 'I' for Inactive)
REMARK    1  A    between atoms: C_2  and  C_4 
REMARK    2  A    between atoms: C_4  and  N_5 
REMARK    3  A    between atoms: C_4  and  C_9 
REMARK       I    between atoms: N_5  and  C_6 
REMARK       I    between atoms: C_6  and  N_7 
REMARK    4  A    between atoms: C_9  and  O_10 
ROOT
HETATM    1  C   UNK N   1      20.450  18.859   2.215  0.00  0.00     0.187 C 
ENDROOT
BRANCH   1   2
HETATM    2  C   UNK N   1      21.077  18.111   3.407  0.00  0.00     0.010 C 
HETATM    3  C   UNK N   1      20.351  17.031   4.189  0.00  0.00     0.012 C 
HETATM    4  C   UNK N   1      22.492  18.451   3.845  0.00  0.00     0.012 C 
ENDBRANCH   1   2
BRANCH   1   5
HETATM    5  N   UNK N   1      19.430  18.070   1.528  0.00  0.00    -0.329 N 
HETATM    6  C   UNK N   1      19.479  17.277   0.425  0.00  0.00     0.314 C 
HETATM    7  N   UNK N   1      18.353  16.663   0.017  0.00  0.00    -0.352 N 
HETATM    8  O   UNK N   1      20.506  17.109  -0.200  0.00  0.00    -0.248 OA
HETATM    9  H   UNK N   1      18.368  16.084  -0.779  0.00  0.00     0.160 HD
HETATM   10  H   UNK N   1      17.514  16.791   0.516  0.00  0.00     0.160 HD
HETATM   11  H   UNK N   1      18.538  18.121   1.942  0.00  0.00     0.165 HD
ENDBRANCH   1   5
BRANCH   1  12
HETATM   12  C   UNK N   1      20.883  20.274   1.833  0.00  0.00     0.164 C 
HETATM   13  O   UNK N   1      21.243  20.504   0.689  0.00  0.00    -0.648 OA
BRANCH  12  14
HETATM   14  O   UNK N   1      20.884  21.285   2.715  0.00  0.00    -0.775 OA
HETATM   15  H   UNK N   1      21.095  22.154   2.432  0.00  0.00     0.167 HD
ENDBRANCH  12  14
ENDBRANCH   1  12
TORSDOF 4
ENDMDL
MODEL 4
REMARK VINA RESULT:      -4.8      1.886      3.725
REMARK  4 active torsions:
REMARK  status: ('A' for Active; 'I' for Inactive)
REMARK    1  A    between atoms: C_2  and  C_4 
REMARK    2  A    between atoms: C_4  and  N_5 
REMARK    3  A    between atoms: C_4  and  C_9 
REMARK       I    between atoms: N_5  and  C_6 
REMARK       I    between atoms: C_6  and  N_7 
REMARK    4  A    between atoms: C_9  and  O_10 
ROOT
HETATM    1  C   UNK N   1      33.727  17.260   8.895  0.00  0.00     0.187 C 
ENDROOT
BRANCH   1   2
HETATM    2  C   UNK N   1      34.445  16.206   9.760  0.00  0.00     0.010 C 
HETATM    3  C   UNK N   1      35.482  16.556  10.811  0.00  0.00     0.012 C 
HETATM    4  C   UNK N   1      34.116  14.734   9.574  0.00  0.00     0.012 C 
ENDBRANCH   1   2
BRANCH   1   5
HETATM    5  N   UNK N   1      32.276  17.240   9.070  0.00  0.00    -0.329 N 
HETATM    6  C   UNK N   1      31.250  17.232   8.179  0.00  0.00     0.314 C 
HETATM    7  N   UNK N   1      29.987  17.213   8.646  0.00  0.00    -0.352 N 
HETATM    8  O   UNK N   1      31.439  17.241   6.981  0.00  0.00    -0.248 OA
HETATM    9  H   UNK N   1      29.230  17.206   8.017  0.00  0.00     0.160 HD
HETATM   10  H   UNK N   1      29.821  17.205   9.616  0.00  0.00     0.160 HD
HETATM   11  H   UNK N   1      31.987  17.230  10.012  0.00  0.00     0.165 HD
ENDBRANCH   1   5
BRANCH   1  12
HETATM   12  C   UNK N   1      34.495  18.202   7.969  0.00  0.00     0.164 C 
HETATM   13  O   UNK N   1      35.197  19.077   8.449  0.00  0.00    -0.648 OA
BRANCH  12  14
HETATM   14  O   UNK N   1      34.428  18.103   6.632  0.00  0.00    -0.775 OA
HETATM   15  H   UNK N   1      33.743  17.604   6.232  0.00  0.00     0.167 HD
ENDBRANCH  12  14
ENDBRANCH   1  12
TORSDOF 4
ENDMDL
MODEL 5
REMARK VINA RESULT:      -4.5      3.842      5.346
REMARK  4 active torsions:
REMARK  status: ('A' for Active; 'I' for Inactive)
REMARK    1  A    between atoms: C_2  and  C_4 
REMARK    2  A    between atoms: C_4  and  N_5 
REMARK    3  A    between atoms: C_4  and  C_9 
REMARK       I    between atoms: N_5  and  C_6 
REMARK       I    between atoms: C_6  and  N_7 
REMARK    4  A    between atoms: C_9  and  O_10 
ROOT
HETATM    1  C   UNK N   1      36.174  14.681  11.367  0.00  0.00     0.187 C 
ENDROOT
BRANCH   1   2
HETATM    2  C   UNK N   1      36.919  14.064  10.168  0.00  0.00     0.010 C 
HETATM    3  C   UNK N   1      36.400  14.127   8.743  0.00  0.00     0.012 C 
HETATM    4  C   UNK N   1      38.241  13.351  10.393  0.00  0.00     0.012 C 
ENDBRANCH   1   2
BRANCH   1   5
HETATM    5  N   UNK N   1      36.786  14.335  12.649  0.00  0.00    -0.329 N 
HETATM    6  C   UNK N   1      36.263  13.857  13.809  0.00  0.00     0.314 C 
HETATM    7  N   UNK N   1      37.091  13.628  14.846  0.00  0.00    -0.352 N 
HETATM    8  O   UNK N   1      35.078  13.633  13.936  0.00  0.00    -0.248 OA
HETATM    9  H   UNK N   1      36.733  13.282  15.695  0.00  0.00     0.160 HD
HETATM   10  H   UNK N   1      38.055  13.805  14.755  0.00  0.00     0.160 HD
HETATM   11  H   UNK N   1      37.760  14.473  12.678  0.00  0.00     0.165 HD
ENDBRANCH   1   5
BRANCH   1  12
HETATM   12  C   UNK N   1      34.934  15.555  11.184  0.00  0.00     0.164 C 
HETATM   13  O   UNK N   1      35.066  16.738  10.913  0.00  0.00    -0.648 OA
BRANCH  12  14
HETATM   14  O   UNK N   1      33.690  15.068  11.312  0.00  0.00    -0.775 OA
HETATM   15  H   UNK N   1      33.250  14.705  10.568  0.00  0.00     0.167 HD
ENDBRANCH  12  14
ENDBRANCH   1  12
TORSDOF 4
ENDMDL
MODEL 6
REMARK VINA RESULT:      -4.5     11.880     13.361
REMARK  4 active torsions:
REMARK  status: ('A' for Active; 'I' for Inactive)
REMARK    1  A    between atoms: C_2  and  C_4 
REMARK    2  A    between atoms: C_4  and  N_5 
REMARK    3  A    between atoms: C_4  and  C_9 
REMARK       I    between atoms: N_5  and  C_6 
REMARK       I    between atoms: C_6  and  N_7 
REMARK    4  A    between atoms: C_9  and  O_10 
ROOT
HETATM    1  C   UNK N   1      21.995  19.436   3.291  0.00  0.00     0.187 C 
ENDROOT
BRANCH   1   2
HETATM    2  C   UNK N   1      21.489  17.985   3.173  0.00  0.00     0.010 C 
HETATM    3  C   UNK N   1      22.082  16.830   3.958  0.00  0.00     0.012 C 
HETATM    4  C   UNK N   1      20.341  17.667   2.231  0.00  0.00     0.012 C 
ENDBRANCH   1   2
BRANCH   1   5
HETATM    5  N   UNK N   1      23.411  19.513   3.644  0.00  0.00    -0.329 N 
HETATM    6  C   UNK N   1      24.447  20.211   3.111  0.00  0.00     0.314 C 
HETATM    7  N   UNK N   1      25.669  20.079   3.661  0.00  0.00    -0.352 N 
HETATM    8  O   UNK N   1      24.303  20.948   2.157  0.00  0.00    -0.248 OA
HETATM    9  H   UNK N   1      26.433  20.576   3.290  0.00  0.00     0.160 HD
HETATM   10  H   UNK N   1      25.799  19.484   4.435  0.00  0.00     0.160 HD
HETATM   11  H   UNK N   1      23.662  18.953   4.414  0.00  0.00     0.165 HD
ENDBRANCH   1   5
BRANCH   1  12
HETATM   12  C   UNK N   1      21.074  20.633   3.053  0.00  0.00     0.164 C 
HETATM   13  O   UNK N   1      20.134  20.827   3.807  0.00  0.00    -0.648 OA
BRANCH  12  14
HETATM   14  O   UNK N   1      21.260  21.488   2.037  0.00  0.00    -0.775 OA
HETATM   15  H   UNK N   1      21.807  21.247   1.314  0.00  0.00     0.167 HD
ENDBRANCH  12  14
ENDBRANCH   1  12
TORSDOF 4
ENDMDL
MODEL 7
REMARK VINA RESULT:      -4.4     17.193     18.507
REMARK  4 active torsions:
REMARK  status: ('A' for Active; 'I' for Inactive)
REMARK    1  A    between atoms: C_2  and  C_4 
REMARK    2  A    between atoms: C_4  and  N_5 
REMARK    3  A    between atoms: C_4  and  C_9 
REMARK       I    between atoms: N_5  and  C_6 
REMARK       I    between atoms: C_6  and  N_7 
REMARK    4  A    between atoms: C_9  and  O_10 
ROOT
HETATM    1  C   UNK N   1      25.791  24.861  -5.371  0.00  0.00     0.187 C 
ENDROOT
BRANCH   1   2
HETATM    2  C   UNK N   1      25.524  26.140  -6.189  0.00  0.00     0.010 C 
HETATM    3  C   UNK N   1      26.034  26.346  -7.603  0.00  0.00     0.012 C 
HETATM    4  C   UNK N   1      24.713  27.267  -5.572  0.00  0.00     0.012 C 
ENDBRANCH   1   2
BRANCH   1   5
HETATM    5  N   UNK N   1      25.168  23.676  -5.960  0.00  0.00    -0.329 N 
HETATM    6  C   UNK N   1      25.674  22.649  -6.692  0.00  0.00     0.314 C 
HETATM    7  N   UNK N   1      24.840  21.677  -7.106  0.00  0.00    -0.352 N 
HETATM    8  O   UNK N   1      26.851  22.584  -6.982  0.00  0.00    -0.248 OA
HETATM    9  H   UNK N   1      25.186  20.924  -7.637  0.00  0.00     0.160 HD
HETATM   10  H   UNK N   1      23.883  21.718  -6.877  0.00  0.00     0.160 HD
HETATM   11  H   UNK N   1      24.200  23.609  -5.794  0.00  0.00     0.165 HD
ENDBRANCH   1   5
BRANCH   1  12
HETATM   12  C   UNK N   1      26.623  24.882  -4.090  0.00  0.00     0.164 C 
HETATM   13  O   UNK N   1      27.547  25.673  -3.985  0.00  0.00    -0.648 OA
BRANCH  12  14
HETATM   14  O   UNK N   1      26.376  24.054  -3.063  0.00  0.00    -0.775 OA
HETATM   15  H   UNK N   1      27.069  23.539  -2.698  0.00  0.00     0.167 HD
ENDBRANCH  12  14
ENDBRANCH   1  12
TORSDOF 4
ENDMDL
MODEL 8
REMARK VINA RESULT:      -4.4     14.166     15.344
REMARK  4 active torsions:
REMARK  status: ('A' for Active; 'I' for Inactive)
REMARK    1  A    between atoms: C_2  and  C_4 
REMARK    2  A    between atoms: C_4  and  N_5 
REMARK    3  A    between atoms: C_4  and  C_9 
REMARK       I    between atoms: N_5  and  C_6 
REMARK       I    between atoms: C_6  and  N_7 
REMARK    4  A    between atoms: C_9  and  O_10 
ROOT
HETATM    1  C   UNK N   1      29.470  23.220  -3.906  0.00  0.00     0.187 C 
ENDROOT
BRANCH   1   2
HETATM    2  C   UNK N   1      29.893  21.982  -4.719  0.00  0.00     0.010 C 
HETATM    3  C   UNK N   1      30.770  20.877  -4.159  0.00  0.00     0.012 C 
HETATM    4  C   UNK N   1      29.423  21.833  -6.156  0.00  0.00     0.012 C 
ENDBRANCH   1   2
BRANCH   1   5
HETATM    5  N   UNK N   1      28.208  23.795  -4.370  0.00  0.00    -0.329 N 
HETATM    6  C   UNK N   1      27.060  24.117  -3.720  0.00  0.00     0.314 C 
HETATM    7  N   UNK N   1      26.041  24.643  -4.426  0.00  0.00    -0.352 N 
HETATM    8  O   UNK N   1      26.926  23.944  -2.526  0.00  0.00    -0.248 OA
HETATM    9  H   UNK N   1      25.200  24.883  -3.974  0.00  0.00     0.160 HD
HETATM   10  H   UNK N   1      26.137  24.788  -5.395  0.00  0.00     0.160 HD
HETATM   11  H   UNK N   1      28.187  23.984  -5.336  0.00  0.00     0.165 HD
ENDBRANCH   1   5
BRANCH   1  12
HETATM   12  C   UNK N   1      30.313  23.751  -2.748  0.00  0.00     0.164 C 
HETATM   13  O   UNK N   1      30.879  24.827  -2.860  0.00  0.00    -0.648 OA
BRANCH  12  14
HETATM   14  O   UNK N   1      30.458  23.074  -1.598  0.00  0.00    -0.775 OA
HETATM   15  H   UNK N   1      31.004  23.416  -0.918  0.00  0.00     0.167 HD
ENDBRANCH  12  14
ENDBRANCH   1  12
TORSDOF 4
ENDMDL
MODEL 9
REMARK VINA RESULT:      -4.3     14.188     15.560
REMARK  4 active torsions:
REMARK  status: ('A' for Active; 'I' for Inactive)
REMARK    1  A    between atoms: C_2  and  C_4 
REMARK    2  A    between atoms: C_4  and  N_5 
REMARK    3  A    between atoms: C_4  and  C_9 
REMARK       I    between atoms: N_5  and  C_6 
REMARK       I    between atoms: C_6  and  N_7 
REMARK    4  A    between atoms: C_9  and  O_10 
ROOT
HETATM    1  C   UNK N   1      29.382  23.933  -3.321  0.00  0.00     0.187 C 
ENDROOT
BRANCH   1   2
HETATM    2  C   UNK N   1      30.614  24.724  -3.802  0.00  0.00     0.010 C 
HETATM    3  C   UNK N   1      31.787  24.083  -4.521  0.00  0.00     0.012 C 
HETATM    4  C   UNK N   1      30.685  26.222  -3.557  0.00  0.00     0.012 C 
ENDBRANCH   1   2
BRANCH   1   5
HETATM    5  N   UNK N   1      28.282  23.965  -4.283  0.00  0.00    -0.329 N 
HETATM    6  C   UNK N   1      26.972  24.304  -4.159  0.00  0.00     0.314 C 
HETATM    7  N   UNK N   1      26.179  24.234  -5.244  0.00  0.00    -0.352 N 
HETATM    8  O   UNK N   1      26.499  24.668  -3.102  0.00  0.00    -0.248 OA
HETATM    9  H   UNK N   1      25.227  24.475  -5.176  0.00  0.00     0.160 HD
HETATM   10  H   UNK N   1      26.550  23.941  -6.108  0.00  0.00     0.160 HD
HETATM   11  H   UNK N   1      28.538  23.688  -5.193  0.00  0.00     0.165 HD
ENDBRANCH   1   5
BRANCH   1  12
HETATM   12  C   UNK N   1      29.363  23.211  -1.975  0.00  0.00     0.164 C 
HETATM   13  O   UNK N   1      30.417  22.920  -1.433  0.00  0.00    -0.648 OA
BRANCH  12  14
HETATM   14  O   UNK N   1      28.218  22.879  -1.357  0.00  0.00    -0.775 OA
HETATM   15  H   UNK N   1      27.429  23.346  -1.550  0.00  0.00     0.167 HD
ENDBRANCH  12  14
ENDBRANCH   1  12
TORSDOF 4
ENDMDL
