MODEL 1
REMARK VINA RESULT:      -6.6      0.000      0.000
REMARK  11 active torsions:
REMARK  status: ('A' for Active; 'I' for Inactive)
REMARK    1  A    between atoms: C_5  and  C_6 
REMARK    2  A    between atoms: C_6  and  N_7 
REMARK    3  A    between atoms: C_10  and  C_11 
REMARK    4  A    between atoms: C_11  and  C_12 
REMARK    5  A    between atoms: C_12  and  O_13 
REMARK    6  A    between atoms: P_14  and  O_13 
REMARK    7  A    between atoms: P_14  and  O_15 
REMARK    8  A    between atoms: P_14  and  O_17 
REMARK    9  A    between atoms: O_17  and  P_18 
REMARK   10  A    between atoms: P_18  and  O_19 
REMARK   11  A    between atoms: C_24  and  N_25 
ROOT
HETATM    1  N   UNK N   1      30.851  16.909   7.622  0.00  0.00    -0.349 N 
HETATM    2  C   UNK N   1      31.364  17.950   8.330  0.00  0.00     0.141 A 
HETATM    3  S   UNK N   1      33.011  17.852   8.246  0.00  0.00    -0.087 SA
HETATM    4  C   UNK N   1      33.137  16.497   7.306  0.00  0.00     0.008 A 
HETATM    5  C   UNK N   1      31.808  16.090   7.055  0.00  0.00     0.021 A 
HETATM    6  C   UNK N   1      31.421  14.878   6.273  0.00  0.00     0.069 C 
ENDROOT
BRANCH   4   7
HETATM    7  C   UNK N   1      34.473  15.943   6.881  0.00  0.00     0.075 C 
BRANCH   7   8
HETATM    8  C   UNK N   1      35.173  14.875   7.736  0.00  0.00     0.185 C 
BRANCH   8   9
HETATM    9  O   UNK N   1      35.290  15.202   9.095  0.00  0.00    -0.296 OA
BRANCH   9  10
HETATM   10  P   UNK N   1      34.348  14.109  10.084  0.00  0.00     0.402 P 
HETATM   11  O   UNK N   1      33.618  13.074   9.179  0.00  0.00    -0.631 OA
BRANCH  10  12
HETATM   12  O   UNK N   1      33.133  15.010  10.938  0.00  0.00    -0.307 OA
HETATM   13  H   UNK N   1      32.797  15.073  11.845  0.00  0.00     0.222 HD
ENDBRANCH  10  12
BRANCH  10  14
HETATM   14  O   UNK N   1      35.383  13.244  11.185  0.00  0.00    -0.188 OA
BRANCH  14  15
HETATM   15  P   UNK N   1      36.053  14.447  12.246  0.00  0.00     0.414 P 
HETATM   16  O   UNK N   1      37.277  13.295  11.812  0.00  0.00    -0.624 OA
HETATM   17  O   UNK N   1      34.962  13.777  13.124  0.00  0.00    -0.624 OA
BRANCH  15  18
HETATM   18  O   UNK N   1      36.931  13.951  13.657  0.00  0.00    -0.300 OA
HETATM   19  H   UNK N   1      36.465  13.774  14.489  0.00  0.00     0.223 HD
ENDBRANCH  15  18
ENDBRANCH  14  15
ENDBRANCH  10  14
ENDBRANCH   9  10
ENDBRANCH   8   9
ENDBRANCH   7   8
ENDBRANCH   4   7
BRANCH   1  20
HETATM   20  C   UNK N   1      29.415  16.695   7.480  0.00  0.00     0.171 C 
BRANCH  20  21
HETATM   21  C   UNK N   1      28.705  17.910   6.951  0.00  0.00     0.004 A 
HETATM   22  C   UNK N   1      28.795  18.270   5.599  0.00  0.00     0.014 A 
HETATM   23  C   UNK N   1      28.137  19.404   5.132  0.00  0.00     0.025 A 
HETATM   24  C   UNK N   1      27.391  20.175   6.022  0.00  0.00     0.007 A 
HETATM   25  C   UNK N   1      26.684  21.388   5.538  0.00  0.00     0.068 C 
HETATM   26  N   UNK N   1      27.310  19.818   7.334  0.00  0.00    -0.346 N 
HETATM   27  C   UNK N   1      27.944  18.715   7.813  0.00  0.00     0.107 A 
ATOM     28  HN  UNK N   1      26.760  20.393   7.972  1.00  0.00     0.167 HD
BRANCH  27  29
HETATM   29  N   UNK N   1      27.831  18.390   9.183  0.00  0.00    -0.385 N 
HETATM   30  H   UNK N   1      28.605  18.158   9.745  0.00  0.00     0.157 HD
HETATM   31  H   UNK N   1      26.937  18.396   9.596  0.00  0.00     0.157 HD
ENDBRANCH  27  29
ENDBRANCH  20  21
ENDBRANCH   1  20
TORSDOF 11
ENDMDL
MODEL 2
REMARK VINA RESULT:      -6.5      9.002     11.221
REMARK  11 active torsions:
REMARK  status: ('A' for Active; 'I' for Inactive)
REMARK    1  A    between atoms: C_5  and  C_6 
REMARK    2  A    between atoms: C_6  and  N_7 
REMARK    3  A    between atoms: C_10  and  C_11 
REMARK    4  A    between atoms: C_11  and  C_12 
REMARK    5  A    between atoms: C_12  and  O_13 
REMARK    6  A    between atoms: P_14  and  O_13 
REMARK    7  A    between atoms: P_14  and  O_15 
REMARK    8  A    between atoms: P_14  and  O_17 
REMARK    9  A    between atoms: O_17  and  P_18 
REMARK   10  A    between atoms: P_18  and  O_19 
REMARK   11  A    between atoms: C_24  and  N_25 
ROOT
HETATM    1  N   UNK N   1      27.870  18.438   6.704  0.00  0.00    -0.349 N 
HETATM    2  C   UNK N   1      27.810  19.702   7.202  0.00  0.00     0.141 A 
HETATM    3  S   UNK N   1      27.042  20.646   6.085  0.00  0.00    -0.087 SA
HETATM    4  C   UNK N   1      26.749  19.493   4.936  0.00  0.00     0.008 A 
HETATM    5  C   UNK N   1      27.300  18.300   5.454  0.00  0.00     0.021 A 
HETATM    6  C   UNK N   1      27.310  16.987   4.743  0.00  0.00     0.069 C 
ENDROOT
BRANCH   4   7
HETATM    7  C   UNK N   1      26.021  19.810   3.655  0.00  0.00     0.075 C 
BRANCH   7   8
HETATM    8  C   UNK N   1      24.494  19.658   3.577  0.00  0.00     0.185 C 
BRANCH   8   9
HETATM    9  O   UNK N   1      23.970  18.625   4.368  0.00  0.00    -0.296 OA
BRANCH   9  10
HETATM   10  P   UNK N   1      22.224  18.589   4.272  0.00  0.00     0.402 P 
HETATM   11  O   UNK N   1      21.619  18.424   5.696  0.00  0.00    -0.631 OA
BRANCH  10  12
HETATM   12  O   UNK N   1      21.729  17.217   3.328  0.00  0.00    -0.307 OA
HETATM   13  H   UNK N   1      21.347  17.054   2.451  0.00  0.00     0.222 HD
ENDBRANCH  10  12
BRANCH  10  14
HETATM   14  O   UNK N   1      21.625  20.074   3.588  0.00  0.00    -0.188 OA
BRANCH  14  15
HETATM   15  P   UNK N   1      21.034  19.662   2.006  0.00  0.00     0.414 P 
HETATM   16  O   UNK N   1      21.697  21.266   1.988  0.00  0.00    -0.624 OA
HETATM   17  O   UNK N   1      19.752  19.613   2.881  0.00  0.00    -0.624 OA
BRANCH  15  18
HETATM   18  O   UNK N   1      19.954  20.743   1.186  0.00  0.00    -0.300 OA
HETATM   19  H   UNK N   1      19.705  20.582   0.263  0.00  0.00     0.223 HD
ENDBRANCH  15  18
ENDBRANCH  14  15
ENDBRANCH  10  14
ENDBRANCH   9  10
ENDBRANCH   8   9
ENDBRANCH   7   8
ENDBRANCH   4   7
BRANCH   1  20
HETATM   20  C   UNK N   1      28.483  17.339   7.441  0.00  0.00     0.171 C 
BRANCH  20  21
HETATM   21  C   UNK N   1      29.977  17.476   7.537  0.00  0.00     0.004 A 
HETATM   22  C   UNK N   1      30.800  17.207   6.434  0.00  0.00     0.014 A 
HETATM   23  C   UNK N   1      32.183  17.331   6.547  0.00  0.00     0.025 A 
HETATM   24  C   UNK N   1      32.735  17.724   7.766  0.00  0.00     0.007 A 
HETATM   25  C   UNK N   1      34.207  17.859   7.901  0.00  0.00     0.068 C 
HETATM   26  N   UNK N   1      31.927  17.982   8.831  0.00  0.00    -0.346 N 
HETATM   27  C   UNK N   1      30.575  17.868   8.745  0.00  0.00     0.107 A 
ATOM     28  HN  UNK N   1      32.347  18.267   9.715  1.00  0.00     0.167 HD
BRANCH  27  29
HETATM   29  N   UNK N   1      29.782  18.143   9.880  0.00  0.00    -0.385 N 
HETATM   30  H   UNK N   1      30.159  18.439  10.740  0.00  0.00     0.157 HD
HETATM   31  H   UNK N   1      28.805  18.035   9.809  0.00  0.00     0.157 HD
ENDBRANCH  27  29
ENDBRANCH  20  21
ENDBRANCH   1  20
TORSDOF 11
ENDMDL
MODEL 3
REMARK VINA RESULT:      -6.3      1.756      2.416
REMARK  11 active torsions:
REMARK  status: ('A' for Active; 'I' for Inactive)
REMARK    1  A    between atoms: C_5  and  C_6 
REMARK    2  A    between atoms: C_6  and  N_7 
REMARK    3  A    between atoms: C_10  and  C_11 
REMARK    4  A    between atoms: C_11  and  C_12 
REMARK    5  A    between atoms: C_12  and  O_13 
REMARK    6  A    between atoms: P_14  and  O_13 
REMARK    7  A    between atoms: P_14  and  O_15 
REMARK    8  A    between atoms: P_14  and  O_17 
REMARK    9  A    between atoms: O_17  and  P_18 
REMARK   10  A    between atoms: P_18  and  O_19 
REMARK   11  A    between atoms: C_24  and  N_25 
ROOT
HETATM    1  N   UNK N   1      30.959  16.966   5.883  0.00  0.00    -0.349 N 
HETATM    2  C   UNK N   1      31.589  17.212   4.703  0.00  0.00     0.141 A 
HETATM    3  S   UNK N   1      33.197  17.409   5.024  0.00  0.00    -0.087 SA
HETATM    4  C   UNK N   1      33.160  17.184   6.662  0.00  0.00     0.008 A 
HETATM    5  C   UNK N   1      31.802  16.954   6.978  0.00  0.00     0.021 A 
HETATM    6  C   UNK N   1      31.272  16.735   8.357  0.00  0.00     0.069 C 
ENDROOT
BRANCH   4   7
HETATM    7  C   UNK N   1      34.409  17.234   7.504  0.00  0.00     0.075 C 
BRANCH   7   8
HETATM    8  C   UNK N   1      35.026  15.937   8.049  0.00  0.00     0.185 C 
BRANCH   8   9
HETATM    9  O   UNK N   1      34.362  15.399   9.163  0.00  0.00    -0.296 OA
BRANCH   9  10
HETATM   10  P   UNK N   1      35.275  15.679  10.628  0.00  0.00     0.402 P 
HETATM   11  O   UNK N   1      35.126  17.163  11.069  0.00  0.00    -0.631 OA
BRANCH  10  12
HETATM   12  O   UNK N   1      36.960  15.388  10.319  0.00  0.00    -0.307 OA
HETATM   13  H   UNK N   1      37.603  15.591   9.622  0.00  0.00     0.222 HD
ENDBRANCH  10  12
BRANCH  10  14
HETATM   14  O   UNK N   1      34.685  14.661  11.912  0.00  0.00    -0.188 OA
BRANCH  14  15
HETATM   15  P   UNK N   1      36.086  13.871  12.570  0.00  0.00     0.414 P 
HETATM   16  O   UNK N   1      35.546  13.029  11.151  0.00  0.00    -0.624 OA
HETATM   17  O   UNK N   1      35.043  13.737  13.711  0.00  0.00    -0.624 OA
BRANCH  15  18
HETATM   18  O   UNK N   1      36.045  12.163  12.870  0.00  0.00    -0.300 OA
HETATM   19  H   UNK N   1      35.246  11.649  12.675  0.00  0.00     0.223 HD
ENDBRANCH  15  18
ENDBRANCH  14  15
ENDBRANCH  10  14
ENDBRANCH   9  10
ENDBRANCH   8   9
ENDBRANCH   7   8
ENDBRANCH   4   7
BRANCH   1  20
HETATM   20  C   UNK N   1      29.522  16.734   5.965  0.00  0.00     0.171 C 
BRANCH  20  21
HETATM   21  C   UNK N   1      28.740  18.015   6.063  0.00  0.00     0.004 A 
HETATM   22  C   UNK N   1      28.512  18.631   7.302  0.00  0.00     0.014 A 
HETATM   23  C   UNK N   1      27.778  19.812   7.371  0.00  0.00     0.025 A 
HETATM   24  C   UNK N   1      27.273  20.371   6.197  0.00  0.00     0.007 A 
HETATM   25  C   UNK N   1      26.486  21.629   6.256  0.00  0.00     0.068 C 
HETATM   26  N   UNK N   1      27.498  19.764   4.999  0.00  0.00    -0.346 N 
HETATM   27  C   UNK N   1      28.213  18.611   4.907  0.00  0.00     0.107 A 
ATOM     28  HN  UNK N   1      27.121  20.185   4.150  1.00  0.00     0.167 HD
BRANCH  27  29
HETATM   29  N   UNK N   1      28.415  18.019   3.640  0.00  0.00    -0.385 N 
HETATM   30  H   UNK N   1      28.815  18.501   2.880  0.00  0.00     0.157 HD
HETATM   31  H   UNK N   1      28.145  17.081   3.511  0.00  0.00     0.157 HD
ENDBRANCH  27  29
ENDBRANCH  20  21
ENDBRANCH   1  20
TORSDOF 11
ENDMDL
MODEL 4
REMARK VINA RESULT:      -6.3      1.854      2.451
REMARK  11 active torsions:
REMARK  status: ('A' for Active; 'I' for Inactive)
REMARK    1  A    between atoms: C_5  and  C_6 
REMARK    2  A    between atoms: C_6  and  N_7 
REMARK    3  A    between atoms: C_10  and  C_11 
REMARK    4  A    between atoms: C_11  and  C_12 
REMARK    5  A    between atoms: C_12  and  O_13 
REMARK    6  A    between atoms: P_14  and  O_13 
REMARK    7  A    between atoms: P_14  and  O_15 
REMARK    8  A    between atoms: P_14  and  O_17 
REMARK    9  A    between atoms: O_17  and  P_18 
REMARK   10  A    between atoms: P_18  and  O_19 
REMARK   11  A    between atoms: C_24  and  N_25 
ROOT
HETATM    1  N   UNK N   1      30.112  17.126   7.011  0.00  0.00    -0.349 N 
HETATM    2  C   UNK N   1      30.815  16.528   6.013  0.00  0.00     0.141 A 
HETATM    3  S   UNK N   1      32.415  16.863   6.256  0.00  0.00    -0.087 SA
HETATM    4  C   UNK N   1      32.279  17.768   7.633  0.00  0.00     0.008 A 
HETATM    5  C   UNK N   1      30.895  17.822   7.911  0.00  0.00     0.021 A 
HETATM    6  C   UNK N   1      30.283  18.570   9.050  0.00  0.00     0.069 C 
ENDROOT
BRANCH   4   7
HETATM    7  C   UNK N   1      33.485  18.340   8.335  0.00  0.00     0.075 C 
BRANCH   7   8
HETATM    8  C   UNK N   1      34.690  17.441   8.654  0.00  0.00     0.185 C 
BRANCH   8   9
HETATM    9  O   UNK N   1      34.803  17.075  10.003  0.00  0.00    -0.296 OA
BRANCH   9  10
HETATM   10  P   UNK N   1      34.760  15.335  10.183  0.00  0.00     0.402 P 
HETATM   11  O   UNK N   1      34.438  14.670   8.814  0.00  0.00    -0.631 OA
BRANCH  10  12
HETATM   12  O   UNK N   1      33.492  14.904  11.290  0.00  0.00    -0.307 OA
HETATM   13  H   UNK N   1      32.522  14.904  11.300  0.00  0.00     0.222 HD
ENDBRANCH  10  12
BRANCH  10  14
HETATM   14  O   UNK N   1      36.304  14.746  10.732  0.00  0.00    -0.188 OA
BRANCH  14  15
HETATM   15  P   UNK N   1      35.967  13.767  12.128  0.00  0.00     0.414 P 
HETATM   16  O   UNK N   1      36.086  15.435  12.592  0.00  0.00    -0.624 OA
HETATM   17  O   UNK N   1      37.346  13.234  11.653  0.00  0.00    -0.624 OA
BRANCH  15  18
HETATM   18  O   UNK N   1      36.958  13.921  13.543  0.00  0.00    -0.300 OA
HETATM   19  H   UNK N   1      36.553  14.035  14.416  0.00  0.00     0.223 HD
ENDBRANCH  15  18
ENDBRANCH  14  15
ENDBRANCH  10  14
ENDBRANCH   9  10
ENDBRANCH   8   9
ENDBRANCH   7   8
ENDBRANCH   4   7
BRANCH   1  20
HETATM   20  C   UNK N   1      28.660  17.027   7.108  0.00  0.00     0.171 C 
BRANCH  20  21
HETATM   21  C   UNK N   1      27.958  17.897   6.103  0.00  0.00     0.004 A 
HETATM   22  C   UNK N   1      27.854  19.282   6.292  0.00  0.00     0.014 A 
HETATM   23  C   UNK N   1      27.192  20.069   5.353  0.00  0.00     0.025 A 
HETATM   24  C   UNK N   1      26.634  19.463   4.227  0.00  0.00     0.007 A 
HETATM   25  C   UNK N   1      25.924  20.288   3.218  0.00  0.00     0.068 C 
HETATM   26  N   UNK N   1      26.740  18.116   4.053  0.00  0.00    -0.346 N 
HETATM   27  C   UNK N   1      27.382  17.328   4.956  0.00  0.00     0.107 A 
ATOM     28  HN  UNK N   1      26.326  17.689   3.225  1.00  0.00     0.167 HD
BRANCH  27  29
HETATM   29  N   UNK N   1      27.460  15.936   4.731  0.00  0.00    -0.385 N 
HETATM   30  H   UNK N   1      28.311  15.442   4.717  0.00  0.00     0.157 HD
HETATM   31  H   UNK N   1      26.624  15.437   4.580  0.00  0.00     0.157 HD
ENDBRANCH  27  29
ENDBRANCH  20  21
ENDBRANCH   1  20
TORSDOF 11
ENDMDL
MODEL 5
REMARK VINA RESULT:      -6.1     11.416     13.565
REMARK  11 active torsions:
REMARK  status: ('A' for Active; 'I' for Inactive)
REMARK    1  A    between atoms: C_5  and  C_6 
REMARK    2  A    between atoms: C_6  and  N_7 
REMARK    3  A    between atoms: C_10  and  C_11 
REMARK    4  A    between atoms: C_11  and  C_12 
REMARK    5  A    between atoms: C_12  and  O_13 
REMARK    6  A    between atoms: P_14  and  O_13 
REMARK    7  A    between atoms: P_14  and  O_15 
REMARK    8  A    between atoms: P_14  and  O_17 
REMARK    9  A    between atoms: O_17  and  P_18 
REMARK   10  A    between atoms: P_18  and  O_19 
REMARK   11  A    between atoms: C_24  and  N_25 
ROOT
HETATM    1  N   UNK N   1      22.112  14.079   6.948  0.00  0.00    -0.349 N 
HETATM    2  C   UNK N   1      23.443  14.175   6.685  0.00  0.00     0.141 A 
HETATM    3  S   UNK N   1      23.730  15.687   6.085  0.00  0.00    -0.087 SA
HETATM    4  C   UNK N   1      22.186  16.280   6.143  0.00  0.00     0.008 A 
HETATM    5  C   UNK N   1      21.398  15.223   6.650  0.00  0.00     0.021 A 
HETATM    6  C   UNK N   1      19.918  15.281   6.843  0.00  0.00     0.069 C 
ENDROOT
BRANCH   4   7
HETATM    7  C   UNK N   1      21.856  17.687   5.715  0.00  0.00     0.075 C 
BRANCH   7   8
HETATM    8  C   UNK N   1      22.878  18.512   4.918  0.00  0.00     0.185 C 
BRANCH   8   9
HETATM    9  O   UNK N   1      22.700  18.476   3.527  0.00  0.00    -0.296 OA
BRANCH   9  10
HETATM   10  P   UNK N   1      21.666  19.783   2.997  0.00  0.00     0.402 P 
HETATM   11  O   UNK N   1      22.523  21.046   2.696  0.00  0.00    -0.631 OA
BRANCH  10  12
HETATM   12  O   UNK N   1      20.557  20.191   4.271  0.00  0.00    -0.307 OA
HETATM   13  H   UNK N   1      19.685  19.899   4.579  0.00  0.00     0.222 HD
ENDBRANCH  10  12
BRANCH  10  14
HETATM   14  O   UNK N   1      20.819  19.334   1.543  0.00  0.00    -0.188 OA
BRANCH  14  15
HETATM   15  P   UNK N   1      20.295  17.695   1.791  0.00  0.00     0.414 P 
HETATM   16  O   UNK N   1      20.451  18.014   0.092  0.00  0.00    -0.624 OA
HETATM   17  O   UNK N   1      19.132  18.528   2.396  0.00  0.00    -0.624 OA
BRANCH  15  18
HETATM   18  O   UNK N   1      18.901  17.104   0.943  0.00  0.00    -0.300 OA
HETATM   19  H   UNK N   1      18.052  17.565   1.012  0.00  0.00     0.223 HD
ENDBRANCH  15  18
ENDBRANCH  14  15
ENDBRANCH  10  14
ENDBRANCH   9  10
ENDBRANCH   8   9
ENDBRANCH   7   8
ENDBRANCH   4   7
BRANCH   1  20
HETATM   20  C   UNK N   1      21.512  12.870   7.500  0.00  0.00     0.171 C 
BRANCH  20  21
HETATM   21  C   UNK N   1      21.985  12.583   8.898  0.00  0.00     0.004 A 
HETATM   22  C   UNK N   1      23.146  11.832   9.129  0.00  0.00     0.014 A 
HETATM   23  C   UNK N   1      23.561  11.569  10.432  0.00  0.00     0.025 A 
HETATM   24  C   UNK N   1      22.810  12.061  11.499  0.00  0.00     0.007 A 
HETATM   25  C   UNK N   1      23.240  11.787  12.894  0.00  0.00     0.068 C 
HETATM   26  N   UNK N   1      21.683  12.788  11.265  0.00  0.00    -0.346 N 
HETATM   27  C   UNK N   1      21.258  13.058  10.001  0.00  0.00     0.107 A 
ATOM     28  HN  UNK N   1      21.145  13.140  12.056  1.00  0.00     0.167 HD
BRANCH  27  29
HETATM   29  N   UNK N   1      20.081  13.814   9.811  0.00  0.00    -0.385 N 
HETATM   30  H   UNK N   1      19.220  13.412   9.554  0.00  0.00     0.157 HD
HETATM   31  H   UNK N   1      20.123  14.789   9.943  0.00  0.00     0.157 HD
ENDBRANCH  27  29
ENDBRANCH  20  21
ENDBRANCH   1  20
TORSDOF 11
ENDMDL
MODEL 6
REMARK VINA RESULT:      -6.1      2.473      3.493
REMARK  11 active torsions:
REMARK  status: ('A' for Active; 'I' for Inactive)
REMARK    1  A    between atoms: C_5  and  C_6 
REMARK    2  A    between atoms: C_6  and  N_7 
REMARK    3  A    between atoms: C_10  and  C_11 
REMARK    4  A    between atoms: C_11  and  C_12 
REMARK    5  A    between atoms: C_12  and  O_13 
REMARK    6  A    between atoms: P_14  and  O_13 
REMARK    7  A    between atoms: P_14  and  O_15 
REMARK    8  A    between atoms: P_14  and  O_17 
REMARK    9  A    between atoms: O_17  and  P_18 
REMARK   10  A    between atoms: P_18  and  O_19 
REMARK   11  A    between atoms: C_24  and  N_25 
ROOT
HETATM    1  N   UNK N   1      29.046  15.678   5.638  0.00  0.00    -0.349 N 
HETATM    2  C   UNK N   1      28.918  14.960   4.490  0.00  0.00     0.141 A 
HETATM    3  S   UNK N   1      30.437  14.655   3.918  0.00  0.00    -0.087 SA
HETATM    4  C   UNK N   1      31.312  15.410   5.102  0.00  0.00     0.008 A 
HETATM    5  C   UNK N   1      30.354  15.945   5.991  0.00  0.00     0.021 A 
HETATM    6  C   UNK N   1      30.677  16.754   7.205  0.00  0.00     0.069 C 
ENDROOT
BRANCH   4   7
HETATM    7  C   UNK N   1      32.820  15.424   5.093  0.00  0.00     0.075 C 
BRANCH   7   8
HETATM    8  C   UNK N   1      33.605  14.464   6.000  0.00  0.00     0.185 C 
BRANCH   8   9
HETATM    9  O   UNK N   1      32.999  14.202   7.238  0.00  0.00    -0.296 OA
BRANCH   9  10
HETATM   10  P   UNK N   1      33.906  14.930   8.544  0.00  0.00     0.402 P 
HETATM   11  O   UNK N   1      34.858  13.875   9.178  0.00  0.00    -0.631 OA
BRANCH  10  12
HETATM   12  O   UNK N   1      32.807  15.459   9.781  0.00  0.00    -0.307 OA
HETATM   13  H   UNK N   1      31.885  15.755   9.838  0.00  0.00     0.222 HD
ENDBRANCH  10  12
BRANCH  10  14
HETATM   14  O   UNK N   1      34.870  16.252   7.948  0.00  0.00    -0.188 OA
BRANCH  14  15
HETATM   15  P   UNK N   1      34.059  17.699   8.468  0.00  0.00     0.414 P 
HETATM   16  O   UNK N   1      34.735  17.937   6.887  0.00  0.00    -0.624 OA
HETATM   17  O   UNK N   1      35.186  17.533   9.522  0.00  0.00    -0.624 OA
BRANCH  15  18
HETATM   18  O   UNK N   1      34.890  19.219   8.399  0.00  0.00    -0.300 OA
HETATM   19  H   UNK N   1      34.979  19.767   9.194  0.00  0.00     0.223 HD
ENDBRANCH  15  18
ENDBRANCH  14  15
ENDBRANCH  10  14
ENDBRANCH   9  10
ENDBRANCH   8   9
ENDBRANCH   7   8
ENDBRANCH   4   7
BRANCH   1  20
HETATM   20  C   UNK N   1      27.892  16.114   6.416  0.00  0.00     0.171 C 
BRANCH  20  21
HETATM   21  C   UNK N   1      27.673  17.600   6.332  0.00  0.00     0.004 A 
HETATM   22  C   UNK N   1      27.605  18.252   5.093  0.00  0.00     0.014 A 
HETATM   23  C   UNK N   1      27.410  19.630   5.037  0.00  0.00     0.025 A 
HETATM   24  C   UNK N   1      27.287  20.349   6.225  0.00  0.00     0.007 A 
HETATM   25  C   UNK N   1      27.081  21.819   6.182  0.00  0.00     0.068 C 
HETATM   26  N   UNK N   1      27.356  19.707   7.424  0.00  0.00    -0.346 N 
HETATM   27  C   UNK N   1      27.545  18.363   7.503  0.00  0.00     0.107 A 
ATOM     28  HN  UNK N   1      27.264  20.248   8.283  1.00  0.00     0.167 HD
BRANCH  27  29
HETATM   29  N   UNK N   1      27.613  17.745   8.771  0.00  0.00    -0.385 N 
HETATM   30  H   UNK N   1      28.430  17.318   9.118  0.00  0.00     0.157 HD
HETATM   31  H   UNK N   1      26.806  17.741   9.336  0.00  0.00     0.157 HD
ENDBRANCH  27  29
ENDBRANCH  20  21
ENDBRANCH   1  20
TORSDOF 11
ENDMDL
MODEL 7
REMARK VINA RESULT:      -6.0     10.145     12.281
REMARK  11 active torsions:
REMARK  status: ('A' for Active; 'I' for Inactive)
REMARK    1  A    between atoms: C_5  and  C_6 
REMARK    2  A    between atoms: C_6  and  N_7 
REMARK    3  A    between atoms: C_10  and  C_11 
REMARK    4  A    between atoms: C_11  and  C_12 
REMARK    5  A    between atoms: C_12  and  O_13 
REMARK    6  A    between atoms: P_14  and  O_13 
REMARK    7  A    between atoms: P_14  and  O_15 
REMARK    8  A    between atoms: P_14  and  O_17 
REMARK    9  A    between atoms: O_17  and  P_18 
REMARK   10  A    between atoms: P_18  and  O_19 
REMARK   11  A    between atoms: C_24  and  N_25 
ROOT
HETATM    1  N   UNK N   1      35.572  11.384  18.632  0.00  0.00    -0.349 N 
HETATM    2  C   UNK N   1      35.043  12.631  18.747  0.00  0.00     0.141 A 
HETATM    3  S   UNK N   1      35.131  13.352  17.262  0.00  0.00    -0.087 SA
HETATM    4  C   UNK N   1      35.832  12.113  16.419  0.00  0.00     0.008 A 
HETATM    5  C   UNK N   1      36.021  11.078  17.362  0.00  0.00     0.021 A 
HETATM    6  C   UNK N   1      36.664   9.763  17.067  0.00  0.00     0.069 C 
ENDROOT
BRANCH   4   7
HETATM    7  C   UNK N   1      36.134  12.221  14.947  0.00  0.00     0.075 C 
BRANCH   7   8
HETATM    8  C   UNK N   1      35.363  13.221  14.072  0.00  0.00     0.185 C 
BRANCH   8   9
HETATM    9  O   UNK N   1      36.174  14.079  13.313  0.00  0.00    -0.296 OA
BRANCH   9  10
HETATM   10  P   UNK N   1      36.403  13.454  11.696  0.00  0.00     0.402 P 
HETATM   11  O   UNK N   1      35.809  12.020  11.595  0.00  0.00    -0.631 OA
BRANCH  10  12
HETATM   12  O   UNK N   1      38.104  13.344  11.360  0.00  0.00    -0.307 OA
HETATM   13  H   UNK N   1      38.670  13.041  10.633  0.00  0.00     0.222 HD
ENDBRANCH  10  12
BRANCH  10  14
HETATM   14  O   UNK N   1      35.594  14.468  10.535  0.00  0.00    -0.188 OA
BRANCH  14  15
HETATM   15  P   UNK N   1      35.511  16.045  11.263  0.00  0.00     0.414 P 
HETATM   16  O   UNK N   1      34.315  15.908  10.012  0.00  0.00    -0.624 OA
HETATM   17  O   UNK N   1      36.939  16.017  10.655  0.00  0.00    -0.624 OA
BRANCH  15  18
HETATM   18  O   UNK N   1      35.539  17.456  10.255  0.00  0.00    -0.300 OA
HETATM   19  H   UNK N   1      35.890  18.295  10.594  0.00  0.00     0.223 HD
ENDBRANCH  15  18
ENDBRANCH  14  15
ENDBRANCH  10  14
ENDBRANCH   9  10
ENDBRANCH   8   9
ENDBRANCH   7   8
ENDBRANCH   4   7
BRANCH   1  20
HETATM   20  C   UNK N   1      35.647  10.463  19.761  0.00  0.00     0.171 C 
BRANCH  20  21
HETATM   21  C   UNK N   1      34.369   9.695  19.958  0.00  0.00     0.004 A 
HETATM   22  C   UNK N   1      34.049   8.601  19.142  0.00  0.00     0.014 A 
HETATM   23  C   UNK N   1      32.856   7.909  19.336  0.00  0.00     0.025 A 
HETATM   24  C   UNK N   1      31.987   8.319  20.348  0.00  0.00     0.007 A 
HETATM   25  C   UNK N   1      30.711   7.592  20.565  0.00  0.00     0.068 C 
HETATM   26  N   UNK N   1      32.306   9.383  21.134  0.00  0.00    -0.346 N 
HETATM   27  C   UNK N   1      33.465  10.074  20.964  0.00  0.00     0.107 A 
ATOM     28  HN  UNK N   1      31.660   9.670  21.868  1.00  0.00     0.167 HD
BRANCH  27  29
HETATM   29  N   UNK N   1      33.748  11.173  21.804  0.00  0.00    -0.385 N 
HETATM   30  H   UNK N   1      33.730  12.107  21.491  0.00  0.00     0.157 HD
HETATM   31  H   UNK N   1      33.973  10.999  22.747  0.00  0.00     0.157 HD
ENDBRANCH  27  29
ENDBRANCH  20  21
ENDBRANCH   1  20
TORSDOF 11
ENDMDL
MODEL 8
REMARK VINA RESULT:      -6.0      6.756      8.683
REMARK  11 active torsions:
REMARK  status: ('A' for Active; 'I' for Inactive)
REMARK    1  A    between atoms: C_5  and  C_6 
REMARK    2  A    between atoms: C_6  and  N_7 
REMARK    3  A    between atoms: C_10  and  C_11 
REMARK    4  A    between atoms: C_11  and  C_12 
REMARK    5  A    between atoms: C_12  and  O_13 
REMARK    6  A    between atoms: P_14  and  O_13 
REMARK    7  A    between atoms: P_14  and  O_15 
REMARK    8  A    between atoms: P_14  and  O_17 
REMARK    9  A    between atoms: O_17  and  P_18 
REMARK   10  A    between atoms: P_18  and  O_19 
REMARK   11  A    between atoms: C_24  and  N_25 
ROOT
HETATM    1  N   UNK N   1      23.277  18.964   3.957  0.00  0.00    -0.349 N 
HETATM    2  C   UNK N   1      23.470  20.079   3.203  0.00  0.00     0.141 A 
HETATM    3  S   UNK N   1      25.097  20.257   2.979  0.00  0.00    -0.087 SA
HETATM    4  C   UNK N   1      25.617  18.929   3.818  0.00  0.00     0.008 A 
HETATM    5  C   UNK N   1      24.444  18.318   4.315  0.00  0.00     0.021 A 
HETATM    6  C   UNK N   1      24.418  17.096   5.173  0.00  0.00     0.069 C 
ENDROOT
BRANCH   4   7
HETATM    7  C   UNK N   1      27.078  18.576   3.927  0.00  0.00     0.075 C 
BRANCH   7   8
HETATM    8  C   UNK N   1      27.949  19.224   5.014  0.00  0.00     0.185 C 
BRANCH   8   9
HETATM    9  O   UNK N   1      27.354  19.277   6.284  0.00  0.00    -0.296 OA
BRANCH   9  10
HETATM   10  P   UNK N   1      28.099  18.126   7.371  0.00  0.00     0.402 P 
HETATM   11  O   UNK N   1      27.624  16.686   7.022  0.00  0.00    -0.631 OA
BRANCH  10  12
HETATM   12  O   UNK N   1      27.596  18.466   8.998  0.00  0.00    -0.307 OA
HETATM   13  H   UNK N   1      27.572  18.001   9.850  0.00  0.00     0.222 HD
ENDBRANCH  10  12
BRANCH  10  14
HETATM   14  O   UNK N   1      29.832  18.185   7.220  0.00  0.00    -0.188 OA
BRANCH  14  15
HETATM   15  P   UNK N   1      30.449  17.106   8.435  0.00  0.00     0.414 P 
HETATM   16  O   UNK N   1      30.519  18.743   9.009  0.00  0.00    -0.624 OA
HETATM   17  O   UNK N   1      31.436  16.902   7.254  0.00  0.00    -0.624 OA
BRANCH  15  18
HETATM   18  O   UNK N   1      31.997  17.419   9.154  0.00  0.00    -0.300 OA
HETATM   19  H   UNK N   1      32.154  17.218  10.089  0.00  0.00     0.223 HD
ENDBRANCH  15  18
ENDBRANCH  14  15
ENDBRANCH  10  14
ENDBRANCH   9  10
ENDBRANCH   8   9
ENDBRANCH   7   8
ENDBRANCH   4   7
BRANCH   1  20
HETATM   20  C   UNK N   1      21.947  18.503   4.339  0.00  0.00     0.171 C 
BRANCH  20  21
HETATM   21  C   UNK N   1      21.218  17.846   3.199  0.00  0.00     0.004 A 
HETATM   22  C   UNK N   1      21.573  16.564   2.757  0.00  0.00     0.014 A 
HETATM   23  C   UNK N   1      20.892  15.978   1.693  0.00  0.00     0.025 A 
HETATM   24  C   UNK N   1      19.857  16.681   1.076  0.00  0.00     0.007 A 
HETATM   25  C   UNK N   1      19.123  16.069  -0.060  0.00  0.00     0.068 C 
HETATM   26  N   UNK N   1      19.521  17.926   1.512  0.00  0.00    -0.346 N 
HETATM   27  C   UNK N   1      20.172  18.519   2.549  0.00  0.00     0.107 A 
ATOM     28  HN  UNK N   1      18.762  18.426   1.050  1.00  0.00     0.167 HD
BRANCH  27  29
HETATM   29  N   UNK N   1      19.787  19.813   2.961  0.00  0.00    -0.385 N 
HETATM   30  H   UNK N   1      18.923  20.219   2.719  0.00  0.00     0.157 HD
HETATM   31  H   UNK N   1      20.411  20.335   3.516  0.00  0.00     0.157 HD
ENDBRANCH  27  29
ENDBRANCH  20  21
ENDBRANCH   1  20
TORSDOF 11
ENDMDL
MODEL 9
REMARK VINA RESULT:      -6.0      3.753      5.230
REMARK  11 active torsions:
REMARK  status: ('A' for Active; 'I' for Inactive)
REMARK    1  A    between atoms: C_5  and  C_6 
REMARK    2  A    between atoms: C_6  and  N_7 
REMARK    3  A    between atoms: C_10  and  C_11 
REMARK    4  A    between atoms: C_11  and  C_12 
REMARK    5  A    between atoms: C_12  and  O_13 
REMARK    6  A    between atoms: P_14  and  O_13 
REMARK    7  A    between atoms: P_14  and  O_15 
REMARK    8  A    between atoms: P_14  and  O_17 
REMARK    9  A    between atoms: O_17  and  P_18 
REMARK   10  A    between atoms: P_18  and  O_19 
REMARK   11  A    between atoms: C_24  and  N_25 
ROOT
HETATM    1  N   UNK N   1      28.853  16.460   3.792  0.00  0.00    -0.349 N 
HETATM    2  C   UNK N   1      29.912  16.717   2.978  0.00  0.00     0.141 A 
HETATM    3  S   UNK N   1      31.222  15.919   3.590  0.00  0.00    -0.087 SA
HETATM    4  C   UNK N   1      30.500  15.212   4.900  0.00  0.00     0.008 A 
HETATM    5  C   UNK N   1      29.154  15.639   4.862  0.00  0.00     0.021 A 
HETATM    6  C   UNK N   1      28.118  15.283   5.877  0.00  0.00     0.069 C 
ENDROOT
BRANCH   4   7
HETATM    7  C   UNK N   1      31.260  14.312   5.841  0.00  0.00     0.075 C 
BRANCH   7   8
HETATM    8  C   UNK N   1      31.927  14.896   7.096  0.00  0.00     0.185 C 
BRANCH   8   9
HETATM    9  O   UNK N   1      31.100  15.734   7.859  0.00  0.00    -0.296 OA
BRANCH   9  10
HETATM   10  P   UNK N   1      31.831  17.309   8.069  0.00  0.00     0.402 P 
HETATM   11  O   UNK N   1      32.481  17.772   6.733  0.00  0.00    -0.631 OA
BRANCH  10  12
HETATM   12  O   UNK N   1      33.093  17.202   9.259  0.00  0.00    -0.307 OA
HETATM   13  H   UNK N   1      34.062  17.161   9.271  0.00  0.00     0.222 HD
ENDBRANCH  10  12
BRANCH  10  14
HETATM   14  O   UNK N   1      30.627  18.479   8.530  0.00  0.00    -0.188 OA
BRANCH  14  15
HETATM   15  P   UNK N   1      29.319  17.563   9.219  0.00  0.00     0.414 P 
HETATM   16  O   UNK N   1      28.845  18.198   7.674  0.00  0.00    -0.624 OA
HETATM   17  O   UNK N   1      29.517  18.714  10.242  0.00  0.00    -0.624 OA
BRANCH  15  18
HETATM   18  O   UNK N   1      27.740  18.272   9.326  0.00  0.00    -0.300 OA
HETATM   19  H   UNK N   1      27.171  18.093  10.091  0.00  0.00     0.223 HD
ENDBRANCH  15  18
ENDBRANCH  14  15
ENDBRANCH  10  14
ENDBRANCH   9  10
ENDBRANCH   8   9
ENDBRANCH   7   8
ENDBRANCH   4   7
BRANCH   1  20
HETATM   20  C   UNK N   1      27.525  17.006   3.539  0.00  0.00     0.171 C 
BRANCH  20  21
HETATM   21  C   UNK N   1      27.249  18.240   4.353  0.00  0.00     0.004 A 
HETATM   22  C   UNK N   1      28.133  19.327   4.342  0.00  0.00     0.014 A 
HETATM   23  C   UNK N   1      27.863  20.457   5.110  0.00  0.00     0.025 A 
HETATM   24  C   UNK N   1      26.707  20.491   5.888  0.00  0.00     0.007 A 
HETATM   25  C   UNK N   1      26.407  21.688   6.714  0.00  0.00     0.068 C 
HETATM   26  N   UNK N   1      25.854  19.430   5.894  0.00  0.00    -0.346 N 
HETATM   27  C   UNK N   1      26.097  18.316   5.152  0.00  0.00     0.107 A 
ATOM     28  HN  UNK N   1      25.013  19.471   6.469  1.00  0.00     0.167 HD
BRANCH  27  29
HETATM   29  N   UNK N   1      25.183  17.241   5.195  0.00  0.00    -0.385 N 
HETATM   30  H   UNK N   1      24.232  17.334   4.955  0.00  0.00     0.157 HD
HETATM   31  H   UNK N   1      25.511  16.356   5.478  0.00  0.00     0.157 HD
ENDBRANCH  27  29
ENDBRANCH  20  21
ENDBRANCH   1  20
TORSDOF 11
ENDMDL
