REMARK  28 active torsions:
REMARK  status: ('A' for Active; 'I' for Inactive)
REMARK    1  A    between atoms: N_23  and  C_4 
REMARK    2  A    between atoms: C_6  and  C_5 
REMARK    3  A    between atoms: C_12  and  C_5 
REMARK    4  A    between atoms: N_25  and  C_6 
REMARK    5  A    between atoms: C_11  and  C_7 
REMARK    6  A    between atoms: O_45  and  C_7 
REMARK    7  A    between atoms: C_21  and  C_8 
REMARK    8  A    between atoms: O_46  and  C_8 
REMARK    9  A    between atoms: N_23  and  C_12 
REMARK   10  A    between atoms: O_34  and  C_12 
REMARK   11  A    between atoms: C_14  and  O_35 
REMARK   12  A    between atoms: C_15  and  O_48 
REMARK   13  A    between atoms: C_19  and  C_16 
REMARK   14  A    between atoms: C_21  and  C_16 
REMARK   15  A    between atoms: C_16  and  O_36 
REMARK   16  A    between atoms: N_22  and  C_17 
REMARK   17  A    between atoms: N_25  and  C_19 
REMARK   18  A    between atoms: O_37  and  C_19 
REMARK   19  A    between atoms: C_20  and  N_33 
REMARK   20  A    between atoms: P_50  and  O_38 
REMARK   21  A    between atoms: P_50  and  O_39 
REMARK   22  A    between atoms: P_51  and  O_41 
REMARK   23  A    between atoms: P_52  and  O_43 
REMARK   24  A    between atoms: P_51  and  O_45 
REMARK   25  A    between atoms: P_52  and  O_46 
REMARK   26  A    between atoms: P_50  and  O_48 
REMARK   27  A    between atoms: P_51  and  O_49 
REMARK   28  A    between atoms: P_52  and  O_49 
ROOT
HETATM    1  O   UNK N   1      -1.372  -1.347   0.542  0.00  0.00    -0.294 OA
ENDROOT
BRANCH   1   2
HETATM    2  C   UNK N   1      -1.021  -1.476  -0.805  0.00  0.00     0.215 C 
BRANCH   2   3
HETATM    3  C   UNK N   1       0.310  -0.763  -1.064  0.00  0.00     0.180 C 
HETATM    4  C   UNK N   1       1.494  -1.404  -0.311  0.00  0.00     0.197 C 
HETATM    5  C   UNK N   1       2.383  -0.212  -0.184  0.00  0.00     0.199 C 
HETATM    6  C   UNK N   1       1.321   0.800   0.226  0.00  0.00     0.262 C 
HETATM    7  O   UNK N   1       0.238   0.603  -0.664  0.00  0.00    -0.353 OA
BRANCH   4   8
HETATM    8  O   UNK N   1       2.153  -2.419  -1.032  0.00  0.00    -0.286 OA
BRANCH   8   9
HETATM    9  P   UNK N   1       1.667  -3.994  -0.465  0.00  0.00     0.391 P 
HETATM   10  O   UNK N   1       0.888  -4.641  -1.639  0.00  0.00    -0.632 OA
BRANCH   9  11
HETATM   11  O   UNK N   1       0.616  -3.973   0.920  0.00  0.00    -0.307 OA
HETATM   12  H   UNK N   1       0.333  -3.460   1.693  0.00  0.00     0.222 HD
ENDBRANCH   9  11
BRANCH   9  13
HETATM   13  O   UNK N   1       3.048  -5.003  -0.169  0.00  0.00    -0.307 OA
HETATM   14  H   UNK N   1       2.945  -5.953  -0.003  0.00  0.00     0.222 HD
ENDBRANCH   9  13
ENDBRANCH   8   9
ENDBRANCH   4   8
BRANCH   5  15
HETATM   15  O   UNK N   1       2.912   0.119  -1.442  0.00  0.00    -0.388 OA
HETATM   16  H   UNK N   1       3.293  -0.083  -2.311  0.00  0.00     0.210 HD
ENDBRANCH   5  15
BRANCH   6  17
HETATM   17  N   UNK N   1       1.785   2.195   0.248  0.00  0.00    -0.297 N 
HETATM   18  C   UNK N   1       0.985   3.273   0.459  0.00  0.00     0.188 A 
HETATM   19  N   UNK N   1       1.705   4.429   0.508  0.00  0.00    -0.346 N 
HETATM   20  C   UNK N   1       2.981   4.036   0.337  0.00  0.00     0.122 A 
ATOM     21  HN  UNK N   1       1.356   5.378   0.644  1.00  0.00     0.167 HD
HETATM   22  C   UNK N   1       4.148   4.782   0.346  0.00  0.00     0.131 A 
HETATM   23  C   UNK N   1       3.029   2.701   0.174  0.00  0.00     0.142 A 
HETATM   24  N   UNK N   1       5.333   4.122   0.180  0.00  0.00    -0.337 N 
HETATM   25  C   UNK N   1       5.363   2.759   0.015  0.00  0.00     0.183 A 
ATOM     26  HN  UNK N   1       6.207   4.648   0.180  1.00  0.00     0.168 HD
HETATM   27  N   UNK N   1       4.202   2.036   0.019  0.00  0.00    -0.336 N 
ATOM     28  HN  UNK N   1       4.218   1.022  -0.091  1.00  0.00     0.168 HD
BRANCH  22  29
HETATM   29  N   UNK N   1       4.125   6.177   0.543  0.00  0.00    -0.383 N 
HETATM   30  H   UNK N   1       4.962   6.678   0.681  0.00  0.00     0.157 HD
HETATM   31  H   UNK N   1       3.265   6.655   0.543  0.00  0.00     0.157 HD
ENDBRANCH  22  29
ENDBRANCH   6  17
ENDBRANCH   2   3
ENDBRANCH   1   2
BRANCH   1  32
HETATM   32  P   UNK N   1      -2.940  -2.078   0.740  0.00  0.00     0.401 P 
HETATM   33  O   UNK N   1      -4.063  -1.181   1.326  0.00  0.00    -0.631 OA
BRANCH  32  34
HETATM   34  O   UNK N   1      -2.425  -2.453   2.350  0.00  0.00    -0.307 OA
HETATM   35  H   UNK N   1      -2.463  -2.807   3.252  0.00  0.00     0.222 HD
ENDBRANCH  32  34
BRANCH  32  36
HETATM   36  O   UNK N   1      -3.287  -3.788   0.602  0.00  0.00    -0.195 OA
BRANCH  36  37
HETATM   37  P   UNK N   1      -3.331  -4.232  -1.085  0.00  0.00     0.401 P 
HETATM   38  O   UNK N   1      -4.341  -5.260  -0.499  0.00  0.00    -0.631 OA
BRANCH  37  39
HETATM   39  O   UNK N   1      -1.774  -4.392  -0.346  0.00  0.00    -0.307 OA
HETATM   40  H   UNK N   1      -1.416  -5.193   0.068  0.00  0.00     0.222 HD
ENDBRANCH  37  39
BRANCH  37  41
HETATM   41  O   UNK N   1      -2.354  -5.608  -1.699  0.00  0.00    -0.296 OA
BRANCH  41  42
HETATM   42  C   UNK N   1      -2.579  -6.903  -1.136  0.00  0.00     0.192 C 
BRANCH  42  43
HETATM   43  C   UNK N   1      -1.662  -7.258   0.067  0.00  0.00     0.008 C 
HETATM   44  C   UNK N   1      -0.252  -6.751  -0.165  0.00  0.00     0.020 C 
HETATM   45  C   UNK N   1      -2.189  -6.612   1.345  0.00  0.00     0.020 C 
BRANCH  43  46
HETATM   46  C   UNK N   1      -1.542  -8.790   0.264  0.00  0.00     0.202 C 
BRANCH  46  47
HETATM   47  C   UNK N   1      -2.825  -9.521   0.570  0.00  0.00     0.141 C 
BRANCH  47  48
HETATM   48  N   UNK N   1      -3.942  -8.887   0.638  0.00  0.00    -0.372 N 
ATOM     49  HN  UNK N   1      -3.944  -7.879   0.478  1.00  0.00     0.161 HD
BRANCH  48  50
HETATM   50  C   UNK N   1      -5.187  -9.542   0.933  0.00  0.00     0.129 C 
BRANCH  50  51
HETATM   51  C   UNK N   1      -6.265  -8.481   0.997  0.00  0.00     0.103 C 
BRANCH  51  52
HETATM   52  C   UNK N   1      -7.396  -8.753   0.059  0.00  0.00     0.112 C 
BRANCH  52  53
HETATM   53  N   UNK N   1      -8.223  -7.804  -0.203  0.00  0.00    -0.375 N 
ATOM     54  HN  UNK N   1      -8.085  -6.894   0.237  1.00  0.00     0.161 HD
BRANCH  53  55
HETATM   55  C   UNK N   1      -9.337  -7.982  -1.097  0.00  0.00     0.117 C 
HETATM   56  C   UNK N   1     -10.617  -7.607  -0.381  0.00  0.00     0.026 C 
ENDBRANCH  53  55
ENDBRANCH  52  53
BRANCH  52  57
HETATM   57  O   UNK N   1      -7.543  -9.972  -0.508  0.00  0.00    -0.350 OA
HETATM   58  H   UNK N   1      -8.326 -10.307  -0.901  0.00  0.00     0.219 HD
ENDBRANCH  52  57
ENDBRANCH  51  52
ENDBRANCH  50  51
ENDBRANCH  48  50
ENDBRANCH  47  48
BRANCH  47  59
HETATM   59  O   UNK N   1      -2.782 -10.854   0.779  0.00  0.00    -0.348 OA
HETATM   60  H   UNK N   1      -3.568 -11.343   0.924  0.00  0.00     0.219 HD
ENDBRANCH  47  59
ENDBRANCH  46  47
BRANCH  46  61
HETATM   61  O   UNK N   1      -0.968  -9.363  -0.875  0.00  0.00    -0.387 OA
HETATM   62  H   UNK N   1      -1.114  -9.906  -1.665  0.00  0.00     0.210 HD
ENDBRANCH  46  61
ENDBRANCH  43  46
ENDBRANCH  42  43
ENDBRANCH  41  42
ENDBRANCH  37  41
ENDBRANCH  36  37
ENDBRANCH  32  36
ENDBRANCH   1  32
TORSDOF 28
