MODEL 1
REMARK VINA RESULT:      -7.2      0.000      0.000
REMARK  2 active torsions:
REMARK  status: ('A' for Active; 'I' for Inactive)
REMARK    1  A    between atoms: C_10  and  O_11 
REMARK    2  A    between atoms: C_18  and  O_20 
ROOT
HETATM    1  C   UNK N   1      27.898  23.805  -8.894  0.00  0.00     0.018 C 
HETATM    2  C   UNK N   1      26.475  23.515  -8.438  0.00  0.00    -0.014 C 
HETATM    3  C   UNK N   1      25.557  24.695  -8.801  0.00  0.00     0.012 C 
HETATM    4  C   UNK N   1      25.963  25.989  -8.071  0.00  0.00     0.007 C 
HETATM    5  C   UNK N   1      26.583  25.753  -6.674  0.00  0.00     0.002 C 
HETATM    6  C   UNK N   1      26.042  24.444  -6.060  0.00  0.00    -0.005 C 
HETATM    7  C   UNK N   1      26.415  23.230  -6.929  0.00  0.00     0.001 C 
HETATM    8  C   UNK N   1      25.378  22.125  -6.732  0.00  0.00     0.008 C 
HETATM    9  C   UNK N   1      24.890  21.744  -8.121  0.00  0.00     0.033 C 
HETATM   10  C   UNK N   1      26.004  22.202  -9.032  0.00  0.00     0.126 C 
HETATM   11  C   UNK N   1      26.539  24.202  -4.632  0.00  0.00     0.006 C 
HETATM   12  C   UNK N   1      26.311  25.416  -3.740  0.00  0.00     0.006 C 
HETATM   13  C   UNK N   1      27.001  26.614  -4.377  0.00  0.00     0.000 C 
HETATM   14  C   UNK N   1      26.373  26.968  -5.742  0.00  0.00    -0.019 C 
HETATM   15  C   UNK N   1      27.043  28.199  -6.313  0.00  0.00    -0.018 C 
HETATM   16  C   UNK N   1      27.802  29.029  -5.572  0.00  0.00     0.001 C 
HETATM   17  C   UNK N   1      27.985  28.861  -4.079  0.00  0.00     0.141 C 
HETATM   18  C   UNK N   1      27.040  27.825  -3.466  0.00  0.00     0.041 C 
HETATM   19  C   UNK N   1      24.881  27.282  -5.593  0.00  0.00     0.020 C 
ENDROOT
BRANCH  10  20
HETATM   20  O   UNK N   1      25.573  22.328 -10.356  0.00  0.00    -0.395 OA
HETATM   21  H   UNK N   1      25.331  21.588 -10.933  0.00  0.00     0.210 HD
ENDBRANCH  10  20
BRANCH  17  22
HETATM   22  O   UNK N   1      27.793  30.086  -3.442  0.00  0.00    -0.392 OA
HETATM   23  H   UNK N   1      27.299  30.834  -3.812  0.00  0.00     0.210 HD
ENDBRANCH  17  22
TORSDOF 2
ENDMDL
MODEL 2
REMARK VINA RESULT:      -7.0     27.533     29.574
REMARK  2 active torsions:
REMARK  status: ('A' for Active; 'I' for Inactive)
REMARK    1  A    between atoms: C_10  and  O_11 
REMARK    2  A    between atoms: C_18  and  O_20 
ROOT
HETATM    1  C   UNK N   1      33.679  10.961  14.345  0.00  0.00     0.018 C 
HETATM    2  C   UNK N   1      35.115  11.410  14.575  0.00  0.00    -0.014 C 
HETATM    3  C   UNK N   1      36.014  10.186  14.821  0.00  0.00     0.012 C 
HETATM    4  C   UNK N   1      35.616   9.423  16.099  0.00  0.00     0.007 C 
HETATM    5  C   UNK N   1      35.033  10.326  17.211  0.00  0.00     0.002 C 
HETATM    6  C   UNK N   1      35.600  11.757  17.095  0.00  0.00    -0.005 C 
HETATM    7  C   UNK N   1      35.215  12.397  15.749  0.00  0.00     0.001 C 
HETATM    8  C   UNK N   1      36.266  13.436  15.360  0.00  0.00     0.008 C 
HETATM    9  C   UNK N   1      36.722  13.078  13.954  0.00  0.00     0.033 C 
HETATM   10  C   UNK N   1      35.582  12.254  13.405  0.00  0.00     0.126 C 
HETATM   11  C   UNK N   1      35.142  12.677  18.230  0.00  0.00     0.006 C 
HETATM   12  C   UNK N   1      35.382  12.052  19.598  0.00  0.00     0.006 C 
HETATM   13  C   UNK N   1      34.666  10.710  19.643  0.00  0.00     0.000 C 
HETATM   14  C   UNK N   1      35.256   9.720  18.616  0.00  0.00    -0.019 C 
HETATM   15  C   UNK N   1      34.562   8.380  18.733  0.00  0.00    -0.018 C 
HETATM   16  C   UNK N   1      33.816   8.035  19.800  0.00  0.00     0.001 C 
HETATM   17  C   UNK N   1      33.671   8.916  21.021  0.00  0.00     0.141 C 
HETATM   18  C   UNK N   1      34.640  10.101  21.031  0.00  0.00     0.041 C 
HETATM   19  C   UNK N   1      36.750   9.490  18.872  0.00  0.00     0.020 C 
ENDROOT
BRANCH  10  20
HETATM   20  O   UNK N   1      35.979  11.487  12.306  0.00  0.00    -0.395 OA
HETATM   21  H   UNK N   1      35.407  10.867  11.828  0.00  0.00     0.210 HD
ENDBRANCH  10  20
BRANCH  17  22
HETATM   22  O   UNK N   1      33.870   8.157  22.174  0.00  0.00    -0.392 OA
HETATM   23  H   UNK N   1      34.717   7.772  22.448  0.00  0.00     0.210 HD
ENDBRANCH  17  22
TORSDOF 2
ENDMDL
MODEL 3
REMARK VINA RESULT:      -6.7     14.469     16.947
REMARK  2 active torsions:
REMARK  status: ('A' for Active; 'I' for Inactive)
REMARK    1  A    between atoms: C_10  and  O_11 
REMARK    2  A    between atoms: C_18  and  O_20 
ROOT
HETATM    1  C   UNK N   1      32.058  15.197   8.589  0.00  0.00     0.018 C 
HETATM    2  C   UNK N   1      32.395  16.581   8.051  0.00  0.00    -0.014 C 
HETATM    3  C   UNK N   1      31.407  17.617   8.613  0.00  0.00     0.012 C 
HETATM    4  C   UNK N   1      29.961  17.344   8.157  0.00  0.00     0.007 C 
HETATM    5  C   UNK N   1      29.858  16.697   6.756  0.00  0.00     0.002 C 
HETATM    6  C   UNK N   1      31.070  17.098   5.888  0.00  0.00    -0.005 C 
HETATM    7  C   UNK N   1      32.386  16.605   6.515  0.00  0.00     0.001 C 
HETATM    8  C   UNK N   1      33.531  17.522   6.084  0.00  0.00     0.008 C 
HETATM    9  C   UNK N   1      34.221  17.973   7.361  0.00  0.00     0.033 C 
HETATM   10  C   UNK N   1      33.840  16.916   8.370  0.00  0.00     0.126 C 
HETATM   11  C   UNK N   1      30.978  16.574   4.452  0.00  0.00     0.006 C 
HETATM   12  C   UNK N   1      29.644  16.923   3.806  0.00  0.00     0.006 C 
HETATM   13  C   UNK N   1      28.529  16.362   4.678  0.00  0.00     0.000 C 
HETATM   14  C   UNK N   1      28.512  17.028   6.071  0.00  0.00    -0.019 C 
HETATM   15  C   UNK N   1      27.355  16.491   6.885  0.00  0.00    -0.018 C 
HETATM   16  C   UNK N   1      26.324  15.820   6.336  0.00  0.00     0.001 C 
HETATM   17  C   UNK N   1      26.179  15.614   4.844  0.00  0.00     0.141 C 
HETATM   18  C   UNK N   1      27.166  16.445   4.020  0.00  0.00     0.041 C 
HETATM   19  C   UNK N   1      28.327  18.545   5.950  0.00  0.00     0.020 C 
ENDROOT
BRANCH  10  20
HETATM   20  O   UNK N   1      34.017  17.363   9.682  0.00  0.00    -0.395 OA
HETATM   21  H   UNK N   1      34.147  18.288   9.939  0.00  0.00     0.210 HD
ENDBRANCH  10  20
BRANCH  17  22
HETATM   22  O   UNK N   1      24.880  15.930   4.450  0.00  0.00    -0.392 OA
HETATM   23  H   UNK N   1      24.541  16.829   4.318  0.00  0.00     0.210 HD
ENDBRANCH  17  22
TORSDOF 2
ENDMDL
MODEL 4
REMARK VINA RESULT:      -6.6     27.840     29.902
REMARK  2 active torsions:
REMARK  status: ('A' for Active; 'I' for Inactive)
REMARK    1  A    between atoms: C_10  and  O_11 
REMARK    2  A    between atoms: C_18  and  O_20 
ROOT
HETATM    1  C   UNK N   1      37.308   8.741  19.523  0.00  0.00     0.018 C 
HETATM    2  C   UNK N   1      35.796   8.909  19.586  0.00  0.00    -0.014 C 
HETATM    3  C   UNK N   1      35.146   8.282  18.341  0.00  0.00     0.012 C 
HETATM    4  C   UNK N   1      35.581   8.989  17.043  0.00  0.00     0.007 C 
HETATM    5  C   UNK N   1      35.873  10.498  17.220  0.00  0.00     0.002 C 
HETATM    6  C   UNK N   1      35.039  11.074  18.385  0.00  0.00    -0.005 C 
HETATM    7  C   UNK N   1      35.399  10.388  19.715  0.00  0.00     0.001 C 
HETATM    8  C   UNK N   1      34.196  10.439  20.656  0.00  0.00     0.008 C 
HETATM    9  C   UNK N   1      33.943   9.008  21.105  0.00  0.00     0.033 C 
HETATM   10  C   UNK N   1      35.268   8.321  20.881  0.00  0.00     0.126 C 
HETATM   11  C   UNK N   1      35.204  12.588  18.548  0.00  0.00     0.006 C 
HETATM   12  C   UNK N   1      34.981  13.326  17.235  0.00  0.00     0.006 C 
HETATM   13  C   UNK N   1      35.947  12.767  16.201  0.00  0.00     0.000 C 
HETATM   14  C   UNK N   1      35.659  11.280  15.903  0.00  0.00    -0.019 C 
HETATM   15  C   UNK N   1      36.597  10.777  14.828  0.00  0.00    -0.018 C 
HETATM   16  C   UNK N   1      37.306  11.602  14.032  0.00  0.00     0.001 C 
HETATM   17  C   UNK N   1      37.165  13.108  14.077  0.00  0.00     0.141 C 
HETATM   18  C   UNK N   1      35.979  13.580  14.921  0.00  0.00     0.041 C 
HETATM   19  C   UNK N   1      34.227  11.091  15.392  0.00  0.00     0.020 C 
ENDROOT
BRANCH  10  20
HETATM   20  O   UNK N   1      35.130   6.931  20.830  0.00  0.00    -0.395 OA
HETATM   21  H   UNK N   1      35.799   6.320  20.484  0.00  0.00     0.210 HD
ENDBRANCH  10  20
BRANCH  17  22
HETATM   22  O   UNK N   1      37.027  13.605  12.782  0.00  0.00    -0.392 OA
HETATM   23  H   UNK N   1      37.518  13.286  12.008  0.00  0.00     0.210 HD
ENDBRANCH  17  22
TORSDOF 2
ENDMDL
MODEL 5
REMARK VINA RESULT:      -6.5      2.346      3.056
REMARK  2 active torsions:
REMARK  status: ('A' for Active; 'I' for Inactive)
REMARK    1  A    between atoms: C_10  and  O_11 
REMARK    2  A    between atoms: C_18  and  O_20 
ROOT
HETATM    1  C   UNK N   1      29.574  22.935  -4.390  0.00  0.00     0.018 C 
HETATM    2  C   UNK N   1      29.122  23.018  -5.842  0.00  0.00    -0.014 C 
HETATM    3  C   UNK N   1      29.840  24.181  -6.549  0.00  0.00     0.012 C 
HETATM    4  C   UNK N   1      29.478  25.545  -5.931  0.00  0.00     0.007 C 
HETATM    5  C   UNK N   1      28.043  25.612  -5.359  0.00  0.00     0.002 C 
HETATM    6  C   UNK N   1      27.117  24.634  -6.113  0.00  0.00    -0.005 C 
HETATM    7  C   UNK N   1      27.598  23.181  -5.949  0.00  0.00     0.001 C 
HETATM    8  C   UNK N   1      27.153  22.357  -7.157  0.00  0.00     0.008 C 
HETATM    9  C   UNK N   1      28.403  21.686  -7.701  0.00  0.00     0.033 C 
HETATM   10  C   UNK N   1      29.352  21.685  -6.527  0.00  0.00     0.126 C 
HETATM   11  C   UNK N   1      25.656  24.725  -5.664  0.00  0.00     0.006 C 
HETATM   12  C   UNK N   1      25.146  26.160  -5.685  0.00  0.00     0.006 C 
HETATM   13  C   UNK N   1      26.056  27.004  -4.803  0.00  0.00     0.000 C 
HETATM   14  C   UNK N   1      27.494  27.058  -5.362  0.00  0.00    -0.019 C 
HETATM   15  C   UNK N   1      28.351  27.954  -4.495  0.00  0.00    -0.018 C 
HETATM   16  C   UNK N   1      27.833  28.826  -3.608  0.00  0.00     0.001 C 
HETATM   17  C   UNK N   1      26.345  29.056  -3.455  0.00  0.00     0.141 C 
HETATM   18  C   UNK N   1      25.515  28.400  -4.561  0.00  0.00     0.041 C 
HETATM   19  C   UNK N   1      27.508  27.637  -6.781  0.00  0.00     0.020 C 
ENDROOT
BRANCH  10  20
HETATM   20  O   UNK N   1      30.678  21.503  -6.930  0.00  0.00    -0.395 OA
HETATM   21  H   UNK N   1      30.957  20.973  -7.693  0.00  0.00     0.210 HD
ENDBRANCH  10  20
BRANCH  17  22
HETATM   22  O   UNK N   1      26.081  30.424  -3.439  0.00  0.00    -0.392 OA
HETATM   23  H   UNK N   1      25.795  30.927  -2.661  0.00  0.00     0.210 HD
ENDBRANCH  17  22
TORSDOF 2
ENDMDL
MODEL 6
REMARK VINA RESULT:      -6.4      2.100      2.689
REMARK  2 active torsions:
REMARK  status: ('A' for Active; 'I' for Inactive)
REMARK    1  A    between atoms: C_10  and  O_11 
REMARK    2  A    between atoms: C_18  and  O_20 
ROOT
HETATM    1  C   UNK N   1      28.958  23.749  -9.205  0.00  0.00     0.018 C 
HETATM    2  C   UNK N   1      28.547  22.557  -8.352  0.00  0.00    -0.014 C 
HETATM    3  C   UNK N   1      27.013  22.462  -8.287  0.00  0.00     0.012 C 
HETATM    4  C   UNK N   1      26.386  23.690  -7.601  0.00  0.00     0.007 C 
HETATM    5  C   UNK N   1      27.277  24.317  -6.504  0.00  0.00     0.002 C 
HETATM    6  C   UNK N   1      28.197  23.246  -5.881  0.00  0.00    -0.005 C 
HETATM    7  C   UNK N   1      29.142  22.646  -6.938  0.00  0.00     0.001 C 
HETATM    8  C   UNK N   1      29.523  21.223  -6.531  0.00  0.00     0.008 C 
HETATM    9  C   UNK N   1      29.200  20.337  -7.724  0.00  0.00     0.033 C 
HETATM   10  C   UNK N   1      29.191  21.294  -8.892  0.00  0.00     0.126 C 
HETATM   11  C   UNK N   1      29.034  23.780  -4.714  0.00  0.00     0.006 C 
HETATM   12  C   UNK N   1      28.174  24.497  -3.682  0.00  0.00     0.006 C 
HETATM   13  C   UNK N   1      27.416  25.615  -4.385  0.00  0.00     0.000 C 
HETATM   14  C   UNK N   1      26.435  25.058  -5.439  0.00  0.00    -0.019 C 
HETATM   15  C   UNK N   1      25.658  26.192  -6.070  0.00  0.00    -0.018 C 
HETATM   16  C   UNK N   1      25.595  27.425  -5.529  0.00  0.00     0.001 C 
HETATM   17  C   UNK N   1      26.221  27.770  -4.196  0.00  0.00     0.141 C 
HETATM   18  C   UNK N   1      26.706  26.544  -3.419  0.00  0.00     0.041 C 
HETATM   19  C   UNK N   1      25.422  24.105  -4.794  0.00  0.00     0.020 C 
ENDROOT
BRANCH  10  20
HETATM   20  O   UNK N   1      28.509  20.765  -9.991  0.00  0.00    -0.395 OA
HETATM   21  H   UNK N   1      27.710  21.147 -10.384  0.00  0.00     0.210 HD
ENDBRANCH  10  20
BRANCH  17  22
HETATM   22  O   UNK N   1      25.304  28.471  -3.414  0.00  0.00    -0.392 OA
HETATM   23  H   UNK N   1      25.111  29.418  -3.496  0.00  0.00     0.210 HD
ENDBRANCH  17  22
TORSDOF 2
ENDMDL
MODEL 7
REMARK VINA RESULT:      -6.3     17.538     19.652
REMARK  2 active torsions:
REMARK  status: ('A' for Active; 'I' for Inactive)
REMARK    1  A    between atoms: C_10  and  O_11 
REMARK    2  A    between atoms: C_18  and  O_20 
ROOT
HETATM    1  C   UNK N   1      34.463  14.558  11.328  0.00  0.00     0.018 C 
HETATM    2  C   UNK N   1      35.299  14.582  10.055  0.00  0.00    -0.014 C 
HETATM    3  C   UNK N   1      35.626  16.035   9.671  0.00  0.00     0.012 C 
HETATM    4  C   UNK N   1      34.359  16.846   9.341  0.00  0.00     0.007 C 
HETATM    5  C   UNK N   1      33.221  16.004   8.717  0.00  0.00     0.002 C 
HETATM    6  C   UNK N   1      33.804  14.797   7.952  0.00  0.00    -0.005 C 
HETATM    7  C   UNK N   1      34.583  13.867   8.899  0.00  0.00     0.001 C 
HETATM    8  C   UNK N   1      35.661  13.124   8.110  0.00  0.00     0.008 C 
HETATM    9  C   UNK N   1      36.971  13.367   8.841  0.00  0.00     0.033 C 
HETATM   10  C   UNK N   1      36.540  13.731  10.241  0.00  0.00     0.126 C 
HETATM   11  C   UNK N   1      32.735  13.978   7.222  0.00  0.00     0.006 C 
HETATM   12  C   UNK N   1      31.843  14.856   6.355  0.00  0.00     0.006 C 
HETATM   13  C   UNK N   1      31.220  15.926   7.240  0.00  0.00     0.000 C 
HETATM   14  C   UNK N   1      32.292  16.866   7.831  0.00  0.00    -0.019 C 
HETATM   15  C   UNK N   1      31.631  17.952   8.652  0.00  0.00    -0.018 C 
HETATM   16  C   UNK N   1      30.317  18.235   8.566  0.00  0.00     0.001 C 
HETATM   17  C   UNK N   1      29.393  17.557   7.578  0.00  0.00     0.141 C 
HETATM   18  C   UNK N   1      30.134  16.716   6.535  0.00  0.00     0.041 C 
HETATM   19  C   UNK N   1      33.093  17.552   6.718  0.00  0.00     0.020 C 
ENDROOT
BRANCH  10  20
HETATM   20  O   UNK N   1      37.553  14.394  10.941  0.00  0.00    -0.395 OA
HETATM   21  H   UNK N   1      38.434  14.589  10.587  0.00  0.00     0.210 HD
ENDBRANCH  10  20
BRANCH  17  22
HETATM   22  O   UNK N   1      28.620  18.515   6.924  0.00  0.00    -0.392 OA
HETATM   23  H   UNK N   1      27.814  18.328   6.418  0.00  0.00     0.210 HD
ENDBRANCH  17  22
TORSDOF 2
ENDMDL
MODEL 8
REMARK VINA RESULT:      -6.1     14.554     16.601
REMARK  2 active torsions:
REMARK  status: ('A' for Active; 'I' for Inactive)
REMARK    1  A    between atoms: C_10  and  O_11 
REMARK    2  A    between atoms: C_18  and  O_20 
ROOT
HETATM    1  C   UNK N   1      20.554  15.980   8.278  0.00  0.00     0.018 C 
HETATM    2  C   UNK N   1      21.272  14.803   7.631  0.00  0.00    -0.014 C 
HETATM    3  C   UNK N   1      22.653  15.247   7.120  0.00  0.00     0.012 C 
HETATM    4  C   UNK N   1      22.544  16.315   6.015  0.00  0.00     0.007 C 
HETATM    5  C   UNK N   1      21.281  16.178   5.134  0.00  0.00     0.002 C 
HETATM    6  C   UNK N   1      20.817  14.707   5.084  0.00  0.00    -0.005 C 
HETATM    7  C   UNK N   1      20.443  14.197   6.488  0.00  0.00     0.001 C 
HETATM    8  C   UNK N   1      20.647  12.684   6.551  0.00  0.00     0.008 C 
HETATM    9  C   UNK N   1      21.540  12.423   7.754  0.00  0.00     0.033 C 
HETATM   10  C   UNK N   1      21.354  13.650   8.614  0.00  0.00     0.126 C 
HETATM   11  C   UNK N   1      19.628  14.485   4.144  0.00  0.00     0.006 C 
HETATM   12  C   UNK N   1      19.881  15.076   2.763  0.00  0.00     0.006 C 
HETATM   13  C   UNK N   1      20.196  16.556   2.926  0.00  0.00     0.000 C 
HETATM   14  C   UNK N   1      21.501  16.772   3.723  0.00  0.00    -0.019 C 
HETATM   15  C   UNK N   1      21.813  18.250   3.810  0.00  0.00    -0.018 C 
HETATM   16  C   UNK N   1      21.233  19.168   3.014  0.00  0.00     0.001 C 
HETATM   17  C   UNK N   1      20.280  18.802   1.897  0.00  0.00     0.141 C 
HETATM   18  C   UNK N   1      20.238  17.300   1.605  0.00  0.00     0.041 C 
HETATM   19  C   UNK N   1      22.685  16.089   3.030  0.00  0.00     0.020 C 
ENDROOT
BRANCH  10  20
HETATM   20  O   UNK N   1      22.391  13.798   9.539  0.00  0.00    -0.395 OA
HETATM   21  H   UNK N   1      23.251  14.202   9.347  0.00  0.00     0.210 HD
ENDBRANCH  10  20
BRANCH  17  22
HETATM   22  O   UNK N   1      20.637  19.481   0.733  0.00  0.00    -0.392 OA
HETATM   23  H   UNK N   1      21.496  19.905   0.577  0.00  0.00     0.210 HD
ENDBRANCH  17  22
TORSDOF 2
ENDMDL
MODEL 9
REMARK VINA RESULT:      -6.0      2.385      4.205
REMARK  2 active torsions:
REMARK  status: ('A' for Active; 'I' for Inactive)
REMARK    1  A    between atoms: C_10  and  O_11 
REMARK    2  A    between atoms: C_18  and  O_20 
ROOT
HETATM    1  C   UNK N   1      27.440  24.049  -3.488  0.00  0.00     0.018 C 
HETATM    2  C   UNK N   1      27.064  24.775  -4.773  0.00  0.00    -0.014 C 
HETATM    3  C   UNK N   1      28.333  25.109  -5.576  0.00  0.00     0.012 C 
HETATM    4  C   UNK N   1      29.260  26.077  -4.817  0.00  0.00     0.007 C 
HETATM    5  C   UNK N   1      28.511  27.071  -3.899  0.00  0.00     0.002 C 
HETATM    6  C   UNK N   1      27.093  27.343  -4.444  0.00  0.00    -0.005 C 
HETATM    7  C   UNK N   1      26.258  26.051  -4.483  0.00  0.00     0.001 C 
HETATM    8  C   UNK N   1      25.200  26.160  -5.581  0.00  0.00     0.008 C 
HETATM    9  C   UNK N   1      25.365  24.929  -6.458  0.00  0.00     0.033 C 
HETATM   10  C   UNK N   1      26.073  23.941  -5.562  0.00  0.00     0.126 C 
HETATM   11  C   UNK N   1      26.333  28.400  -3.637  0.00  0.00     0.006 C 
HETATM   12  C   UNK N   1      27.153  29.670  -3.454  0.00  0.00     0.006 C 
HETATM   13  C   UNK N   1      28.470  29.297  -2.787  0.00  0.00     0.000 C 
HETATM   14  C   UNK N   1      29.318  28.373  -3.688  0.00  0.00    -0.019 C 
HETATM   15  C   UNK N   1      30.642  28.076  -3.020  0.00  0.00    -0.018 C 
HETATM   16  C   UNK N   1      31.118  28.797  -1.986  0.00  0.00     0.001 C 
HETATM   17  C   UNK N   1      30.417  30.027  -1.451  0.00  0.00     0.141 C 
HETATM   18  C   UNK N   1      29.270  30.506  -2.344  0.00  0.00     0.041 C 
HETATM   19  C   UNK N   1      29.619  29.044  -5.032  0.00  0.00     0.020 C 
ENDROOT
BRANCH  10  20
HETATM   20  O   UNK N   1      26.685  22.921  -6.296  0.00  0.00    -0.395 OA
HETATM   21  H   UNK N   1      27.202  23.054  -7.106  0.00  0.00     0.210 HD
ENDBRANCH  10  20
BRANCH  17  22
HETATM   22  O   UNK N   1      31.338  31.062  -1.298  0.00  0.00    -0.392 OA
HETATM   23  H   UNK N   1      32.297  30.975  -1.408  0.00  0.00     0.210 HD
ENDBRANCH  17  22
TORSDOF 2
ENDMDL
