MODEL 1
REMARK VINA RESULT:      -7.7      0.000      0.000
REMARK  2 active torsions:
REMARK  status: ('A' for Active; 'I' for Inactive)
REMARK    1  A    between atoms: C_5  and  O_22 
REMARK    2  A    between atoms: C_18  and  O_20 
ROOT
HETATM    1  C   UNK N   1      27.053  24.336  -3.624  0.00  0.00     0.020 C 
HETATM    2  C   UNK N   1      27.462  25.272  -4.756  0.00  0.00    -0.017 C 
HETATM    3  C   UNK N   1      27.027  26.680  -4.309  0.00  0.00     0.017 C 
HETATM    4  C   UNK N   1      26.742  27.604  -5.484  0.00  0.00     0.037 C 
HETATM    5  C   UNK N   1      25.617  27.010  -6.327  0.00  0.00     0.141 C 
HETATM    6  C   UNK N   1      25.930  25.597  -6.731  0.00  0.00     0.008 C 
HETATM    7  C   UNK N   1      26.770  24.813  -6.029  0.00  0.00    -0.072 C 
HETATM    8  C   UNK N   1      27.120  23.462  -6.562  0.00  0.00     0.035 C 
HETATM    9  C   UNK N   1      28.623  23.441  -6.842  0.00  0.00     0.010 C 
HETATM   10  C   UNK N   1      29.464  23.838  -5.615  0.00  0.00    -0.004 C 
HETATM   11  C   UNK N   1      28.997  25.201  -5.011  0.00  0.00     0.002 C 
HETATM   12  C   UNK N   1      29.779  25.585  -3.732  0.00  0.00     0.007 C 
HETATM   13  C   UNK N   1      30.881  24.592  -3.355  0.00  0.00     0.013 C 
HETATM   14  C   UNK N   1      30.390  23.129  -3.342  0.00  0.00    -0.009 C 
HETATM   15  C   UNK N   1      29.476  22.762  -4.523  0.00  0.00     0.001 C 
HETATM   16  C   UNK N   1      29.904  21.366  -4.988  0.00  0.00     0.009 C 
HETATM   17  C   UNK N   1      30.878  20.864  -3.925  0.00  0.00     0.038 C 
HETATM   18  C   UNK N   1      31.558  22.129  -3.445  0.00  0.00     0.062 C 
HETATM   19  C   UNK N   1      32.599  22.533  -4.491  0.00  0.00     0.046 C 
HETATM   20  C   UNK N   1      29.575  22.876  -2.075  0.00  0.00     0.018 C 
ENDROOT
BRANCH  18  21
HETATM   21  O   UNK N   1      32.200  21.939  -2.220  0.00  0.00    -0.389 OA
HETATM   22  H   UNK N   1      31.780  21.578  -1.424  0.00  0.00     0.210 HD
ENDBRANCH  18  21
BRANCH   5  23
HETATM   23  O   UNK N   1      24.403  27.051  -5.638  0.00  0.00    -0.392 OA
HETATM   24  H   UNK N   1      23.438  26.945  -5.672  0.00  0.00     0.210 HD
ENDBRANCH   5  23
TORSDOF 2
ENDMDL
MODEL 2
REMARK VINA RESULT:      -7.1     21.488     24.917
REMARK  2 active torsions:
REMARK  status: ('A' for Active; 'I' for Inactive)
REMARK    1  A    between atoms: C_5  and  O_22 
REMARK    2  A    between atoms: C_18  and  O_20 
ROOT
HETATM    1  C   UNK N   1      34.206  10.613  15.574  0.00  0.00     0.020 C 
HETATM    2  C   UNK N   1      35.480  10.825  16.384  0.00  0.00    -0.017 C 
HETATM    3  C   UNK N   1      35.691   9.521  17.176  0.00  0.00     0.017 C 
HETATM    4  C   UNK N   1      36.464   9.740  18.468  0.00  0.00     0.037 C 
HETATM    5  C   UNK N   1      35.689  10.710  19.357  0.00  0.00     0.141 C 
HETATM    6  C   UNK N   1      35.367  11.979  18.622  0.00  0.00     0.008 C 
HETATM    7  C   UNK N   1      35.281  12.037  17.280  0.00  0.00    -0.072 C 
HETATM    8  C   UNK N   1      35.074  13.361  16.621  0.00  0.00     0.035 C 
HETATM    9  C   UNK N   1      36.296  13.650  15.748  0.00  0.00     0.010 C 
HETATM   10  C   UNK N   1      36.593  12.521  14.744  0.00  0.00    -0.004 C 
HETATM   11  C   UNK N   1      36.689  11.131  15.452  0.00  0.00     0.002 C 
HETATM   12  C   UNK N   1      36.913   9.970  14.454  0.00  0.00     0.007 C 
HETATM   13  C   UNK N   1      37.054  10.420  12.997  0.00  0.00     0.013 C 
HETATM   14  C   UNK N   1      35.930  11.381  12.557  0.00  0.00    -0.009 C 
HETATM   15  C   UNK N   1      35.575  12.453  13.601  0.00  0.00     0.001 C 
HETATM   16  C   UNK N   1      35.373  13.762  12.829  0.00  0.00     0.009 C 
HETATM   17  C   UNK N   1      35.376  13.370  11.355  0.00  0.00     0.038 C 
HETATM   18  C   UNK N   1      36.324  12.190  11.305  0.00  0.00     0.062 C 
HETATM   19  C   UNK N   1      37.754  12.730  11.368  0.00  0.00     0.046 C 
HETATM   20  C   UNK N   1      34.650  10.587  12.304  0.00  0.00     0.018 C 
ENDROOT
BRANCH  18  21
HETATM   21  O   UNK N   1      36.172  11.453  10.130  0.00  0.00    -0.389 OA
HETATM   22  H   UNK N   1      36.672  11.601   9.313  0.00  0.00     0.210 HD
ENDBRANCH  18  21
BRANCH   5  23
HETATM   23  O   UNK N   1      34.514  10.121  19.831  0.00  0.00    -0.392 OA
HETATM   24  H   UNK N   1      33.910   9.986  20.578  0.00  0.00     0.210 HD
ENDBRANCH   5  23
TORSDOF 2
ENDMDL
MODEL 3
REMARK VINA RESULT:      -6.8     15.223     17.843
REMARK  2 active torsions:
REMARK  status: ('A' for Active; 'I' for Inactive)
REMARK    1  A    between atoms: C_5  and  O_22 
REMARK    2  A    between atoms: C_18  and  O_20 
ROOT
HETATM    1  C   UNK N   1      21.340  12.390   7.188  0.00  0.00     0.020 C 
HETATM    2  C   UNK N   1      22.264  13.168   8.120  0.00  0.00    -0.017 C 
HETATM    3  C   UNK N   1      23.474  12.250   8.368  0.00  0.00     0.017 C 
HETATM    4  C   UNK N   1      24.149  12.520   9.704  0.00  0.00     0.037 C 
HETATM    5  C   UNK N   1      23.144  12.286  10.829  0.00  0.00     0.141 C 
HETATM    6  C   UNK N   1      21.891  13.086  10.611  0.00  0.00     0.008 C 
HETATM    7  C   UNK N   1      21.496  13.494   9.391  0.00  0.00    -0.072 C 
HETATM    8  C   UNK N   1      20.303  14.385   9.273  0.00  0.00     0.035 C 
HETATM    9  C   UNK N   1      20.765  15.717   8.680  0.00  0.00     0.010 C 
HETATM   10  C   UNK N   1      21.521  15.547   7.349  0.00  0.00    -0.004 C 
HETATM   11  C   UNK N   1      22.692  14.520   7.477  0.00  0.00     0.002 C 
HETATM   12  C   UNK N   1      23.420  14.277   6.134  0.00  0.00     0.007 C 
HETATM   13  C   UNK N   1      22.890  15.127   4.976  0.00  0.00     0.013 C 
HETATM   14  C   UNK N   1      21.353  15.070   4.846  0.00  0.00    -0.009 C 
HETATM   15  C   UNK N   1      20.606  15.149   6.187  0.00  0.00     0.001 C 
HETATM   16  C   UNK N   1      19.402  16.070   5.960  0.00  0.00     0.009 C 
HETATM   17  C   UNK N   1      19.345  16.303   4.453  0.00  0.00     0.038 C 
HETATM   18  C   UNK N   1      20.800  16.258   4.035  0.00  0.00     0.062 C 
HETATM   19  C   UNK N   1      21.444  17.593   4.417  0.00  0.00     0.046 C 
HETATM   20  C   UNK N   1      20.946  13.744   4.205  0.00  0.00     0.018 C 
ENDROOT
BRANCH  18  21
HETATM   21  O   UNK N   1      20.938  16.068   2.659  0.00  0.00    -0.389 OA
HETATM   22  H   UNK N   1      21.747  16.241   2.153  0.00  0.00     0.210 HD
ENDBRANCH  18  21
BRANCH   5  23
HETATM   23  O   UNK N   1      22.831  10.930  10.944  0.00  0.00    -0.392 OA
HETATM   24  H   UNK N   1      22.507  10.210  11.508  0.00  0.00     0.210 HD
ENDBRANCH   5  23
TORSDOF 2
ENDMDL
MODEL 4
REMARK VINA RESULT:      -6.8     11.425     13.632
REMARK  2 active torsions:
REMARK  status: ('A' for Active; 'I' for Inactive)
REMARK    1  A    between atoms: C_5  and  O_22 
REMARK    2  A    between atoms: C_18  and  O_20 
ROOT
HETATM    1  C   UNK N   1      30.307  14.675   5.789  0.00  0.00     0.020 C 
HETATM    2  C   UNK N   1      29.850  15.977   5.139  0.00  0.00    -0.017 C 
HETATM    3  C   UNK N   1      28.321  16.017   5.319  0.00  0.00     0.017 C 
HETATM    4  C   UNK N   1      27.627  16.829   4.237  0.00  0.00     0.037 C 
HETATM    5  C   UNK N   1      27.923  16.207   2.874  0.00  0.00     0.141 C 
HETATM    6  C   UNK N   1      29.402  16.052   2.660  0.00  0.00     0.008 C 
HETATM    7  C   UNK N   1      30.276  15.958   3.680  0.00  0.00    -0.072 C 
HETATM    8  C   UNK N   1      31.739  15.926   3.384  0.00  0.00     0.035 C 
HETATM    9  C   UNK N   1      32.376  17.164   4.016  0.00  0.00     0.010 C 
HETATM   10  C   UNK N   1      32.071  17.290   5.520  0.00  0.00    -0.004 C 
HETATM   11  C   UNK N   1      30.537  17.204   5.807  0.00  0.00     0.002 C 
HETATM   12  C   UNK N   1      30.212  17.254   7.319  0.00  0.00     0.007 C 
HETATM   13  C   UNK N   1      31.441  17.435   8.215  0.00  0.00     0.013 C 
HETATM   14  C   UNK N   1      32.578  16.449   7.877  0.00  0.00    -0.009 C 
HETATM   15  C   UNK N   1      32.819  16.258   6.371  0.00  0.00     0.001 C 
HETATM   16  C   UNK N   1      34.338  16.228   6.172  0.00  0.00     0.009 C 
HETATM   17  C   UNK N   1      34.930  16.157   7.577  0.00  0.00     0.038 C 
HETATM   18  C   UNK N   1      33.938  16.934   8.417  0.00  0.00     0.062 C 
HETATM   19  C   UNK N   1      34.179  18.425   8.176  0.00  0.00     0.046 C 
HETATM   20  C   UNK N   1      32.238  15.068   8.436  0.00  0.00     0.018 C 
ENDROOT
BRANCH  18  21
HETATM   21  O   UNK N   1      34.091  16.666   9.779  0.00  0.00    -0.389 OA
HETATM   22  H   UNK N   1      34.046  15.783  10.179  0.00  0.00     0.210 HD
ENDBRANCH  18  21
BRANCH   5  23
HETATM   23  O   UNK N   1      27.290  14.969   2.744  0.00  0.00    -0.392 OA
HETATM   24  H   UNK N   1      26.766  14.269   3.166  0.00  0.00     0.210 HD
ENDBRANCH   5  23
TORSDOF 2
ENDMDL
MODEL 5
REMARK VINA RESULT:      -6.7      3.322      5.552
REMARK  2 active torsions:
REMARK  status: ('A' for Active; 'I' for Inactive)
REMARK    1  A    between atoms: C_5  and  O_22 
REMARK    2  A    between atoms: C_18  and  O_20 
ROOT
HETATM    1  C   UNK N   1      28.005  24.131  -6.582  0.00  0.00     0.020 C 
HETATM    2  C   UNK N   1      26.500  23.952  -6.757  0.00  0.00    -0.017 C 
HETATM    3  C   UNK N   1      26.201  22.505  -6.325  0.00  0.00     0.017 C 
HETATM    4  C   UNK N   1      24.967  21.934  -7.007  0.00  0.00     0.037 C 
HETATM    5  C   UNK N   1      25.184  21.937  -8.519  0.00  0.00     0.141 C 
HETATM    6  C   UNK N   1      25.568  23.305  -9.008  0.00  0.00     0.008 C 
HETATM    7  C   UNK N   1      26.153  24.220  -8.213  0.00  0.00    -0.072 C 
HETATM    8  C   UNK N   1      26.395  25.595  -8.742  0.00  0.00     0.035 C 
HETATM    9  C   UNK N   1      25.575  26.575  -7.903  0.00  0.00     0.010 C 
HETATM   10  C   UNK N   1      25.861  26.454  -6.395  0.00  0.00    -0.004 C 
HETATM   11  C   UNK N   1      25.712  24.981  -5.895  0.00  0.00     0.002 C 
HETATM   12  C   UNK N   1      26.067  24.823  -4.398  0.00  0.00     0.007 C 
HETATM   13  C   UNK N   1      26.432  26.137  -3.702  0.00  0.00     0.013 C 
HETATM   14  C   UNK N   1      27.479  26.958  -4.483  0.00  0.00    -0.009 C 
HETATM   15  C   UNK N   1      27.238  27.000  -6.001  0.00  0.00     0.001 C 
HETATM   16  C   UNK N   1      27.521  28.439  -6.447  0.00  0.00     0.009 C 
HETATM   17  C   UNK N   1      28.145  29.125  -5.235  0.00  0.00     0.038 C 
HETATM   18  C   UNK N   1      27.479  28.440  -4.060  0.00  0.00     0.062 C 
HETATM   19  C   UNK N   1      26.071  29.019  -3.911  0.00  0.00     0.046 C 
HETATM   20  C   UNK N   1      28.862  26.340  -4.285  0.00  0.00     0.018 C 
ENDROOT
BRANCH  18  21
HETATM   21  O   UNK N   1      28.182  28.650  -2.873  0.00  0.00    -0.389 OA
HETATM   22  H   UNK N   1      28.500  29.511  -2.561  0.00  0.00     0.210 HD
ENDBRANCH  18  21
BRANCH   5  23
HETATM   23  O   UNK N   1      26.160  21.008  -8.884  0.00  0.00    -0.392 OA
HETATM   24  H   UNK N   1      26.714  20.637  -9.590  0.00  0.00     0.210 HD
ENDBRANCH   5  23
TORSDOF 2
ENDMDL
MODEL 6
REMARK VINA RESULT:      -6.7     22.348     25.525
REMARK  2 active torsions:
REMARK  status: ('A' for Active; 'I' for Inactive)
REMARK    1  A    between atoms: C_5  and  O_22 
REMARK    2  A    between atoms: C_18  and  O_20 
ROOT
HETATM    1  C   UNK N   1      37.647  11.333  14.789  0.00  0.00     0.020 C 
HETATM    2  C   UNK N   1      36.316  11.829  14.233  0.00  0.00    -0.017 C 
HETATM    3  C   UNK N   1      36.353  11.515  12.726  0.00  0.00     0.017 C 
HETATM    4  C   UNK N   1      35.484  12.462  11.911  0.00  0.00     0.037 C 
HETATM    5  C   UNK N   1      35.981  13.892  12.106  0.00  0.00     0.141 C 
HETATM    6  C   UNK N   1      36.057  14.245  13.564  0.00  0.00     0.008 C 
HETATM    7  C   UNK N   1      36.199  13.315  14.527  0.00  0.00    -0.072 C 
HETATM    8  C   UNK N   1      36.148  13.738  15.959  0.00  0.00     0.035 C 
HETATM    9  C   UNK N   1      34.940  13.061  16.608  0.00  0.00     0.010 C 
HETATM   10  C   UNK N   1      34.949  11.531  16.434  0.00  0.00    -0.004 C 
HETATM   11  C   UNK N   1      35.121  11.121  14.936  0.00  0.00     0.002 C 
HETATM   12  C   UNK N   1      35.207   9.588  14.745  0.00  0.00     0.007 C 
HETATM   13  C   UNK N   1      35.050   8.789  16.041  0.00  0.00     0.013 C 
HETATM   14  C   UNK N   1      35.958   9.305  17.177  0.00  0.00    -0.009 C 
HETATM   15  C   UNK N   1      36.016  10.837  17.288  0.00  0.00     0.001 C 
HETATM   16  C   UNK N   1      35.968  11.168  18.784  0.00  0.00     0.009 C 
HETATM   17  C   UNK N   1      36.129   9.830  19.501  0.00  0.00     0.038 C 
HETATM   18  C   UNK N   1      35.464   8.845  18.562  0.00  0.00     0.062 C 
HETATM   19  C   UNK N   1      33.950   8.979  18.731  0.00  0.00     0.046 C 
HETATM   20  C   UNK N   1      37.393   8.839  16.934  0.00  0.00     0.018 C 
ENDROOT
BRANCH  18  21
HETATM   21  O   UNK N   1      35.835   7.529  18.845  0.00  0.00    -0.389 OA
HETATM   22  H   UNK N   1      36.201   6.904  18.199  0.00  0.00     0.210 HD
ENDBRANCH  18  21
BRANCH   5  23
HETATM   23  O   UNK N   1      37.229  14.072  11.505  0.00  0.00    -0.392 OA
HETATM   24  H   UNK N   1      38.019  13.660  11.120  0.00  0.00     0.210 HD
ENDBRANCH   5  23
TORSDOF 2
ENDMDL
MODEL 7
REMARK VINA RESULT:      -6.6      1.251      5.972
REMARK  2 active torsions:
REMARK  status: ('A' for Active; 'I' for Inactive)
REMARK    1  A    between atoms: C_5  and  O_22 
REMARK    2  A    between atoms: C_18  and  O_20 
ROOT
HETATM    1  C   UNK N   1      30.290  25.216  -3.686  0.00  0.00     0.020 C 
HETATM    2  C   UNK N   1      29.783  23.861  -4.172  0.00  0.00    -0.017 C 
HETATM    3  C   UNK N   1      30.040  22.881  -3.013  0.00  0.00     0.017 C 
HETATM    4  C   UNK N   1      30.224  21.448  -3.489  0.00  0.00     0.037 C 
HETATM    5  C   UNK N   1      31.423  21.384  -4.433  0.00  0.00     0.141 C 
HETATM    6  C   UNK N   1      31.287  22.380  -5.549  0.00  0.00     0.008 C 
HETATM    7  C   UNK N   1      30.540  23.495  -5.438  0.00  0.00    -0.072 C 
HETATM    8  C   UNK N   1      30.361  24.373  -6.633  0.00  0.00     0.035 C 
HETATM    9  C   UNK N   1      28.875  24.385  -6.992  0.00  0.00     0.010 C 
HETATM   10  C   UNK N   1      27.979  24.793  -5.809  0.00  0.00    -0.004 C 
HETATM   11  C   UNK N   1      28.271  23.931  -4.539  0.00  0.00     0.002 C 
HETATM   12  C   UNK N   1      27.434  24.372  -3.315  0.00  0.00     0.007 C 
HETATM   13  C   UNK N   1      26.456  25.513  -3.608  0.00  0.00     0.013 C 
HETATM   14  C   UNK N   1      27.120  26.698  -4.340  0.00  0.00    -0.009 C 
HETATM   15  C   UNK N   1      28.085  26.282  -5.463  0.00  0.00     0.001 C 
HETATM   16  C   UNK N   1      27.833  27.242  -6.631  0.00  0.00     0.009 C 
HETATM   17  C   UNK N   1      26.916  28.328  -6.075  0.00  0.00     0.038 C 
HETATM   18  C   UNK N   1      26.082  27.591  -5.047  0.00  0.00     0.062 C 
HETATM   19  C   UNK N   1      25.012  26.790  -5.791  0.00  0.00     0.046 C 
HETATM   20  C   UNK N   1      27.946  27.513  -3.346  0.00  0.00     0.018 C 
ENDROOT
BRANCH  18  21
HETATM   21  O   UNK N   1      25.455  28.471  -4.164  0.00  0.00    -0.389 OA
HETATM   22  H   UNK N   1      25.591  29.432  -4.146  0.00  0.00     0.210 HD
ENDBRANCH  18  21
BRANCH   5  23
HETATM   23  O   UNK N   1      32.615  21.604  -3.740  0.00  0.00    -0.392 OA
HETATM   24  H   UNK N   1      33.548  21.869  -3.780  0.00  0.00     0.210 HD
ENDBRANCH   5  23
TORSDOF 2
ENDMDL
MODEL 8
REMARK VINA RESULT:      -6.5     11.783     14.146
REMARK  2 active torsions:
REMARK  status: ('A' for Active; 'I' for Inactive)
REMARK    1  A    between atoms: C_5  and  O_22 
REMARK    2  A    between atoms: C_18  and  O_20 
ROOT
HETATM    1  C   UNK N   1      30.829  14.948   5.903  0.00  0.00     0.020 C 
HETATM    2  C   UNK N   1      31.217  16.412   5.720  0.00  0.00    -0.017 C 
HETATM    3  C   UNK N   1      32.469  16.402   4.824  0.00  0.00     0.017 C 
HETATM    4  C   UNK N   1      33.359  17.614   5.051  0.00  0.00     0.037 C 
HETATM    5  C   UNK N   1      33.823  17.630   6.505  0.00  0.00     0.141 C 
HETATM    6  C   UNK N   1      32.656  17.554   7.447  0.00  0.00     0.008 C 
HETATM    7  C   UNK N   1      31.475  17.013   7.093  0.00  0.00    -0.072 C 
HETATM    8  C   UNK N   1      30.328  17.082   8.047  0.00  0.00     0.035 C 
HETATM    9  C   UNK N   1      29.223  17.916   7.398  0.00  0.00     0.010 C 
HETATM   10  C   UNK N   1      28.816  17.390   6.009  0.00  0.00    -0.004 C 
HETATM   11  C   UNK N   1      30.054  17.220   5.071  0.00  0.00     0.002 C 
HETATM   12  C   UNK N   1      29.679  16.622   3.694  0.00  0.00     0.007 C 
HETATM   13  C   UNK N   1      28.180  16.377   3.509  0.00  0.00     0.013 C 
HETATM   14  C   UNK N   1      27.549  15.609   4.689  0.00  0.00    -0.009 C 
HETATM   15  C   UNK N   1      28.027  16.078   6.073  0.00  0.00     0.001 C 
HETATM   16  C   UNK N   1      26.789  16.106   6.976  0.00  0.00     0.009 C 
HETATM   17  C   UNK N   1      25.684  15.427   6.171  0.00  0.00     0.038 C 
HETATM   18  C   UNK N   1      26.019  15.788   4.739  0.00  0.00     0.062 C 
HETATM   19  C   UNK N   1      25.578  17.233   4.500  0.00  0.00     0.046 C 
HETATM   20  C   UNK N   1      27.916  14.129   4.588  0.00  0.00     0.018 C 
ENDROOT
BRANCH  18  21
HETATM   21  O   UNK N   1      25.360  14.958   3.830  0.00  0.00    -0.389 OA
HETATM   22  H   UNK N   1      25.787  14.494   3.092  0.00  0.00     0.210 HD
ENDBRANCH  18  21
BRANCH   5  23
HETATM   23  O   UNK N   1      34.710  16.581   6.757  0.00  0.00    -0.392 OA
HETATM   24  H   UNK N   1      35.340  16.172   7.372  0.00  0.00     0.210 HD
ENDBRANCH   5  23
TORSDOF 2
ENDMDL
MODEL 9
REMARK VINA RESULT:      -6.5     12.992     14.738
REMARK  2 active torsions:
REMARK  status: ('A' for Active; 'I' for Inactive)
REMARK    1  A    between atoms: C_5  and  O_22 
REMARK    2  A    between atoms: C_18  and  O_20 
ROOT
HETATM    1  C   UNK N   1      21.453  16.206   2.787  0.00  0.00     0.020 C 
HETATM    2  C   UNK N   1      20.792  17.440   3.394  0.00  0.00    -0.017 C 
HETATM    3  C   UNK N   1      19.656  17.821   2.427  0.00  0.00     0.017 C 
HETATM    4  C   UNK N   1      19.322  19.304   2.474  0.00  0.00     0.037 C 
HETATM    5  C   UNK N   1      20.560  20.109   2.085  0.00  0.00     0.141 C 
HETATM    6  C   UNK N   1      21.741  19.728   2.931  0.00  0.00     0.008 C 
HETATM    7  C   UNK N   1      21.845  18.528   3.531  0.00  0.00    -0.072 C 
HETATM    8  C   UNK N   1      22.993  18.270   4.451  0.00  0.00     0.035 C 
HETATM    9  C   UNK N   1      22.430  18.019   5.850  0.00  0.00     0.010 C 
HETATM   10  C   UNK N   1      21.378  16.895   5.877  0.00  0.00    -0.004 C 
HETATM   11  C   UNK N   1      20.250  17.136   4.822  0.00  0.00     0.002 C 
HETATM   12  C   UNK N   1      19.220  15.981   4.779  0.00  0.00     0.007 C 
HETATM   13  C   UNK N   1      19.479  14.878   5.808  0.00  0.00     0.013 C 
HETATM   14  C   UNK N   1      20.939  14.380   5.799  0.00  0.00    -0.009 C 
HETATM   15  C   UNK N   1      21.984  15.502   5.681  0.00  0.00     0.001 C 
HETATM   16  C   UNK N   1      23.119  15.143   6.648  0.00  0.00     0.009 C 
HETATM   17  C   UNK N   1      22.821  13.720   7.113  0.00  0.00     0.038 C 
HETATM   18  C   UNK N   1      21.308  13.657   7.108  0.00  0.00     0.062 C 
HETATM   19  C   UNK N   1      20.800  14.383   8.356  0.00  0.00     0.046 C 
HETATM   20  C   UNK N   1      21.157  13.463   4.596  0.00  0.00     0.018 C 
ENDROOT
BRANCH  18  21
HETATM   21  O   UNK N   1      20.846  12.340   7.133  0.00  0.00    -0.389 OA
HETATM   22  H   UNK N   1      21.408  11.553   7.059  0.00  0.00     0.210 HD
ENDBRANCH  18  21
BRANCH   5  23
HETATM   23  O   UNK N   1      20.864  19.934   0.734  0.00  0.00    -0.392 OA
HETATM   24  H   UNK N   1      20.882  20.318  -0.158  0.00  0.00     0.210 HD
ENDBRANCH   5  23
TORSDOF 2
ENDMDL
