MODEL 1
REMARK VINA RESULT:      -9.3      0.000      0.000
REMARK  12 active torsions:
REMARK  status: ('A' for Active; 'I' for Inactive)
REMARK    1  A    between atoms: C_40  and  C_7 
REMARK    2  A    between atoms: C_24  and  N_41 
REMARK    3  A    between atoms: O_43  and  C_26 
REMARK    4  A    between atoms: C_27  and  O_44 
REMARK    5  A    between atoms: C_28  and  O_52 
REMARK    6  A    between atoms: C_29  and  O_53 
REMARK    7  A    between atoms: C_30  and  O_52 
REMARK    8  A    between atoms: C_31  and  O_54 
REMARK    9  A    between atoms: O_46  and  C_36 
REMARK   10  A    between atoms: C_38  and  O_54 
REMARK   11  A    between atoms: C_39  and  O_53 
REMARK   12  A    between atoms: C_40  and  O_48 
ROOT
HETATM    1  C   UNK N   1      36.494  14.816  11.017  0.00  0.00     0.042 C 
HETATM    2  C   UNK N   1      37.858  12.701   9.769  0.00  0.00     0.099 C 
HETATM    3  C   UNK N   1      35.782  14.360   9.737  0.00  0.00     0.151 C 
HETATM    4  C   UNK N   1      37.973  13.857   8.692  0.00  0.00     0.258 C 
HETATM    5  C   UNK N   1      36.426  12.105   9.940  0.00  0.00     0.263 C 
HETATM    6  C   UNK N   1      36.627  14.688   8.498  0.00  0.00     0.186 C 
HETATM    7  O   UNK N   1      35.412  13.000   9.566  0.00  0.00    -0.354 OA
ENDROOT
BRANCH   5   8
HETATM    8  O   UNK N   1      36.152  11.551  11.230  0.00  0.00    -0.351 OA
BRANCH   8   9
HETATM    9  C   UNK N   1      35.507  10.255  11.241  0.00  0.00     0.163 C 
HETATM   10  C   UNK N   1      36.442   9.230  10.601  0.00  0.00     0.075 C 
HETATM   11  C   UNK N   1      35.970   7.779  10.757  0.00  0.00     0.064 C 
HETATM   12  C   UNK N   1      35.737   7.442  12.243  0.00  0.00     0.077 C 
HETATM   13  C   UNK N   1      35.373   8.597  13.150  0.00  0.00    -0.043 C 
HETATM   14  C   UNK N   1      35.324   8.380  14.528  0.00  0.00     0.024 C 
HETATM   15  C   UNK N   1      35.186   9.907  12.659  0.00  0.00     0.011 C 
HETATM   16  C   UNK N   1      35.106   9.448  15.412  0.00  0.00     0.032 C 
HETATM   17  C   UNK N   1      34.802  10.729  14.907  0.00  0.00     0.063 C 
HETATM   18  C   UNK N   1      35.320   9.278  16.861  0.00  0.00     0.194 C 
HETATM   19  C   UNK N   1      34.808  10.935  13.536  0.00  0.00     0.090 C 
HETATM   20  C   UNK N   1      34.632  11.879  15.827  0.00  0.00     0.199 C 
HETATM   21  C   UNK N   1      35.023  11.749  17.239  0.00  0.00     0.062 A 
HETATM   22  O   UNK N   1      34.272  12.972  15.395  0.00  0.00    -0.286 OA
HETATM   23  C   UNK N   1      35.359  10.470  17.746  0.00  0.00     0.032 A 
HETATM   24  C   UNK N   1      35.115  12.878  18.083  0.00  0.00     0.080 A 
HETATM   25  C   UNK N   1      35.772  10.345  19.075  0.00  0.00     0.017 A 
HETATM   26  C   UNK N   1      35.862  11.468  19.898  0.00  0.00     0.004 A 
HETATM   27  C   UNK N   1      35.537  12.730  19.401  0.00  0.00     0.037 A 
HETATM   28  O   UNK N   1      35.593   8.169  17.312  0.00  0.00    -0.287 OA
BRANCH  11  29
HETATM   29  C   UNK N   1      34.774   7.423   9.849  0.00  0.00     0.034 C 
HETATM   30  C   UNK N   1      33.520   6.903  10.532  0.00  0.00     0.008 C 
ENDBRANCH  11  29
BRANCH  11  31
HETATM   31  O   UNK N   1      37.019   6.970  10.327  0.00  0.00    -0.389 OA
HETATM   32  H   UNK N   1      37.925   6.739  10.587  0.00  0.00     0.210 HD
ENDBRANCH  11  31
BRANCH  19  33
HETATM   33  O   UNK N   1      34.552  12.169  13.062  0.00  0.00    -0.359 OA
HETATM   34  H   UNK N   1      34.697  12.363  12.157  0.00  0.00     0.217 HD
ENDBRANCH  19  33
BRANCH  24  35
HETATM   35  O   UNK N   1      34.827  14.114  17.628  0.00  0.00    -0.360 OA
HETATM   36  H   UNK N   1      33.966  14.309  17.313  0.00  0.00     0.217 HD
ENDBRANCH  24  35
ENDBRANCH   8   9
ENDBRANCH   5   8
BRANCH   4  37
HETATM   37  N   UNK N   1      38.538  13.337   7.429  0.00  0.00     0.087 N 
HETATM   38  C   UNK N   1      39.596  14.208   6.934  0.00  0.00     0.310 C 
HETATM   39  C   UNK N   1      39.173  12.044   7.667  0.00  0.00     0.310 C 
ENDBRANCH   4  37
BRANCH   6  40
HETATM   40  O   UNK N   1      36.010  14.319   7.256  0.00  0.00    -0.351 OA
BRANCH  40  41
HETATM   41  C   UNK N   1      34.782  14.955   6.887  0.00  0.00     0.263 C 
HETATM   42  C   UNK N   1      33.867  14.080   6.019  0.00  0.00     0.095 C 
HETATM   43  C   UNK N   1      32.786  14.971   5.331  0.00  0.00     0.154 C 
HETATM   44  C   UNK N   1      32.501  16.219   6.243  0.00  0.00     0.182 C 
HETATM   45  C   UNK N   1      33.819  17.009   6.249  0.00  0.00     0.152 C 
HETATM   46  C   UNK N   1      33.944  17.962   7.429  0.00  0.00     0.042 C 
HETATM   47  O   UNK N   1      34.937  16.152   6.174  0.00  0.00    -0.354 OA
BRANCH  43  48
HETATM   48  O   UNK N   1      31.671  14.179   5.088  0.00  0.00    -0.393 OA
HETATM   49  H   UNK N   1      31.654  13.589   4.319  0.00  0.00     0.210 HD
ENDBRANCH  43  48
BRANCH  44  50
HETATM   50  O   UNK N   1      31.461  17.102   5.847  0.00  0.00    -0.351 OA
BRANCH  50  51
HETATM   51  C   UNK N   1      30.368  17.062   6.740  0.00  0.00     0.261 C 
HETATM   52  C   UNK N   1      29.085  17.478   6.042  0.00  0.00     0.068 C 
HETATM   53  C   UNK N   1      27.900  17.312   7.007  0.00  0.00     0.086 C 
HETATM   54  C   UNK N   1      28.290  17.304   8.472  0.00  0.00     0.155 C 
HETATM   55  C   UNK N   1      29.713  17.590   8.905  0.00  0.00     0.190 C 
HETATM   56  O   UNK N   1      27.461  16.990   9.308  0.00  0.00    -0.295 OA
HETATM   57  C   UNK N   1      29.730  18.727   9.909  0.00  0.00     0.048 C 
HETATM   58  O   UNK N   1      30.532  17.964   7.822  0.00  0.00    -0.349 OA
ENDBRANCH  50  51
ENDBRANCH  44  50
ENDBRANCH  40  41
ENDBRANCH   6  40
TORSDOF 12
ENDMDL
MODEL 2
REMARK VINA RESULT:      -8.8     10.264     15.053
REMARK  12 active torsions:
REMARK  status: ('A' for Active; 'I' for Inactive)
REMARK    1  A    between atoms: C_40  and  C_7 
REMARK    2  A    between atoms: C_24  and  N_41 
REMARK    3  A    between atoms: O_43  and  C_26 
REMARK    4  A    between atoms: C_27  and  O_44 
REMARK    5  A    between atoms: C_28  and  O_52 
REMARK    6  A    between atoms: C_29  and  O_53 
REMARK    7  A    between atoms: C_30  and  O_52 
REMARK    8  A    between atoms: C_31  and  O_54 
REMARK    9  A    between atoms: O_46  and  C_36 
REMARK   10  A    between atoms: C_38  and  O_54 
REMARK   11  A    between atoms: C_39  and  O_53 
REMARK   12  A    between atoms: C_40  and  O_48 
ROOT
HETATM    1  C   UNK N   1      24.289  12.125   0.382  0.00  0.00     0.042 C 
HETATM    2  C   UNK N   1      26.864  11.755   1.442  0.00  0.00     0.099 C 
HETATM    3  C   UNK N   1      24.241  11.501   1.782  0.00  0.00     0.151 C 
HETATM    4  C   UNK N   1      26.337  10.266   1.310  0.00  0.00     0.258 C 
HETATM    5  C   UNK N   1      26.174  12.597   2.559  0.00  0.00     0.263 C 
HETATM    6  C   UNK N   1      24.821  10.080   1.766  0.00  0.00     0.186 C 
HETATM    7  O   UNK N   1      24.886  12.137   2.875  0.00  0.00    -0.354 OA
ENDROOT
BRANCH   5   8
HETATM    8  O   UNK N   1      26.156  14.009   2.328  0.00  0.00    -0.351 OA
BRANCH   8   9
HETATM    9  C   UNK N   1      26.923  14.814   3.256  0.00  0.00     0.163 C 
HETATM   10  C   UNK N   1      28.223  15.246   2.581  0.00  0.00     0.075 C 
HETATM   11  C   UNK N   1      29.016  16.290   3.377  0.00  0.00     0.064 C 
HETATM   12  C   UNK N   1      28.137  17.517   3.689  0.00  0.00     0.077 C 
HETATM   13  C   UNK N   1      26.646  17.275   3.779  0.00  0.00    -0.043 C 
HETATM   14  C   UNK N   1      25.792  18.375   3.884  0.00  0.00     0.024 C 
HETATM   15  C   UNK N   1      26.085  15.986   3.656  0.00  0.00     0.011 C 
HETATM   16  C   UNK N   1      24.399  18.203   3.854  0.00  0.00     0.032 C 
HETATM   17  C   UNK N   1      23.851  16.905   3.850  0.00  0.00     0.063 C 
HETATM   18  C   UNK N   1      23.505  19.364   3.692  0.00  0.00     0.194 C 
HETATM   19  C   UNK N   1      24.700  15.811   3.789  0.00  0.00     0.090 C 
HETATM   20  C   UNK N   1      22.384  16.709   3.753  0.00  0.00     0.199 C 
HETATM   21  C   UNK N   1      21.516  17.845   3.409  0.00  0.00     0.062 A 
HETATM   22  O   UNK N   1      21.901  15.583   3.847  0.00  0.00    -0.286 OA
HETATM   23  C   UNK N   1      22.068  19.150   3.382  0.00  0.00     0.032 A 
HETATM   24  C   UNK N   1      20.160  17.656   3.062  0.00  0.00     0.080 A 
HETATM   25  C   UNK N   1      21.260  20.229   3.016  0.00  0.00     0.017 A 
HETATM   26  C   UNK N   1      19.923  20.029   2.672  0.00  0.00     0.004 A 
HETATM   27  C   UNK N   1      19.377  18.746   2.693  0.00  0.00     0.037 A 
HETATM   28  O   UNK N   1      23.972  20.499   3.685  0.00  0.00    -0.287 OA
BRANCH  11  29
HETATM   29  C   UNK N   1      29.723  15.706   4.618  0.00  0.00     0.034 C 
HETATM   30  C   UNK N   1      29.676  16.533   5.892  0.00  0.00     0.008 C 
ENDBRANCH  11  29
BRANCH  11  31
HETATM   31  O   UNK N   1      30.038  16.737   2.542  0.00  0.00    -0.389 OA
HETATM   32  H   UNK N   1      30.957  17.042   2.602  0.00  0.00     0.210 HD
ENDBRANCH  11  31
BRANCH  19  33
HETATM   33  O   UNK N   1      24.168  14.574   3.750  0.00  0.00    -0.359 OA
HETATM   34  H   UNK N   1      23.238  14.465   3.712  0.00  0.00     0.217 HD
ENDBRANCH  19  33
BRANCH  24  35
HETATM   35  O   UNK N   1      19.608  16.427   3.054  0.00  0.00    -0.360 OA
HETATM   36  H   UNK N   1      20.151  15.669   2.962  0.00  0.00     0.217 HD
ENDBRANCH  24  35
ENDBRANCH   8   9
ENDBRANCH   5   8
BRANCH   4  37
HETATM   37  N   UNK N   1      27.273   9.324   1.959  0.00  0.00     0.087 N 
HETATM   38  C   UNK N   1      27.435   8.117   1.160  0.00  0.00     0.310 C 
HETATM   39  C   UNK N   1      28.602   9.923   2.040  0.00  0.00     0.310 C 
ENDBRANCH   4  37
BRANCH   6  40
HETATM   40  O   UNK N   1      24.780   9.417   3.038  0.00  0.00    -0.351 OA
BRANCH  40  41
HETATM   41  C   UNK N   1      23.958   9.970   4.070  0.00  0.00     0.263 C 
HETATM   42  C   UNK N   1      24.397   9.581   5.489  0.00  0.00     0.095 C 
HETATM   43  C   UNK N   1      23.237   9.862   6.494  0.00  0.00     0.154 C 
HETATM   44  C   UNK N   1      22.367  11.050   5.946  0.00  0.00     0.182 C 
HETATM   45  C   UNK N   1      21.739  10.512   4.651  0.00  0.00     0.152 C 
HETATM   46  C   UNK N   1      21.272  11.610   3.707  0.00  0.00     0.042 C 
HETATM   47  O   UNK N   1      22.604   9.616   3.990  0.00  0.00    -0.354 OA
BRANCH  43  48
HETATM   48  O   UNK N   1      23.801  10.099   7.741  0.00  0.00    -0.393 OA
HETATM   49  H   UNK N   1      24.265   9.386   8.206  0.00  0.00     0.210 HD
ENDBRANCH  43  48
BRANCH  44  50
HETATM   50  O   UNK N   1      21.320  11.537   6.773  0.00  0.00    -0.351 OA
BRANCH  50  51
HETATM   51  C   UNK N   1      21.370  12.942   6.913  0.00  0.00     0.261 C 
HETATM   52  C   UNK N   1      22.803  13.417   7.077  0.00  0.00     0.068 C 
HETATM   53  C   UNK N   1      22.833  14.954   7.109  0.00  0.00     0.086 C 
HETATM   54  C   UNK N   1      21.512  15.591   7.494  0.00  0.00     0.155 C 
HETATM   55  C   UNK N   1      20.338  14.748   7.947  0.00  0.00     0.190 C 
HETATM   56  O   UNK N   1      21.371  16.795   7.367  0.00  0.00    -0.295 OA
HETATM   57  C   UNK N   1      19.851  15.222   9.303  0.00  0.00     0.048 C 
HETATM   58  O   UNK N   1      20.679  13.386   8.069  0.00  0.00    -0.349 OA
ENDBRANCH  50  51
ENDBRANCH  44  50
ENDBRANCH  40  41
ENDBRANCH   6  40
TORSDOF 12
ENDMDL
MODEL 3
REMARK VINA RESULT:      -8.7      2.193     10.474
REMARK  12 active torsions:
REMARK  status: ('A' for Active; 'I' for Inactive)
REMARK    1  A    between atoms: C_40  and  C_7 
REMARK    2  A    between atoms: C_24  and  N_41 
REMARK    3  A    between atoms: O_43  and  C_26 
REMARK    4  A    between atoms: C_27  and  O_44 
REMARK    5  A    between atoms: C_28  and  O_52 
REMARK    6  A    between atoms: C_29  and  O_53 
REMARK    7  A    between atoms: C_30  and  O_52 
REMARK    8  A    between atoms: C_31  and  O_54 
REMARK    9  A    between atoms: O_46  and  C_36 
REMARK   10  A    between atoms: C_38  and  O_54 
REMARK   11  A    between atoms: C_39  and  O_53 
REMARK   12  A    between atoms: C_40  and  O_48 
ROOT
HETATM    1  C   UNK N   1      34.486  15.368  10.040  0.00  0.00     0.042 C 
HETATM    2  C   UNK N   1      34.421  13.293   8.147  0.00  0.00     0.099 C 
HETATM    3  C   UNK N   1      35.578  14.324  10.306  0.00  0.00     0.151 C 
HETATM    4  C   UNK N   1      34.071  12.533   9.493  0.00  0.00     0.258 C 
HETATM    5  C   UNK N   1      35.898  13.784   8.037  0.00  0.00     0.263 C 
HETATM    6  C   UNK N   1      34.960  12.986  10.735  0.00  0.00     0.186 C 
HETATM    7  O   UNK N   1      36.505  13.979   9.288  0.00  0.00    -0.354 OA
ENDROOT
BRANCH   5   8
HETATM    8  O   UNK N   1      36.094  14.930   7.204  0.00  0.00    -0.351 OA
BRANCH   8   9
HETATM    9  C   UNK N   1      35.846  14.737   5.791  0.00  0.00     0.163 C 
HETATM   10  C   UNK N   1      36.086  13.269   5.440  0.00  0.00     0.075 C 
HETATM   11  C   UNK N   1      35.637  12.890   4.023  0.00  0.00     0.064 C 
HETATM   12  C   UNK N   1      34.156  13.260   3.806  0.00  0.00     0.077 C 
HETATM   13  C   UNK N   1      33.619  14.410   4.631  0.00  0.00    -0.043 C 
HETATM   14  C   UNK N   1      32.248  14.673   4.604  0.00  0.00     0.024 C 
HETATM   15  C   UNK N   1      34.439  15.156   5.505  0.00  0.00     0.011 C 
HETATM   16  C   UNK N   1      31.692  15.652   5.442  0.00  0.00     0.032 C 
HETATM   17  C   UNK N   1      32.533  16.471   6.222  0.00  0.00     0.063 C 
HETATM   18  C   UNK N   1      30.231  15.748   5.616  0.00  0.00     0.194 C 
HETATM   19  C   UNK N   1      33.900  16.238   6.215  0.00  0.00     0.090 C 
HETATM   20  C   UNK N   1      31.957  17.466   7.158  0.00  0.00     0.199 C 
HETATM   21  C   UNK N   1      30.519  17.433   7.464  0.00  0.00     0.062 A 
HETATM   22  O   UNK N   1      32.689  18.244   7.764  0.00  0.00    -0.286 OA
HETATM   23  C   UNK N   1      29.672  16.590   6.704  0.00  0.00     0.032 A 
HETATM   24  C   UNK N   1      29.976  18.188   8.528  0.00  0.00     0.080 A 
HETATM   25  C   UNK N   1      28.311  16.522   7.016  0.00  0.00     0.017 A 
HETATM   26  C   UNK N   1      27.788  17.269   8.071  0.00  0.00     0.004 A 
HETATM   27  C   UNK N   1      28.619  18.097   8.825  0.00  0.00     0.037 A 
HETATM   28  O   UNK N   1      29.488  15.034   4.948  0.00  0.00    -0.287 OA
BRANCH  11  29
HETATM   29  C   UNK N   1      36.574  13.424   2.920  0.00  0.00     0.034 C 
HETATM   30  C   UNK N   1      35.988  13.566   1.525  0.00  0.00     0.008 C 
ENDBRANCH  11  29
BRANCH  11  31
HETATM   31  O   UNK N   1      35.714  11.502   3.939  0.00  0.00    -0.389 OA
HETATM   32  H   UNK N   1      36.328  10.784   4.163  0.00  0.00     0.210 HD
ENDBRANCH  11  31
BRANCH  19  33
HETATM   33  O   UNK N   1      34.694  17.001   6.990  0.00  0.00    -0.359 OA
HETATM   34  H   UNK N   1      34.319  17.542   7.657  0.00  0.00     0.217 HD
ENDBRANCH  19  33
BRANCH  24  35
HETATM   35  O   UNK N   1      30.757  18.982   9.287  0.00  0.00    -0.360 OA
HETATM   36  H   UNK N   1      30.948  18.744  10.173  0.00  0.00     0.217 HD
ENDBRANCH  24  35
ENDBRANCH   8   9
ENDBRANCH   5   8
BRANCH   4  37
HETATM   37  N   UNK N   1      34.056  11.071   9.275  0.00  0.00     0.087 N 
HETATM   38  C   UNK N   1      32.834  10.478   9.802  0.00  0.00     0.310 C 
HETATM   39  C   UNK N   1      34.045  10.785   7.843  0.00  0.00     0.310 C 
ENDBRANCH   4  37
BRANCH   6  40
HETATM   40  O   UNK N   1      35.924  11.966  11.034  0.00  0.00    -0.351 OA
BRANCH  40  41
HETATM   41  C   UNK N   1      35.972  11.438  12.363  0.00  0.00     0.263 C 
HETATM   42  C   UNK N   1      37.384  11.060  12.830  0.00  0.00     0.095 C 
HETATM   43  C   UNK N   1      37.293  10.128  14.079  0.00  0.00     0.154 C 
HETATM   44  C   UNK N   1      35.973  10.460  14.865  0.00  0.00     0.182 C 
HETATM   45  C   UNK N   1      34.837  10.066  13.907  0.00  0.00     0.152 C 
HETATM   46  C   UNK N   1      33.512  10.740  14.235  0.00  0.00     0.042 C 
HETATM   47  O   UNK N   1      35.194  10.288  12.561  0.00  0.00    -0.354 OA
BRANCH  43  48
HETATM   48  O   UNK N   1      38.453  10.296  14.823  0.00  0.00    -0.393 OA
HETATM   49  H   UNK N   1      38.929   9.521  15.161  0.00  0.00     0.210 HD
ENDBRANCH  43  48
BRANCH  44  50
HETATM   50  O   UNK N   1      35.756   9.795  16.101  0.00  0.00    -0.351 OA
BRANCH  50  51
HETATM   51  C   UNK N   1      35.472  10.703  17.144  0.00  0.00     0.261 C 
HETATM   52  C   UNK N   1      35.804  12.125  16.727  0.00  0.00     0.068 C 
HETATM   53  C   UNK N   1      35.377  13.098  17.838  0.00  0.00     0.086 C 
HETATM   54  C   UNK N   1      35.243  12.457  19.205  0.00  0.00     0.155 C 
HETATM   55  C   UNK N   1      35.653  11.018  19.439  0.00  0.00     0.190 C 
HETATM   56  O   UNK N   1      34.730  13.089  20.113  0.00  0.00    -0.295 OA
HETATM   57  C   UNK N   1      36.655  10.942  20.574  0.00  0.00     0.048 C 
HETATM   58  O   UNK N   1      36.253  10.445  18.300  0.00  0.00    -0.349 OA
ENDBRANCH  50  51
ENDBRANCH  44  50
ENDBRANCH  40  41
ENDBRANCH   6  40
TORSDOF 12
ENDMDL
MODEL 4
REMARK VINA RESULT:      -8.6      7.404     12.151
REMARK  12 active torsions:
REMARK  status: ('A' for Active; 'I' for Inactive)
REMARK    1  A    between atoms: C_40  and  C_7 
REMARK    2  A    between atoms: C_24  and  N_41 
REMARK    3  A    between atoms: O_43  and  C_26 
REMARK    4  A    between atoms: C_27  and  O_44 
REMARK    5  A    between atoms: C_28  and  O_52 
REMARK    6  A    between atoms: C_29  and  O_53 
REMARK    7  A    between atoms: C_30  and  O_52 
REMARK    8  A    between atoms: C_31  and  O_54 
REMARK    9  A    between atoms: O_46  and  C_36 
REMARK   10  A    between atoms: C_38  and  O_54 
REMARK   11  A    between atoms: C_39  and  O_53 
REMARK   12  A    between atoms: C_40  and  O_48 
ROOT
HETATM    1  C   UNK N   1      26.975  15.256   1.364  0.00  0.00     0.042 C 
HETATM    2  C   UNK N   1      28.575  14.331   3.479  0.00  0.00     0.099 C 
HETATM    3  C   UNK N   1      26.148  15.002   2.630  0.00  0.00     0.151 C 
HETATM    4  C   UNK N   1      27.619  13.095   3.214  0.00  0.00     0.258 C 
HETATM    5  C   UNK N   1      27.880  15.572   4.120  0.00  0.00     0.263 C 
HETATM    6  C   UNK N   1      26.100  13.503   2.958  0.00  0.00     0.186 C 
HETATM    7  O   UNK N   1      26.502  15.624   3.856  0.00  0.00    -0.354 OA
ENDROOT
BRANCH   5   8
HETATM    8  O   UNK N   1      28.493  16.829   3.822  0.00  0.00    -0.351 OA
BRANCH   8   9
HETATM    9  C   UNK N   1      28.878  17.634   4.963  0.00  0.00     0.163 C 
HETATM   10  C   UNK N   1      27.887  17.388   6.100  0.00  0.00     0.075 C 
HETATM   11  C   UNK N   1      28.315  18.006   7.437  0.00  0.00     0.064 C 
HETATM   12  C   UNK N   1      29.722  17.519   7.834  0.00  0.00     0.077 C 
HETATM   13  C   UNK N   1      30.646  17.124   6.702  0.00  0.00    -0.043 C 
HETATM   14  C   UNK N   1      31.862  16.512   7.009  0.00  0.00     0.024 C 
HETATM   15  C   UNK N   1      30.273  17.257   5.347  0.00  0.00     0.011 C 
HETATM   16  C   UNK N   1      32.695  16.025   5.990  0.00  0.00     0.032 C 
HETATM   17  C   UNK N   1      32.370  16.268   4.640  0.00  0.00     0.063 C 
HETATM   18  C   UNK N   1      33.836  15.148   6.309  0.00  0.00     0.194 C 
HETATM   19  C   UNK N   1      31.182  16.915   4.335  0.00  0.00     0.090 C 
HETATM   20  C   UNK N   1      33.206  15.706   3.552  0.00  0.00     0.199 C 
HETATM   21  C   UNK N   1      34.223  14.690   3.864  0.00  0.00     0.062 A 
HETATM   22  O   UNK N   1      32.979  15.998   2.381  0.00  0.00    -0.286 OA
HETATM   23  C   UNK N   1      34.533  14.419   5.219  0.00  0.00     0.032 A 
HETATM   24  C   UNK N   1      34.861  13.951   2.843  0.00  0.00     0.080 A 
HETATM   25  C   UNK N   1      35.469  13.427   5.524  0.00  0.00     0.017 A 
HETATM   26  C   UNK N   1      36.089  12.701   4.507  0.00  0.00     0.004 A 
HETATM   27  C   UNK N   1      35.783  12.961   3.171  0.00  0.00     0.037 A 
HETATM   28  O   UNK N   1      34.124  14.922   7.481  0.00  0.00    -0.287 OA
BRANCH  11  29
HETATM   29  C   UNK N   1      28.159  19.541   7.481  0.00  0.00     0.034 C 
HETATM   30  C   UNK N   1      27.100  20.152   6.578  0.00  0.00     0.008 C 
ENDBRANCH  11  29
BRANCH  11  31
HETATM   31  O   UNK N   1      27.438  17.514   8.402  0.00  0.00    -0.389 OA
HETATM   32  H   UNK N   1      27.466  17.042   9.249  0.00  0.00     0.210 HD
ENDBRANCH  11  31
BRANCH  19  33
HETATM   33  O   UNK N   1      30.861  17.112   3.042  0.00  0.00    -0.359 OA
HETATM   34  H   UNK N   1      31.449  16.839   2.366  0.00  0.00     0.217 HD
ENDBRANCH  19  33
BRANCH  24  35
HETATM   35  O   UNK N   1      34.573  14.166   1.544  0.00  0.00    -0.360 OA
HETATM   36  H   UNK N   1      33.916  14.790   1.306  0.00  0.00     0.217 HD
ENDBRANCH  24  35
ENDBRANCH   8   9
ENDBRANCH   5   8
BRANCH   4  37
HETATM   37  N   UNK N   1      27.790  12.071   4.266  0.00  0.00     0.087 N 
HETATM   38  C   UNK N   1      27.379  10.758   3.787  0.00  0.00     0.310 C 
HETATM   39  C   UNK N   1      29.204  11.940   4.604  0.00  0.00     0.310 C 
ENDBRANCH   4  37
BRANCH   6  40
HETATM   40  O   UNK N   1      25.315  13.183   4.115  0.00  0.00    -0.351 OA
BRANCH  40  41
HETATM   41  C   UNK N   1      24.095  13.899   4.333  0.00  0.00     0.263 C 
HETATM   42  C   UNK N   1      23.828  14.235   5.807  0.00  0.00     0.095 C 
HETATM   43  C   UNK N   1      22.327  14.621   5.994  0.00  0.00     0.154 C 
HETATM   44  C   UNK N   1      21.791  15.242   4.654  0.00  0.00     0.182 C 
HETATM   45  C   UNK N   1      21.851  14.092   3.636  0.00  0.00     0.152 C 
HETATM   46  C   UNK N   1      21.858  14.567   2.191  0.00  0.00     0.042 C 
HETATM   47  O   UNK N   1      22.943  13.234   3.889  0.00  0.00    -0.354 OA
BRANCH  43  48
HETATM   48  O   UNK N   1      22.238  15.470   7.089  0.00  0.00    -0.393 OA
HETATM   49  H   UNK N   1      22.438  15.138   7.978  0.00  0.00     0.210 HD
ENDBRANCH  43  48
BRANCH  44  50
HETATM   50  O   UNK N   1      20.470  15.763   4.650  0.00  0.00    -0.351 OA
BRANCH  50  51
HETATM   51  C   UNK N   1      20.446  17.136   4.321  0.00  0.00     0.261 C 
HETATM   52  C   UNK N   1      19.600  17.379   3.083  0.00  0.00     0.068 C 
HETATM   53  C   UNK N   1      19.500  18.892   2.821  0.00  0.00     0.086 C 
HETATM   54  C   UNK N   1      20.609  19.705   3.457  0.00  0.00     0.155 C 
HETATM   55  C   UNK N   1      21.776  19.033   4.151  0.00  0.00     0.190 C 
HETATM   56  O   UNK N   1      20.523  20.921   3.473  0.00  0.00    -0.295 OA
HETATM   57  C   UNK N   1      23.083  19.519   3.555  0.00  0.00     0.048 C 
HETATM   58  O   UNK N   1      21.739  17.631   4.013  0.00  0.00    -0.349 OA
ENDBRANCH  50  51
ENDBRANCH  44  50
ENDBRANCH  40  41
ENDBRANCH   6  40
TORSDOF 12
ENDMDL
MODEL 5
REMARK VINA RESULT:      -8.6      8.569     14.640
REMARK  12 active torsions:
REMARK  status: ('A' for Active; 'I' for Inactive)
REMARK    1  A    between atoms: C_40  and  C_7 
REMARK    2  A    between atoms: C_24  and  N_41 
REMARK    3  A    between atoms: O_43  and  C_26 
REMARK    4  A    between atoms: C_27  and  O_44 
REMARK    5  A    between atoms: C_28  and  O_52 
REMARK    6  A    between atoms: C_29  and  O_53 
REMARK    7  A    between atoms: C_30  and  O_52 
REMARK    8  A    between atoms: C_31  and  O_54 
REMARK    9  A    between atoms: O_46  and  C_36 
REMARK   10  A    between atoms: C_38  and  O_54 
REMARK   11  A    between atoms: C_39  and  O_53 
REMARK   12  A    between atoms: C_40  and  O_48 
ROOT
HETATM    1  C   UNK N   1      24.599  10.319   4.862  0.00  0.00     0.042 C 
HETATM    2  C   UNK N   1      23.044  12.474   3.952  0.00  0.00     0.099 C 
HETATM    3  C   UNK N   1      25.106  11.657   5.416  0.00  0.00     0.151 C 
HETATM    4  C   UNK N   1      24.457  12.783   3.306  0.00  0.00     0.258 C 
HETATM    5  C   UNK N   1      22.977  12.659   5.499  0.00  0.00     0.263 C 
HETATM    6  C   UNK N   1      25.683  12.529   4.292  0.00  0.00     0.186 C 
HETATM    7  O   UNK N   1      24.227  12.520   6.122  0.00  0.00    -0.354 OA
ENDROOT
BRANCH   5   8
HETATM    8  O   UNK N   1      21.997  11.855   6.163  0.00  0.00    -0.351 OA
BRANCH   8   9
HETATM    9  C   UNK N   1      21.491  12.376   7.415  0.00  0.00     0.163 C 
HETATM   10  C   UNK N   1      22.592  12.286   8.471  0.00  0.00     0.075 C 
HETATM   11  C   UNK N   1      22.256  13.015   9.779  0.00  0.00     0.064 C 
HETATM   12  C   UNK N   1      21.894  14.487   9.501  0.00  0.00     0.077 C 
HETATM   13  C   UNK N   1      21.315  14.796   8.138  0.00  0.00    -0.043 C 
HETATM   14  C   UNK N   1      21.135  16.131   7.771  0.00  0.00     0.024 C 
HETATM   15  C   UNK N   1      21.051  13.787   7.187  0.00  0.00     0.011 C 
HETATM   16  C   UNK N   1      20.711  16.465   6.476  0.00  0.00     0.032 C 
HETATM   17  C   UNK N   1      20.336  15.448   5.574  0.00  0.00     0.063 C 
HETATM   18  C   UNK N   1      20.778  17.860   6.002  0.00  0.00     0.194 C 
HETATM   19  C   UNK N   1      20.474  14.122   5.953  0.00  0.00     0.090 C 
HETATM   20  C   UNK N   1      19.948  15.783   4.183  0.00  0.00     0.199 C 
HETATM   21  C   UNK N   1      20.190  17.137   3.662  0.00  0.00     0.062 A 
HETATM   22  O   UNK N   1      19.529  14.908   3.428  0.00  0.00    -0.286 OA
HETATM   23  C   UNK N   1      20.596  18.157   4.558  0.00  0.00     0.032 A 
HETATM   24  C   UNK N   1      20.072  17.427   2.285  0.00  0.00     0.080 A 
HETATM   25  C   UNK N   1      20.868  19.435   4.064  0.00  0.00     0.017 A 
HETATM   26  C   UNK N   1      20.751  19.709   2.701  0.00  0.00     0.004 A 
HETATM   27  C   UNK N   1      20.356  18.706   1.815  0.00  0.00     0.037 A 
HETATM   28  O   UNK N   1      21.111  18.752   6.775  0.00  0.00    -0.287 OA
BRANCH  11  29
HETATM   29  C   UNK N   1      21.212  12.275  10.641  0.00  0.00     0.034 C 
HETATM   30  C   UNK N   1      21.635  11.876  12.045  0.00  0.00     0.008 C 
ENDBRANCH  11  29
BRANCH  11  31
HETATM   31  O   UNK N   1      23.424  13.029  10.538  0.00  0.00    -0.389 OA
HETATM   32  H   UNK N   1      24.265  13.511  10.585  0.00  0.00     0.210 HD
ENDBRANCH  11  31
BRANCH  19  33
HETATM   33  O   UNK N   1      20.148  13.156   5.074  0.00  0.00    -0.359 OA
HETATM   34  H   UNK N   1      20.783  12.852   4.455  0.00  0.00     0.217 HD
ENDBRANCH  19  33
BRANCH  24  35
HETATM   35  O   UNK N   1      19.711  16.476   1.401  0.00  0.00    -0.360 OA
HETATM   36  H   UNK N   1      19.939  15.580   1.556  0.00  0.00     0.217 HD
ENDBRANCH  24  35
ENDBRANCH   8   9
ENDBRANCH   5   8
BRANCH   4  37
HETATM   37  N   UNK N   1      24.464  14.124   2.683  0.00  0.00     0.087 N 
HETATM   38  C   UNK N   1      25.068  14.081   1.359  0.00  0.00     0.310 C 
HETATM   39  C   UNK N   1      23.092  14.578   2.474  0.00  0.00     0.310 C 
ENDBRANCH   4  37
BRANCH   6  40
HETATM   40  O   UNK N   1      26.207  13.787   4.740  0.00  0.00    -0.351 OA
BRANCH  40  41
HETATM   41  C   UNK N   1      27.521  14.169   4.319  0.00  0.00     0.263 C 
HETATM   42  C   UNK N   1      27.601  15.592   3.751  0.00  0.00     0.095 C 
HETATM   43  C   UNK N   1      28.929  15.765   2.949  0.00  0.00     0.154 C 
HETATM   44  C   UNK N   1      30.017  14.806   3.556  0.00  0.00     0.182 C 
HETATM   45  C   UNK N   1      29.489  13.389   3.281  0.00  0.00     0.152 C 
HETATM   46  C   UNK N   1      30.100  12.332   4.190  0.00  0.00     0.042 C 
HETATM   47  O   UNK N   1      28.080  13.343   3.333  0.00  0.00    -0.354 OA
BRANCH  43  48
HETATM   48  O   UNK N   1      29.275  17.109   2.981  0.00  0.00    -0.393 OA
HETATM   49  H   UNK N   1      28.652  17.762   3.333  0.00  0.00     0.210 HD
ENDBRANCH  43  48
BRANCH  44  50
HETATM   50  O   UNK N   1      31.335  14.892   3.037  0.00  0.00    -0.351 OA
BRANCH  50  51
HETATM   51  C   UNK N   1      32.195  15.609   3.898  0.00  0.00     0.261 C 
HETATM   52  C   UNK N   1      33.371  14.748   4.326  0.00  0.00     0.068 C 
HETATM   53  C   UNK N   1      34.344  15.593   5.166  0.00  0.00     0.086 C 
HETATM   54  C   UNK N   1      33.716  16.821   5.793  0.00  0.00     0.155 C 
HETATM   55  C   UNK N   1      32.225  17.072   5.702  0.00  0.00     0.190 C 
HETATM   56  O   UNK N   1      34.434  17.656   6.317  0.00  0.00    -0.295 OA
HETATM   57  C   UNK N   1      31.646  17.260   7.091  0.00  0.00     0.048 C 
HETATM   58  O   UNK N   1      31.543  15.999   5.095  0.00  0.00    -0.349 OA
ENDBRANCH  50  51
ENDBRANCH  44  50
ENDBRANCH  40  41
ENDBRANCH   6  40
TORSDOF 12
ENDMDL
MODEL 6
REMARK VINA RESULT:      -8.6      4.241     12.603
REMARK  12 active torsions:
REMARK  status: ('A' for Active; 'I' for Inactive)
REMARK    1  A    between atoms: C_40  and  C_7 
REMARK    2  A    between atoms: C_24  and  N_41 
REMARK    3  A    between atoms: O_43  and  C_26 
REMARK    4  A    between atoms: C_27  and  O_44 
REMARK    5  A    between atoms: C_28  and  O_52 
REMARK    6  A    between atoms: C_29  and  O_53 
REMARK    7  A    between atoms: C_30  and  O_52 
REMARK    8  A    between atoms: C_31  and  O_54 
REMARK    9  A    between atoms: O_46  and  C_36 
REMARK   10  A    between atoms: C_38  and  O_54 
REMARK   11  A    between atoms: C_39  and  O_53 
REMARK   12  A    between atoms: C_40  and  O_48 
ROOT
HETATM    1  C   UNK N   1      29.573  13.799   5.245  0.00  0.00     0.042 C 
HETATM    2  C   UNK N   1      30.256  15.898   3.507  0.00  0.00     0.099 C 
HETATM    3  C   UNK N   1      30.301  14.930   5.982  0.00  0.00     0.151 C 
HETATM    4  C   UNK N   1      31.676  15.366   3.967  0.00  0.00     0.258 C 
HETATM    5  C   UNK N   1      29.447  16.645   4.613  0.00  0.00     0.263 C 
HETATM    6  C   UNK N   1      31.762  15.028   5.522  0.00  0.00     0.186 C 
HETATM    7  O   UNK N   1      29.815  16.262   5.913  0.00  0.00    -0.354 OA
ENDROOT
BRANCH   5   8
HETATM    8  O   UNK N   1      28.026  16.595   4.462  0.00  0.00    -0.351 OA
BRANCH   8   9
HETATM    9  C   UNK N   1      27.301  17.775   4.881  0.00  0.00     0.163 C 
HETATM   10  C   UNK N   1      27.239  18.760   3.714  0.00  0.00     0.075 C 
HETATM   11  C   UNK N   1      26.302  19.950   3.959  0.00  0.00     0.064 C 
HETATM   12  C   UNK N   1      24.888  19.461   4.326  0.00  0.00     0.077 C 
HETATM   13  C   UNK N   1      24.793  18.105   4.991  0.00  0.00    -0.043 C 
HETATM   14  C   UNK N   1      23.532  17.538   5.185  0.00  0.00     0.024 C 
HETATM   15  C   UNK N   1      25.938  17.350   5.325  0.00  0.00     0.011 C 
HETATM   16  C   UNK N   1      23.404  16.235   5.690  0.00  0.00     0.032 C 
HETATM   17  C   UNK N   1      24.546  15.536   6.130  0.00  0.00     0.063 C 
HETATM   18  C   UNK N   1      22.106  15.538   5.643  0.00  0.00     0.194 C 
HETATM   19  C   UNK N   1      25.796  16.117   5.978  0.00  0.00     0.090 C 
HETATM   20  C   UNK N   1      24.433  14.137   6.607  0.00  0.00     0.199 C 
HETATM   21  C   UNK N   1      23.186  13.389   6.388  0.00  0.00     0.062 A 
HETATM   22  O   UNK N   1      25.411  13.562   7.080  0.00  0.00    -0.286 OA
HETATM   23  C   UNK N   1      22.042  14.080   5.917  0.00  0.00     0.032 A 
HETATM   24  C   UNK N   1      23.120  11.993   6.595  0.00  0.00     0.080 A 
HETATM   25  C   UNK N   1      20.865  13.368   5.668  0.00  0.00     0.017 A 
HETATM   26  C   UNK N   1      20.814  11.989   5.872  0.00  0.00     0.004 A 
HETATM   27  C   UNK N   1      21.939  11.305   6.331  0.00  0.00     0.037 A 
HETATM   28  O   UNK N   1      21.106  16.133   5.254  0.00  0.00    -0.287 OA
BRANCH  11  29
HETATM   29  C   UNK N   1      26.874  20.986   4.950  0.00  0.00     0.034 C 
HETATM   30  C   UNK N   1      26.328  20.959   6.367  0.00  0.00     0.008 C 
ENDBRANCH  11  29
BRANCH  11  31
HETATM   31  O   UNK N   1      26.186  20.622   2.743  0.00  0.00    -0.389 OA
HETATM   32  H   UNK N   1      26.395  20.487   1.805  0.00  0.00     0.210 HD
ENDBRANCH  11  31
BRANCH  19  33
HETATM   33  O   UNK N   1      26.885  15.428   6.368  0.00  0.00    -0.359 OA
HETATM   34  H   UNK N   1      26.799  14.716   6.970  0.00  0.00     0.217 HD
ENDBRANCH  19  33
BRANCH  24  35
HETATM   35  O   UNK N   1      24.195  11.300   7.019  0.00  0.00    -0.360 OA
HETATM   36  H   UNK N   1      24.133  10.758   7.781  0.00  0.00     0.217 HD
ENDBRANCH  24  35
ENDBRANCH   8   9
ENDBRANCH   5   8
BRANCH   4  37
HETATM   37  N   UNK N   1      32.747  16.267   3.493  0.00  0.00     0.087 N 
HETATM   38  C   UNK N   1      33.756  15.530   2.744  0.00  0.00     0.310 C 
HETATM   39  C   UNK N   1      32.195  17.241   2.556  0.00  0.00     0.310 C 
ENDBRANCH   4  37
BRANCH   6  40
HETATM   40  O   UNK N   1      32.519  16.047   6.192  0.00  0.00    -0.351 OA
BRANCH  40  41
HETATM   41  C   UNK N   1      33.393  15.659   7.258  0.00  0.00     0.263 C 
HETATM   42  C   UNK N   1      33.583  16.742   8.329  0.00  0.00     0.095 C 
HETATM   43  C   UNK N   1      34.838  16.410   9.194  0.00  0.00     0.154 C 
HETATM   44  C   UNK N   1      35.041  14.852   9.219  0.00  0.00     0.182 C 
HETATM   45  C   UNK N   1      35.367  14.476   7.765  0.00  0.00     0.152 C 
HETATM   46  C   UNK N   1      35.116  13.008   7.452  0.00  0.00     0.042 C 
HETATM   47  O   UNK N   1      34.687  15.307   6.850  0.00  0.00    -0.354 OA
BRANCH  43  48
HETATM   48  O   UNK N   1      34.655  16.978  10.448  0.00  0.00    -0.393 OA
HETATM   49  H   UNK N   1      33.909  17.577  10.604  0.00  0.00     0.210 HD
ENDBRANCH  43  48
BRANCH  44  50
HETATM   50  O   UNK N   1      36.071  14.333  10.048  0.00  0.00    -0.351 OA
BRANCH  50  51
HETATM   51  C   UNK N   1      35.555  13.744  11.223  0.00  0.00     0.261 C 
HETATM   52  C   UNK N   1      36.250  14.298  12.454  0.00  0.00     0.068 C 
HETATM   53  C   UNK N   1      35.587  13.725  13.718  0.00  0.00     0.086 C 
HETATM   54  C   UNK N   1      34.828  12.434  13.488  0.00  0.00     0.155 C 
HETATM   55  C   UNK N   1      34.873  11.726  12.149  0.00  0.00     0.190 C 
HETATM   56  O   UNK N   1      34.111  11.998  14.372  0.00  0.00    -0.295 OA
HETATM   57  C   UNK N   1      35.325  10.291  12.337  0.00  0.00     0.048 C 
HETATM   58  O   UNK N   1      35.768  12.343  11.253  0.00  0.00    -0.349 OA
ENDBRANCH  50  51
ENDBRANCH  44  50
ENDBRANCH  40  41
ENDBRANCH   6  40
TORSDOF 12
ENDMDL
MODEL 7
REMARK VINA RESULT:      -8.5      5.740     11.034
REMARK  12 active torsions:
REMARK  status: ('A' for Active; 'I' for Inactive)
REMARK    1  A    between atoms: C_40  and  C_7 
REMARK    2  A    between atoms: C_24  and  N_41 
REMARK    3  A    between atoms: O_43  and  C_26 
REMARK    4  A    between atoms: C_27  and  O_44 
REMARK    5  A    between atoms: C_28  and  O_52 
REMARK    6  A    between atoms: C_29  and  O_53 
REMARK    7  A    between atoms: C_30  and  O_52 
REMARK    8  A    between atoms: C_31  and  O_54 
REMARK    9  A    between atoms: O_46  and  C_36 
REMARK   10  A    between atoms: C_38  and  O_54 
REMARK   11  A    between atoms: C_39  and  O_53 
REMARK   12  A    between atoms: C_40  and  O_48 
ROOT
HETATM    1  C   UNK N   1      28.175  15.364   2.186  0.00  0.00     0.042 C 
HETATM    2  C   UNK N   1      29.055  13.630   4.213  0.00  0.00     0.099 C 
HETATM    3  C   UNK N   1      27.164  15.279   3.337  0.00  0.00     0.151 C 
HETATM    4  C   UNK N   1      27.752  12.897   3.686  0.00  0.00     0.258 C 
HETATM    5  C   UNK N   1      28.789  14.946   5.008  0.00  0.00     0.263 C 
HETATM    6  C   UNK N   1      26.532  13.883   3.405  0.00  0.00     0.186 C 
HETATM    7  O   UNK N   1      27.569  15.553   4.670  0.00  0.00    -0.354 OA
ENDROOT
BRANCH   5   8
HETATM    8  O   UNK N   1      29.851  15.903   4.965  0.00  0.00    -0.351 OA
BRANCH   8   9
HETATM    9  C   UNK N   1      29.789  16.966   5.946  0.00  0.00     0.163 C 
HETATM   10  C   UNK N   1      28.545  16.769   6.811  0.00  0.00     0.075 C 
HETATM   11  C   UNK N   1      28.487  17.698   8.031  0.00  0.00     0.064 C 
HETATM   12  C   UNK N   1      29.764  17.554   8.882  0.00  0.00     0.077 C 
HETATM   13  C   UNK N   1      31.018  17.121   8.154  0.00  0.00    -0.043 C 
HETATM   14  C   UNK N   1      32.154  16.807   8.901  0.00  0.00     0.024 C 
HETATM   15  C   UNK N   1      31.044  16.924   6.756  0.00  0.00     0.011 C 
HETATM   16  C   UNK N   1      33.300  16.291   8.275  0.00  0.00     0.032 C 
HETATM   17  C   UNK N   1      33.358  16.210   6.869  0.00  0.00     0.063 C 
HETATM   18  C   UNK N   1      34.393  15.709   9.076  0.00  0.00     0.194 C 
HETATM   19  C   UNK N   1      32.243  16.563   6.124  0.00  0.00     0.090 C 
HETATM   20  C   UNK N   1      34.536  15.608   6.199  0.00  0.00     0.199 C 
HETATM   21  C   UNK N   1      35.529  14.869   6.992  0.00  0.00     0.062 A 
HETATM   22  O   UNK N   1      34.628  15.626   4.973  0.00  0.00    -0.286 OA
HETATM   23  C   UNK N   1      35.459  14.922   8.406  0.00  0.00     0.032 A 
HETATM   24  C   UNK N   1      36.520  14.074   6.373  0.00  0.00     0.080 A 
HETATM   25  C   UNK N   1      36.374  14.189   9.166  0.00  0.00     0.017 A 
HETATM   26  C   UNK N   1      37.346  13.404   8.543  0.00  0.00     0.004 A 
HETATM   27  C   UNK N   1      37.415  13.346   7.152  0.00  0.00     0.037 A 
HETATM   28  O   UNK N   1      34.349  15.765  10.301  0.00  0.00    -0.287 OA
BRANCH  11  29
HETATM   29  C   UNK N   1      28.145  19.159   7.673  0.00  0.00     0.034 C 
HETATM   30  C   UNK N   1      27.381  19.392   6.380  0.00  0.00     0.008 C 
ENDBRANCH  11  29
BRANCH  11  31
HETATM   31  O   UNK N   1      27.431  17.251   8.822  0.00  0.00    -0.389 OA
HETATM   32  H   UNK N   1      26.756  17.610   9.419  0.00  0.00     0.210 HD
ENDBRANCH  11  31
BRANCH  19  33
HETATM   33  O   UNK N   1      32.294  16.450   4.783  0.00  0.00    -0.359 OA
HETATM   34  H   UNK N   1      33.103  16.240   4.361  0.00  0.00     0.217 HD
ENDBRANCH  19  33
BRANCH  24  35
HETATM   35  O   UNK N   1      36.601  13.982   5.031  0.00  0.00    -0.360 OA
HETATM   36  H   UNK N   1      35.863  14.206   4.500  0.00  0.00     0.217 HD
ENDBRANCH  24  35
ENDBRANCH   8   9
ENDBRANCH   5   8
BRANCH   4  37
HETATM   37  N   UNK N   1      27.407  11.756   4.560  0.00  0.00     0.087 N 
HETATM   38  C   UNK N   1      26.470  10.858   3.898  0.00  0.00     0.310 C 
HETATM   39  C   UNK N   1      28.600  10.956   4.822  0.00  0.00     0.310 C 
ENDBRANCH   4  37
BRANCH   6  40
HETATM   40  O   UNK N   1      25.549  13.736   4.441  0.00  0.00    -0.351 OA
BRANCH  40  41
HETATM   41  C   UNK N   1      24.369  14.544   4.382  0.00  0.00     0.263 C 
HETATM   42  C   UNK N   1      24.158  15.424   5.622  0.00  0.00     0.095 C 
HETATM   43  C   UNK N   1      22.682  15.930   5.663  0.00  0.00     0.154 C 
HETATM   44  C   UNK N   1      22.137  16.027   4.192  0.00  0.00     0.182 C 
HETATM   45  C   UNK N   1      22.118  14.577   3.683  0.00  0.00     0.152 C 
HETATM   46  C   UNK N   1      22.106  14.471   2.165  0.00  0.00     0.042 C 
HETATM   47  O   UNK N   1      23.176  13.822   4.232  0.00  0.00    -0.354 OA
BRANCH  43  48
HETATM   48  O   UNK N   1      22.662  17.132   6.357  0.00  0.00    -0.393 OA
HETATM   49  H   UNK N   1      21.918  17.341   6.943  0.00  0.00     0.210 HD
ENDBRANCH  43  48
BRANCH  44  50
HETATM   50  O   UNK N   1      20.842  16.576   4.003  0.00  0.00    -0.351 OA
BRANCH  50  51
HETATM   51  C   UNK N   1      20.895  17.864   3.425  0.00  0.00     0.261 C 
HETATM   52  C   UNK N   1      20.461  17.820   1.970  0.00  0.00     0.068 C 
HETATM   53  C   UNK N   1      20.418  19.250   1.405  0.00  0.00     0.086 C 
HETATM   54  C   UNK N   1      21.267  20.244   2.171  0.00  0.00     0.155 C 
HETATM   55  C   UNK N   1      22.180  19.794   3.293  0.00  0.00     0.190 C 
HETATM   56  O   UNK N   1      21.158  21.434   1.928  0.00  0.00    -0.295 OA
HETATM   57  C   UNK N   1      23.597  20.263   3.028  0.00  0.00     0.048 C 
HETATM   58  O   UNK N   1      22.211  18.392   3.422  0.00  0.00    -0.349 OA
ENDBRANCH  50  51
ENDBRANCH  44  50
ENDBRANCH  40  41
ENDBRANCH   6  40
TORSDOF 12
ENDMDL
MODEL 8
REMARK VINA RESULT:      -8.5      8.240     12.373
REMARK  12 active torsions:
REMARK  status: ('A' for Active; 'I' for Inactive)
REMARK    1  A    between atoms: C_40  and  C_7 
REMARK    2  A    between atoms: C_24  and  N_41 
REMARK    3  A    between atoms: O_43  and  C_26 
REMARK    4  A    between atoms: C_27  and  O_44 
REMARK    5  A    between atoms: C_28  and  O_52 
REMARK    6  A    between atoms: C_29  and  O_53 
REMARK    7  A    between atoms: C_30  and  O_52 
REMARK    8  A    between atoms: C_31  and  O_54 
REMARK    9  A    between atoms: O_46  and  C_36 
REMARK   10  A    between atoms: C_38  and  O_54 
REMARK   11  A    between atoms: C_39  and  O_53 
REMARK   12  A    between atoms: C_40  and  O_48 
ROOT
HETATM    1  C   UNK N   1      26.911  10.998   5.283  0.00  0.00     0.042 C 
HETATM    2  C   UNK N   1      25.578  10.992   2.810  0.00  0.00     0.099 C 
HETATM    3  C   UNK N   1      27.294  12.214   4.431  0.00  0.00     0.151 C 
HETATM    4  C   UNK N   1      27.094  10.843   2.376  0.00  0.00     0.258 C 
HETATM    5  C   UNK N   1      25.195  12.393   3.380  0.00  0.00     0.263 C 
HETATM    6  C   UNK N   1      28.091  11.782   3.192  0.00  0.00     0.186 C 
HETATM    7  O   UNK N   1      26.290  13.081   3.925  0.00  0.00    -0.354 OA
ENDROOT
BRANCH   5   8
HETATM    8  O   UNK N   1      24.099  12.394   4.299  0.00  0.00    -0.351 OA
BRANCH   8   9
HETATM    9  C   UNK N   1      23.167  13.495   4.177  0.00  0.00     0.163 C 
HETATM   10  C   UNK N   1      22.070  13.109   3.185  0.00  0.00     0.075 C 
HETATM   11  C   UNK N   1      20.900  14.100   3.141  0.00  0.00     0.064 C 
HETATM   12  C   UNK N   1      20.307  14.302   4.549  0.00  0.00     0.077 C 
HETATM   13  C   UNK N   1      21.247  14.089   5.716  0.00  0.00    -0.043 C 
HETATM   14  C   UNK N   1      20.722  14.086   7.010  0.00  0.00     0.024 C 
HETATM   15  C   UNK N   1      22.614  13.789   5.534  0.00  0.00     0.011 C 
HETATM   16  C   UNK N   1      21.536  13.777   8.110  0.00  0.00     0.032 C 
HETATM   17  C   UNK N   1      22.923  13.596   7.931  0.00  0.00     0.063 C 
HETATM   18  C   UNK N   1      20.940  13.509   9.432  0.00  0.00     0.194 C 
HETATM   19  C   UNK N   1      23.452  13.641   6.650  0.00  0.00     0.090 C 
HETATM   20  C   UNK N   1      23.784  13.206   9.073  0.00  0.00     0.199 C 
HETATM   21  C   UNK N   1      23.170  12.763  10.334  0.00  0.00     0.062 A 
HETATM   22  O   UNK N   1      25.004  13.143   8.937  0.00  0.00    -0.286 OA
HETATM   23  C   UNK N   1      21.772  12.915  10.509  0.00  0.00     0.032 A 
HETATM   24  C   UNK N   1      23.936  12.150  11.350  0.00  0.00     0.080 A 
HETATM   25  C   UNK N   1      21.175  12.459  11.687  0.00  0.00     0.017 A 
HETATM   26  C   UNK N   1      21.942  11.852  12.682  0.00  0.00     0.004 A 
HETATM   27  C   UNK N   1      23.317  11.696  12.511  0.00  0.00     0.037 A 
HETATM   28  O   UNK N   1      19.733  13.655   9.598  0.00  0.00    -0.287 OA
BRANCH  11  29
HETATM   29  C   UNK N   1      21.244  15.421   2.421  0.00  0.00     0.034 C 
HETATM   30  C   UNK N   1      21.563  16.622   3.296  0.00  0.00     0.008 C 
ENDBRANCH  11  29
BRANCH  11  31
HETATM   31  O   UNK N   1      19.903  13.505   2.372  0.00  0.00    -0.389 OA
HETATM   32  H   UNK N   1      19.602  12.618   2.115  0.00  0.00     0.210 HD
ENDBRANCH  11  31
BRANCH  19  33
HETATM   33  O   UNK N   1      24.771  13.432   6.482  0.00  0.00    -0.359 OA
HETATM   34  H   UNK N   1      25.110  12.558   6.478  0.00  0.00     0.217 HD
ENDBRANCH  19  33
BRANCH  24  35
HETATM   35  O   UNK N   1      25.264  11.968  11.207  0.00  0.00    -0.360 OA
HETATM   36  H   UNK N   1      25.830  12.041  11.949  0.00  0.00     0.217 HD
ENDBRANCH  24  35
ENDBRANCH   8   9
ENDBRANCH   5   8
BRANCH   4  37
HETATM   37  N   UNK N   1      27.229  10.966   0.909  0.00  0.00     0.087 N 
HETATM   38  C   UNK N   1      28.300  10.112   0.411  0.00  0.00     0.310 C 
HETATM   39  C   UNK N   1      26.012  10.489   0.259  0.00  0.00     0.310 C 
ENDBRANCH   4  37
BRANCH   6  40
HETATM   40  O   UNK N   1      28.514  12.872   2.359  0.00  0.00    -0.351 OA
BRANCH  40  41
HETATM   41  C   UNK N   1      29.226  13.956   2.963  0.00  0.00     0.263 C 
HETATM   42  C   UNK N   1      28.607  15.334   2.690  0.00  0.00     0.095 C 
HETATM   43  C   UNK N   1      29.647  16.451   3.011  0.00  0.00     0.154 C 
HETATM   44  C   UNK N   1      30.619  15.933   4.132  0.00  0.00     0.182 C 
HETATM   45  C   UNK N   1      31.378  14.764   3.484  0.00  0.00     0.152 C 
HETATM   46  C   UNK N   1      31.995  13.811   4.497  0.00  0.00     0.042 C 
HETATM   47  O   UNK N   1      30.566  14.066   2.566  0.00  0.00    -0.354 OA
BRANCH  43  48
HETATM   48  O   UNK N   1      28.947  17.601   3.354  0.00  0.00    -0.393 OA
HETATM   49  H   UNK N   1      28.973  18.375   2.772  0.00  0.00     0.210 HD
ENDBRANCH  43  48
BRANCH  44  50
HETATM   50  O   UNK N   1      31.577  16.845   4.649  0.00  0.00    -0.351 OA
BRANCH  50  51
HETATM   51  C   UNK N   1      31.220  17.312   5.933  0.00  0.00     0.261 C 
HETATM   52  C   UNK N   1      32.115  16.701   6.997  0.00  0.00     0.068 C 
HETATM   53  C   UNK N   1      31.778  17.317   8.366  0.00  0.00     0.086 C 
HETATM   54  C   UNK N   1      30.392  17.925   8.446  0.00  0.00     0.155 C 
HETATM   55  C   UNK N   1      29.406  17.782   7.305  0.00  0.00     0.190 C 
HETATM   56  O   UNK N   1      30.094  18.604   9.414  0.00  0.00    -0.295 OA
HETATM   57  C   UNK N   1      28.111  17.178   7.813  0.00  0.00     0.048 C 
HETATM   58  O   UNK N   1      29.895  16.946   6.282  0.00  0.00    -0.349 OA
ENDBRANCH  50  51
ENDBRANCH  44  50
ENDBRANCH  40  41
ENDBRANCH   6  40
TORSDOF 12
ENDMDL
MODEL 9
REMARK VINA RESULT:      -8.4      2.495     11.276
REMARK  12 active torsions:
REMARK  status: ('A' for Active; 'I' for Inactive)
REMARK    1  A    between atoms: C_40  and  C_7 
REMARK    2  A    between atoms: C_24  and  N_41 
REMARK    3  A    between atoms: O_43  and  C_26 
REMARK    4  A    between atoms: C_27  and  O_44 
REMARK    5  A    between atoms: C_28  and  O_52 
REMARK    6  A    between atoms: C_29  and  O_53 
REMARK    7  A    between atoms: C_30  and  O_52 
REMARK    8  A    between atoms: C_31  and  O_54 
REMARK    9  A    between atoms: O_46  and  C_36 
REMARK   10  A    between atoms: C_38  and  O_54 
REMARK   11  A    between atoms: C_39  and  O_53 
REMARK   12  A    between atoms: C_40  and  O_48 
ROOT
HETATM    1  C   UNK N   1      36.970  10.762  11.163  0.00  0.00     0.042 C 
HETATM    2  C   UNK N   1      36.243  13.441  11.595  0.00  0.00     0.099 C 
HETATM    3  C   UNK N   1      35.725  10.874  12.052  0.00  0.00     0.151 C 
HETATM    4  C   UNK N   1      36.622  12.956  13.054  0.00  0.00     0.258 C 
HETATM    5  C   UNK N   1      34.922  12.836  11.026  0.00  0.00     0.263 C 
HETATM    6  C   UNK N   1      36.078  11.500  13.408  0.00  0.00     0.186 C 
HETATM    7  O   UNK N   1      34.589  11.602  11.609  0.00  0.00    -0.354 OA
ENDROOT
BRANCH   5   8
HETATM    8  O   UNK N   1      34.862  12.746   9.600  0.00  0.00    -0.351 OA
BRANCH   8   9
HETATM    9  C   UNK N   1      35.972  13.332   8.880  0.00  0.00     0.163 C 
HETATM   10  C   UNK N   1      36.725  12.226   8.141  0.00  0.00     0.075 C 
HETATM   11  C   UNK N   1      37.783  12.747   7.160  0.00  0.00     0.064 C 
HETATM   12  C   UNK N   1      37.153  13.732   6.157  0.00  0.00     0.077 C 
HETATM   13  C   UNK N   1      35.931  14.489   6.628  0.00  0.00    -0.043 C 
HETATM   14  C   UNK N   1      35.220  15.260   5.706  0.00  0.00     0.024 C 
HETATM   15  C   UNK N   1      35.426  14.359   7.940  0.00  0.00     0.011 C 
HETATM   16  C   UNK N   1      34.017  15.883   6.072  0.00  0.00     0.032 C 
HETATM   17  C   UNK N   1      33.584  15.844   7.413  0.00  0.00     0.063 C 
HETATM   18  C   UNK N   1      33.133  16.466   5.046  0.00  0.00     0.194 C 
HETATM   19  C   UNK N   1      34.314  15.115   8.339  0.00  0.00     0.090 C 
HETATM   20  C   UNK N   1      32.285  16.443   7.801  0.00  0.00     0.199 C 
HETATM   21  C   UNK N   1      31.330  16.854   6.761  0.00  0.00     0.062 A 
HETATM   22  O   UNK N   1      31.954  16.495   8.984  0.00  0.00    -0.286 OA
HETATM   23  C   UNK N   1      31.749  16.867   5.408  0.00  0.00     0.032 A 
HETATM   24  C   UNK N   1      29.995  17.191   7.079  0.00  0.00     0.080 A 
HETATM   25  C   UNK N   1      30.835  17.216   4.410  0.00  0.00     0.017 A 
HETATM   26  C   UNK N   1      29.519  17.543   4.736  0.00  0.00     0.004 A 
HETATM   27  C   UNK N   1      29.101  17.527   6.067  0.00  0.00     0.037 A 
HETATM   28  O   UNK N   1      33.494  16.497   3.874  0.00  0.00    -0.287 OA
BRANCH  11  29
HETATM   29  C   UNK N   1      39.046  13.296   7.856  0.00  0.00     0.034 C 
HETATM   30  C   UNK N   1      39.836  12.326   8.717  0.00  0.00     0.008 C 
ENDBRANCH  11  29
BRANCH  11  31
HETATM   31  O   UNK N   1      38.213  11.648   6.419  0.00  0.00    -0.389 OA
HETATM   32  H   UNK N   1      39.009  11.337   5.959  0.00  0.00     0.210 HD
ENDBRANCH  11  31
BRANCH  19  33
HETATM   33  O   UNK N   1      33.875  15.053   9.611  0.00  0.00    -0.359 OA
HETATM   34  H   UNK N   1      33.166  14.483   9.835  0.00  0.00     0.217 HD
ENDBRANCH  19  33
BRANCH  24  35
HETATM   35  O   UNK N   1      29.556  17.166   8.353  0.00  0.00    -0.360 OA
HETATM   36  H   UNK N   1      30.128  17.414   9.052  0.00  0.00     0.217 HD
ENDBRANCH  24  35
ENDBRANCH   8   9
ENDBRANCH   5   8
BRANCH   4  37
HETATM   37  N   UNK N   1      36.264  13.984  14.054  0.00  0.00     0.087 N 
HETATM   38  C   UNK N   1      37.267  14.060  15.107  0.00  0.00     0.310 C 
HETATM   39  C   UNK N   1      36.253  15.302  13.425  0.00  0.00     0.310 C 
ENDBRANCH   4  37
BRANCH   6  40
HETATM   40  O   UNK N   1      34.967  11.609  14.310  0.00  0.00    -0.351 OA
BRANCH  40  41
HETATM   41  C   UNK N   1      35.110  11.095  15.637  0.00  0.00     0.263 C 
HETATM   42  C   UNK N   1      35.005  12.167  16.732  0.00  0.00     0.095 C 
HETATM   43  C   UNK N   1      35.581  11.609  18.071  0.00  0.00     0.154 C 
HETATM   44  C   UNK N   1      35.388  10.049  18.096  0.00  0.00     0.182 C 
HETATM   45  C   UNK N   1      36.274   9.525  16.955  0.00  0.00     0.152 C 
HETATM   46  C   UNK N   1      35.877   8.137  16.474  0.00  0.00     0.042 C 
HETATM   47  O   UNK N   1      36.324  10.435  15.879  0.00  0.00    -0.354 OA
BRANCH  43  48
HETATM   48  O   UNK N   1      34.955  12.275  19.116  0.00  0.00    -0.393 OA
HETATM   49  H   UNK N   1      35.011  13.241  19.177  0.00  0.00     0.210 HD
ENDBRANCH  43  48
BRANCH  44  50
HETATM   50  O   UNK N   1      35.747   9.359  19.284  0.00  0.00    -0.351 OA
BRANCH  50  51
HETATM   51  C   UNK N   1      34.613   8.980  20.036  0.00  0.00     0.261 C 
HETATM   52  C   UNK N   1      33.419   8.741  19.129  0.00  0.00     0.068 C 
HETATM   53  C   UNK N   1      32.237   8.220  19.964  0.00  0.00     0.086 C 
HETATM   54  C   UNK N   1      32.328   8.552  21.440  0.00  0.00     0.155 C 
HETATM   55  C   UNK N   1      33.424   9.451  21.975  0.00  0.00     0.190 C 
HETATM   56  O   UNK N   1      31.550   8.028  22.218  0.00  0.00    -0.295 OA
HETATM   57  C   UNK N   1      32.816  10.606  22.746  0.00  0.00     0.048 C 
HETATM   58  O   UNK N   1      34.215   9.995  20.944  0.00  0.00    -0.349 OA
ENDBRANCH  50  51
ENDBRANCH  44  50
ENDBRANCH  40  41
ENDBRANCH   6  40
TORSDOF 12
ENDMDL
