REMARK  19 active torsions:
REMARK  status: ('A' for Active; 'I' for Inactive)
REMARK    1  A    between atoms: C_19  and  C_15 
REMARK    2  A    between atoms: C_24  and  C_15 
REMARK    3  A    between atoms: C_20  and  C_16 
REMARK    4  A    between atoms: C_22  and  C_16 
REMARK    5  A    between atoms: C_21  and  C_17 
REMARK    6  A    between atoms: C_25  and  C_17 
REMARK    7  A    between atoms: C_22  and  C_18 
REMARK    8  A    between atoms: C_22  and  N_35 
REMARK    9  A    between atoms: C_23  and  C_26 
REMARK   10  A    between atoms: C_27  and  C_24 
REMARK   11  A    between atoms: C_24  and  N_37 
REMARK   12  A    between atoms: C_29  and  C_25 
REMARK   13  A    between atoms: C_25  and  N_40 
REMARK   14  A    between atoms: C_28  and  C_26 
REMARK   15  A    between atoms: C_26  and  N_42 
REMARK   16  A    between atoms: C_27  and  O_44 
REMARK   17  A    between atoms: C_28  and  O_45 
REMARK   18  A    between atoms: O_47  and  C_29 
REMARK   19  A    between atoms: N_42  and  C_31 
ROOT
HETATM    1  C   UNK N   1      -3.725   7.999  -0.607  0.00  0.00     0.214 C 
HETATM    2  N   UNK N   1      -2.581   8.153  -1.182  0.00  0.00    -0.342 N 
ATOM      3  HN  UNK N   1      -2.555   8.197  -2.201  1.00  0.00     0.164 HD
HETATM    4  O   UNK N   1      -3.805   7.911   0.736  0.00  0.00    -0.333 OA
HETATM    5  H   UNK N   1      -3.885   7.929   1.670  0.00  0.00     0.220 HD
ENDROOT
BRANCH   1   6
HETATM    6  N   UNK N   1      -4.907   7.999  -1.407  0.00  0.00    -0.343 N 
HETATM    7  H   UNK N   1      -4.823   7.674  -2.332  0.00  0.00     0.164 HD
BRANCH   6   8
HETATM    8  C   UNK N   1      -6.233   8.438  -0.974  0.00  0.00     0.182 C 
BRANCH   8   9
HETATM    9  C   UNK N   1      -6.212   9.394   0.253  0.00  0.00     0.131 C 
HETATM   10  C   UNK N   1      -5.221  10.546  -0.014  0.00  0.00     0.048 C 
HETATM   11  C   UNK N   1      -5.332  11.610   1.063  0.00  0.00     0.140 C 
HETATM   12  N   UNK N   1      -6.672  12.140   1.062  0.00  0.00    -0.227 N 
HETATM   13  C   UNK N   1      -7.775  11.282   0.816  0.00  0.00     0.667 C 
HETATM   14  H   UNK N   1      -6.822  13.098   1.232  0.00  0.00     0.177 HD
HETATM   15  N   UNK N   1      -8.968  11.731   0.904  0.00  0.00    -0.235 N 
HETATM   16  N   UNK N   1      -7.548   9.914   0.495  0.00  0.00    -0.220 N 
HETATM   17  H   UNK N   1      -9.127  12.700   0.971  0.00  0.00     0.174 HD
ATOM     18  HN  UNK N   1      -9.756  11.084   0.904  1.00  0.00     0.174 HD
HETATM   19  H   UNK N   1      -8.317   9.303   0.435  0.00  0.00     0.178 HD
ENDBRANCH   8   9
BRANCH   8  20
HETATM   20  C   UNK N   1      -7.099   7.219  -0.785  0.00  0.00     0.137 C 
HETATM   21  N   UNK N   1      -7.458   6.860   0.406  0.00  0.00    -0.361 N 
ATOM     22  HN  UNK N   1      -7.214   7.486   1.173  1.00  0.00     0.162 HD
BRANCH  21  23
HETATM   23  C   UNK N   1      -8.180   5.642   0.750  0.00  0.00     0.158 C 
BRANCH  23  24
HETATM   24  C   UNK N   1      -9.698   5.881   0.720  0.00  0.00     0.037 C 
BRANCH  24  25
HETATM   25  C   UNK N   1     -10.236   6.471  -0.573  0.00  0.00    -0.020 C 
HETATM   26  C   UNK N   1     -11.066   5.440  -1.309  0.00  0.00     0.009 C 
HETATM   27  C   UNK N   1     -11.120   7.651  -0.227  0.00  0.00     0.009 C 
ENDBRANCH  24  25
ENDBRANCH  23  24
BRANCH  23  28
HETATM   28  C   UNK N   1      -7.713   4.428  -0.043  0.00  0.00     0.135 C 
HETATM   29  N   UNK N   1      -6.496   3.970  -0.032  0.00  0.00    -0.362 N 
ATOM     30  HN  UNK N   1      -6.369   3.164  -0.644  1.00  0.00     0.162 HD
BRANCH  29  31
HETATM   31  C   UNK N   1      -5.266   4.358   0.668  0.00  0.00     0.149 C 
BRANCH  31  32
HETATM   32  C   UNK N   1      -4.732   3.158   1.466  0.00  0.00     0.070 C 
BRANCH  32  33
HETATM   33  C   UNK N   1      -4.787   1.878   0.700  0.00  0.00    -0.056 A 
HETATM   34  C   UNK N   1      -3.670   1.422  -0.003  0.00  0.00     0.007 A 
HETATM   35  C   UNK N   1      -3.742   0.232  -0.733  0.00  0.00     0.001 A 
HETATM   36  C   UNK N   1      -4.932  -0.503  -0.758  0.00  0.00     0.000 A 
HETATM   37  C   UNK N   1      -6.048  -0.051  -0.049  0.00  0.00     0.001 A 
HETATM   38  C   UNK N   1      -5.975   1.137   0.680  0.00  0.00     0.007 A 
ENDBRANCH  32  33
ENDBRANCH  31  32
BRANCH  31  39
HETATM   39  C   UNK N   1      -5.364   5.560   1.567  0.00  0.00     0.256 C 
HETATM   40  O   UNK N   1      -5.085   5.510   2.756  0.00  0.00    -0.305 OA
ENDBRANCH  31  39
ENDBRANCH  29  31
BRANCH  28  41
HETATM   41  O   UNK N   1      -8.614   3.779  -0.805  0.00  0.00    -0.348 OA
HETATM   42  H   UNK N   1      -9.318   4.096  -1.335  0.00  0.00     0.219 HD
ENDBRANCH  28  41
ENDBRANCH  23  28
ENDBRANCH  21  23
BRANCH  20  43
HETATM   43  O   UNK N   1      -7.413   6.470  -1.864  0.00  0.00    -0.348 OA
HETATM   44  H   UNK N   1      -7.972   6.399  -2.613  0.00  0.00     0.219 HD
ENDBRANCH  20  43
ENDBRANCH   8  20
ENDBRANCH   6   8
ENDBRANCH   1   6
BRANCH   2  45
HETATM   45  C   UNK N   1      -1.326   8.267  -0.454  0.00  0.00     0.187 C 
BRANCH  45  46
HETATM   46  C   UNK N   1      -0.266   7.350  -1.064  0.00  0.00     0.074 C 
BRANCH  46  47
HETATM   47  C   UNK N   1      -0.549   5.895  -0.876  0.00  0.00    -0.056 A 
HETATM   48  C   UNK N   1       0.310   5.125  -0.084  0.00  0.00     0.007 A 
HETATM   49  C   UNK N   1       0.077   3.757   0.078  0.00  0.00     0.001 A 
HETATM   50  C   UNK N   1      -1.011   3.154  -0.560  0.00  0.00     0.000 A 
HETATM   51  C   UNK N   1      -1.868   3.920  -1.357  0.00  0.00     0.001 A 
HETATM   52  C   UNK N   1      -1.637   5.288  -1.517  0.00  0.00     0.007 A 
ENDBRANCH  46  47
ENDBRANCH  45  46
BRANCH  45  53
HETATM   53  C   UNK N   1      -0.839   9.690  -0.527  0.00  0.00     0.163 C 
HETATM   54  O   UNK N   1      -1.481  10.540  -1.126  0.00  0.00    -0.648 OA
BRANCH  53  55
HETATM   55  O   UNK N   1       0.304  10.041   0.094  0.00  0.00    -0.775 OA
HETATM   56  H   UNK N   1       0.912   9.474   0.526  0.00  0.00     0.167 HD
ENDBRANCH  53  55
ENDBRANCH  45  53
ENDBRANCH   2  45
TORSDOF 19
