REMARK  9 active torsions:
REMARK  status: ('A' for Active; 'I' for Inactive)
REMARK    1  A    between atoms: C_2  and  N_1 
REMARK    2  A    between atoms: C_2  and  C_3 
REMARK    3  A    between atoms: C_2  and  C_11 
REMARK    4  A    between atoms: C_3  and  C_4 
REMARK    5  A    between atoms: C_4  and  O_6 
REMARK    6  A    between atoms: O_6  and  P_7 
REMARK    7  A    between atoms: P_7  and  O_8 
REMARK    8  A    between atoms: P_7  and  O_9 
REMARK    9  A    between atoms: C_11  and  O_12 
ROOT
HETATM    1  C   UNK N   1       4.364   1.392   0.548  0.00  0.00     0.147 C 
ENDROOT
BRANCH   1   2
HETATM    2  C   UNK N   1       5.570   1.713  -0.335  0.00  0.00     0.182 C 
BRANCH   2   3
HETATM    3  N   UNK N   1       5.940   3.110  -0.154  0.00  0.00    -0.417 N 
HETATM    4  H   UNK N   1       6.917   3.374  -0.026  0.00  0.00     0.150 HD
HETATM    5  H   UNK N   1       5.217   3.829  -0.154  0.00  0.00     0.150 HD
ENDBRANCH   2   3
BRANCH   2   6
HETATM    6  C   UNK N   1       6.734   0.822  -0.010  0.00  0.00     0.163 C 
HETATM    7  O   UNK N   1       6.635  -0.385  -0.159  0.00  0.00    -0.648 OA
BRANCH   6   8
HETATM    8  O   UNK N   1       7.903   1.345   0.414  0.00  0.00    -0.775 OA
HETATM    9  H   UNK N   1       8.624   0.824   0.708  0.00  0.00     0.167 HD
ENDBRANCH   6   8
ENDBRANCH   2   6
ENDBRANCH   1   2
BRANCH   1  10
HETATM   10  C   UNK N   1       3.097   1.982  -0.006  0.00  0.00     0.269 C 
HETATM   11  O   UNK N   1       3.097   3.121  -0.449  0.00  0.00    -0.265 OA
BRANCH  10  12
HETATM   12  O   UNK N   1       1.948   1.251   0.018  0.00  0.00    -0.220 OA
BRANCH  12  13
HETATM   13  P   UNK N   1       0.444   1.806  -0.638  0.00  0.00     0.398 P 
HETATM   14  O   UNK N   1       0.554   2.828   0.528  0.00  0.00    -0.631 OA
BRANCH  13  15
HETATM   15  O   UNK N   1      -1.077   1.609   0.174  0.00  0.00    -0.307 OA
HETATM   16  H   UNK N   1      -1.598   2.291   0.628  0.00  0.00     0.222 HD
ENDBRANCH  13  15
BRANCH  13  17
HETATM   17  O   UNK N   1       0.252   0.232   0.069  0.00  0.00    -0.307 OA
HETATM   18  H   UNK N   1      -0.563  -0.115   0.464  0.00  0.00     0.222 HD
ENDBRANCH  13  17
ENDBRANCH  12  13
ENDBRANCH  10  12
ENDBRANCH   1  10
TORSDOF 9
