MODEL 1
REMARK VINA RESULT:      -7.3      0.000      0.000
REMARK  17 active torsions:
REMARK  status: ('A' for Active; 'I' for Inactive)
REMARK    1  A    between atoms: C_1  and  N_2 
REMARK    2  A    between atoms: C_4  and  O_9 
REMARK    3  A    between atoms: C_7  and  C_13 
REMARK    4  A    between atoms: C_8  and  O_14 
REMARK    5  A    between atoms: C_13  and  O_16 
REMARK    6  A    between atoms: O_16  and  P_18 
REMARK    7  A    between atoms: P_18  and  O_19 
REMARK    8  A    between atoms: P_18  and  O_20 
REMARK    9  A    between atoms: O_19  and  P_22 
REMARK   10  A    between atoms: P_22  and  O_23 
REMARK   11  A    between atoms: P_22  and  O_24 
REMARK   12  A    between atoms: C_26  and  O_23 
REMARK   13  A    between atoms: C_28  and  O_31 
REMARK   14  A    between atoms: C_29  and  C_33 
REMARK   15  A    between atoms: C_30  and  O_34 
REMARK   16  A    between atoms: C_32  and  O_35 
REMARK   17  A    between atoms: C_33  and  O_36 
ROOT
HETATM    1  P   UNK N   1      25.871  15.637   5.278  0.00  0.00     0.401 P 
HETATM    2  O   UNK N   1      27.027  15.556   6.311  0.00  0.00    -0.631 OA
ENDROOT
BRANCH   1   3
HETATM    3  O   UNK N   1      24.739  14.374   5.652  0.00  0.00    -0.294 OA
BRANCH   3   4
HETATM    4  C   UNK N   1      24.002  14.873   6.722  0.00  0.00     0.215 C 
BRANCH   4   5
HETATM    5  C   UNK N   1      22.507  14.793   6.437  0.00  0.00     0.180 C 
HETATM    6  O   UNK N   1      22.045  13.479   6.679  0.00  0.00    -0.353 OA
HETATM    7  C   UNK N   1      21.379  13.503   7.923  0.00  0.00     0.263 C 
HETATM    8  C   UNK N   1      20.785  14.903   8.039  0.00  0.00     0.198 C 
HETATM    9  C   UNK N   1      21.762  15.770   7.321  0.00  0.00     0.182 C 
BRANCH   7  10
HETATM   10  N   UNK N   1      22.269  13.084   9.032  0.00  0.00    -0.280 N 
HETATM   11  C   UNK N   1      21.749  12.703  10.256  0.00  0.00     0.331 A 
HETATM   12  N   UNK N   1      22.584  12.282  11.258  0.00  0.00    -0.275 N 
HETATM   13  O   UNK N   1      20.546  12.713  10.450  0.00  0.00    -0.246 OA
HETATM   14  C   UNK N   1      23.937  12.218  11.064  0.00  0.00     0.250 A 
HETATM   15  H   UNK N   1      22.207  12.022  12.129  0.00  0.00     0.173 HD
HETATM   16  O   UNK N   1      24.666  11.845  11.964  0.00  0.00    -0.268 OA
HETATM   17  C   UNK N   1      24.475  12.571   9.836  0.00  0.00     0.092 A 
HETATM   18  C   UNK N   1      23.617  12.995   8.828  0.00  0.00     0.104 A 
ENDBRANCH   7  10
BRANCH   8  19
HETATM   19  O   UNK N   1      20.583  15.351   9.343  0.00  0.00    -0.388 OA
HETATM   20  H   UNK N   1      20.842  15.168  10.260  0.00  0.00     0.210 HD
ENDBRANCH   8  19
BRANCH   9  21
HETATM   21  O   UNK N   1      21.068  16.689   6.532  0.00  0.00    -0.390 OA
HETATM   22  H   UNK N   1      21.137  17.641   6.708  0.00  0.00     0.210 HD
ENDBRANCH   9  21
ENDBRANCH   4   5
ENDBRANCH   3   4
ENDBRANCH   1   3
BRANCH   1  23
HETATM   23  O   UNK N   1      25.087  17.176   5.506  0.00  0.00    -0.195 OA
BRANCH  23  24
HETATM   24  P   UNK N   1      23.968  17.408   4.191  0.00  0.00     0.404 P 
HETATM   25  O   UNK N   1      25.308  17.991   3.663  0.00  0.00    -0.631 OA
BRANCH  24  26
HETATM   26  O   UNK N   1      23.572  19.058   3.823  0.00  0.00    -0.263 OA
BRANCH  26  27
HETATM   27  C   UNK N   1      22.179  19.149   3.760  0.00  0.00     0.303 C 
HETATM   28  O   UNK N   1      21.684  17.858   3.494  0.00  0.00    -0.348 OA
HETATM   29  C   UNK N   1      20.280  17.898   3.540  0.00  0.00     0.179 C 
HETATM   30  C   UNK N   1      19.775  18.674   2.313  0.00  0.00     0.180 C 
HETATM   31  C   UNK N   1      20.300  20.103   2.415  0.00  0.00     0.183 C 
HETATM   32  C   UNK N   1      21.811  20.096   2.611  0.00  0.00     0.205 C 
BRANCH  29  33
HETATM   33  C   UNK N   1      19.777  16.459   3.545  0.00  0.00     0.198 C 
BRANCH  33  34
HETATM   34  O   UNK N   1      19.546  16.012   2.244  0.00  0.00    -0.398 OA
HETATM   35  H   UNK N   1      19.581  16.394   1.352  0.00  0.00     0.209 HD
ENDBRANCH  33  34
ENDBRANCH  29  33
BRANCH  30  36
HETATM   36  O   UNK N   1      18.380  18.697   2.270  0.00  0.00    -0.390 OA
HETATM   37  H   UNK N   1      17.773  19.104   1.631  0.00  0.00     0.210 HD
ENDBRANCH  30  36
BRANCH  31  38
HETATM   38  O   UNK N   1      19.975  20.817   1.260  0.00  0.00    -0.390 OA
HETATM   39  H   UNK N   1      20.636  21.009   0.578  0.00  0.00     0.210 HD
ENDBRANCH  31  38
BRANCH  32  40
HETATM   40  O   UNK N   1      22.254  21.390   2.892  0.00  0.00    -0.388 OA
HETATM   41  H   UNK N   1      21.690  22.178   2.891  0.00  0.00     0.210 HD
ENDBRANCH  32  40
ENDBRANCH  26  27
ENDBRANCH  24  26
BRANCH  24  42
HETATM   42  O   UNK N   1      23.357  18.262   5.578  0.00  0.00    -0.307 OA
HETATM   43  H   UNK N   1      23.006  18.057   6.458  0.00  0.00     0.222 HD
ENDBRANCH  24  42
ENDBRANCH  23  24
ENDBRANCH   1  23
BRANCH   1  44
HETATM   44  O   UNK N   1      26.553  15.426   3.691  0.00  0.00    -0.307 OA
HETATM   45  H   UNK N   1      27.344  15.216   3.169  0.00  0.00     0.222 HD
ENDBRANCH   1  44
TORSDOF 17
ENDMDL
MODEL 2
REMARK VINA RESULT:      -7.3      9.345     12.179
REMARK  17 active torsions:
REMARK  status: ('A' for Active; 'I' for Inactive)
REMARK    1  A    between atoms: C_1  and  N_2 
REMARK    2  A    between atoms: C_4  and  O_9 
REMARK    3  A    between atoms: C_7  and  C_13 
REMARK    4  A    between atoms: C_8  and  O_14 
REMARK    5  A    between atoms: C_13  and  O_16 
REMARK    6  A    between atoms: O_16  and  P_18 
REMARK    7  A    between atoms: P_18  and  O_19 
REMARK    8  A    between atoms: P_18  and  O_20 
REMARK    9  A    between atoms: O_19  and  P_22 
REMARK   10  A    between atoms: P_22  and  O_23 
REMARK   11  A    between atoms: P_22  and  O_24 
REMARK   12  A    between atoms: C_26  and  O_23 
REMARK   13  A    between atoms: C_28  and  O_31 
REMARK   14  A    between atoms: C_29  and  C_33 
REMARK   15  A    between atoms: C_30  and  O_34 
REMARK   16  A    between atoms: C_32  and  O_35 
REMARK   17  A    between atoms: C_33  and  O_36 
ROOT
HETATM    1  P   UNK N   1      35.536  15.949  10.167  0.00  0.00     0.401 P 
HETATM    2  O   UNK N   1      34.610  15.525  11.337  0.00  0.00    -0.631 OA
ENDROOT
BRANCH   1   3
HETATM    3  O   UNK N   1      35.168  14.932   8.807  0.00  0.00    -0.294 OA
BRANCH   3   4
HETATM    4  C   UNK N   1      34.254  14.007   9.302  0.00  0.00     0.215 C 
BRANCH   4   5
HETATM    5  C   UNK N   1      34.557  12.609   8.779  0.00  0.00     0.180 C 
HETATM    6  O   UNK N   1      35.886  12.254   9.108  0.00  0.00    -0.353 OA
HETATM    7  C   UNK N   1      35.813  11.371  10.206  0.00  0.00     0.263 C 
HETATM    8  C   UNK N   1      34.497  10.618  10.035  0.00  0.00     0.198 C 
HETATM    9  C   UNK N   1      33.594  11.611   9.389  0.00  0.00     0.182 C 
BRANCH   7  10
HETATM   10  N   UNK N   1      35.990  12.081  11.496  0.00  0.00    -0.280 N 
HETATM   11  C   UNK N   1      37.159  12.766  11.775  0.00  0.00     0.331 A 
HETATM   12  N   UNK N   1      37.292  13.448  12.956  0.00  0.00    -0.275 N 
HETATM   13  O   UNK N   1      38.072  12.792  10.968  0.00  0.00    -0.246 OA
HETATM   14  C   UNK N   1      36.274  13.476  13.870  0.00  0.00     0.250 A 
HETATM   15  H   UNK N   1      38.131  13.925  13.151  0.00  0.00     0.173 HD
HETATM   16  O   UNK N   1      36.407  14.084  14.915  0.00  0.00    -0.268 OA
HETATM   17  C   UNK N   1      35.085  12.817  13.597  0.00  0.00     0.092 A 
HETATM   18  C   UNK N   1      34.963  12.130  12.394  0.00  0.00     0.104 A 
ENDBRANCH   7  10
BRANCH   8  19
HETATM   19  O   UNK N   1      33.941  10.131  11.217  0.00  0.00    -0.388 OA
HETATM   20  H   UNK N   1      34.038   9.419  11.868  0.00  0.00     0.210 HD
ENDBRANCH   8  19
BRANCH   9  21
HETATM   21  O   UNK N   1      32.865  10.981   8.380  0.00  0.00    -0.390 OA
HETATM   22  H   UNK N   1      33.162  11.022   7.457  0.00  0.00     0.210 HD
ENDBRANCH   9  21
ENDBRANCH   4   5
ENDBRANCH   3   4
ENDBRANCH   1   3
BRANCH   1  23
HETATM   23  O   UNK N   1      35.128  17.594   9.760  0.00  0.00    -0.195 OA
BRANCH  23  24
HETATM   24  P   UNK N   1      34.268  17.574   8.245  0.00  0.00     0.404 P 
HETATM   25  O   UNK N   1      34.737  19.046   8.402  0.00  0.00    -0.631 OA
BRANCH  24  26
HETATM   26  O   UNK N   1      32.785  18.475   8.212  0.00  0.00    -0.263 OA
BRANCH  26  27
HETATM   27  C   UNK N   1      31.750  17.567   7.971  0.00  0.00     0.303 C 
HETATM   28  O   UNK N   1      31.754  17.279   6.592  0.00  0.00    -0.348 OA
HETATM   29  C   UNK N   1      30.798  16.281   6.339  0.00  0.00     0.179 C 
HETATM   30  C   UNK N   1      29.398  16.891   6.517  0.00  0.00     0.180 C 
HETATM   31  C   UNK N   1      29.260  17.331   7.971  0.00  0.00     0.183 C 
HETATM   32  C   UNK N   1      30.425  18.235   8.360  0.00  0.00     0.205 C 
BRANCH  29  33
HETATM   33  C   UNK N   1      31.019  15.779   4.918  0.00  0.00     0.198 C 
BRANCH  33  34
HETATM   34  O   UNK N   1      30.263  16.519   4.008  0.00  0.00    -0.398 OA
HETATM   35  H   UNK N   1      29.995  16.428   3.080  0.00  0.00     0.209 HD
ENDBRANCH  33  34
ENDBRANCH  29  33
BRANCH  30  36
HETATM   36  O   UNK N   1      28.401  15.961   6.220  0.00  0.00    -0.390 OA
HETATM   37  H   UNK N   1      28.151  15.548   5.378  0.00  0.00     0.210 HD
ENDBRANCH  30  36
BRANCH  31  38
HETATM   38  O   UNK N   1      28.054  18.008   8.155  0.00  0.00    -0.390 OA
HETATM   39  H   UNK N   1      27.872  18.515   8.962  0.00  0.00     0.210 HD
ENDBRANCH  31  38
BRANCH  32  40
HETATM   40  O   UNK N   1      30.393  18.476   9.735  0.00  0.00    -0.388 OA
HETATM   41  H   UNK N   1      29.929  19.217  10.154  0.00  0.00     0.210 HD
ENDBRANCH  32  40
ENDBRANCH  26  27
ENDBRANCH  24  26
BRANCH  24  42
HETATM   42  O   UNK N   1      33.169  17.076   9.498  0.00  0.00    -0.307 OA
HETATM   43  H   UNK N   1      32.700  17.470  10.250  0.00  0.00     0.222 HD
ENDBRANCH  24  42
ENDBRANCH  23  24
ENDBRANCH   1  23
BRANCH   1  44
HETATM   44  O   UNK N   1      37.185  15.742  10.683  0.00  0.00    -0.307 OA
HETATM   45  H   UNK N   1      38.107  16.029  10.587  0.00  0.00     0.222 HD
ENDBRANCH   1  44
TORSDOF 17
ENDMDL
MODEL 3
REMARK VINA RESULT:      -7.2      9.018     11.982
REMARK  17 active torsions:
REMARK  status: ('A' for Active; 'I' for Inactive)
REMARK    1  A    between atoms: C_1  and  N_2 
REMARK    2  A    between atoms: C_4  and  O_9 
REMARK    3  A    between atoms: C_7  and  C_13 
REMARK    4  A    between atoms: C_8  and  O_14 
REMARK    5  A    between atoms: C_13  and  O_16 
REMARK    6  A    between atoms: O_16  and  P_18 
REMARK    7  A    between atoms: P_18  and  O_19 
REMARK    8  A    between atoms: P_18  and  O_20 
REMARK    9  A    between atoms: O_19  and  P_22 
REMARK   10  A    between atoms: P_22  and  O_23 
REMARK   11  A    between atoms: P_22  and  O_24 
REMARK   12  A    between atoms: C_26  and  O_23 
REMARK   13  A    between atoms: C_28  and  O_31 
REMARK   14  A    between atoms: C_29  and  C_33 
REMARK   15  A    between atoms: C_30  and  O_34 
REMARK   16  A    between atoms: C_32  and  O_35 
REMARK   17  A    between atoms: C_33  and  O_36 
ROOT
HETATM    1  P   UNK N   1      34.259  15.307   9.796  0.00  0.00     0.401 P 
HETATM    2  O   UNK N   1      33.893  14.598   8.466  0.00  0.00    -0.631 OA
ENDROOT
BRANCH   1   3
HETATM    3  O   UNK N   1      35.858  14.797  10.244  0.00  0.00    -0.294 OA
BRANCH   3   4
HETATM    4  C   UNK N   1      35.705  14.246  11.513  0.00  0.00     0.215 C 
BRANCH   4   5
HETATM    5  C   UNK N   1      36.921  13.412  11.894  0.00  0.00     0.180 C 
HETATM    6  O   UNK N   1      36.505  12.242  12.570  0.00  0.00    -0.353 OA
HETATM    7  C   UNK N   1      36.595  11.182  11.642  0.00  0.00     0.263 C 
HETATM    8  C   UNK N   1      37.748  11.550  10.714  0.00  0.00     0.198 C 
HETATM    9  C   UNK N   1      37.699  13.037  10.649  0.00  0.00     0.182 C 
BRANCH   7  10
HETATM   10  N   UNK N   1      35.293  10.916  10.984  0.00  0.00    -0.280 N 
HETATM   11  C   UNK N   1      34.270  10.280  11.664  0.00  0.00     0.331 A 
HETATM   12  N   UNK N   1      33.060  10.075  11.053  0.00  0.00    -0.275 N 
HETATM   13  O   UNK N   1      34.422   9.916  12.817  0.00  0.00    -0.246 OA
HETATM   14  C   UNK N   1      32.838  10.505   9.773  0.00  0.00     0.250 A 
HETATM   15  H   UNK N   1      32.341   9.613  11.540  0.00  0.00     0.173 HD
HETATM   16  O   UNK N   1      31.760  10.314   9.243  0.00  0.00    -0.268 OA
HETATM   17  C   UNK N   1      33.843  11.168   9.084  0.00  0.00     0.092 A 
HETATM   18  C   UNK N   1      35.064  11.370   9.716  0.00  0.00     0.104 A 
ENDBRANCH   7  10
BRANCH   8  19
HETATM   19  O   UNK N   1      37.677  10.991   9.439  0.00  0.00    -0.388 OA
HETATM   20  H   UNK N   1      38.146  10.381   8.847  0.00  0.00     0.210 HD
ENDBRANCH   8  19
BRANCH   9  21
HETATM   21  O   UNK N   1      38.997  13.544  10.731  0.00  0.00    -0.390 OA
HETATM   22  H   UNK N   1      39.407  13.974   9.964  0.00  0.00     0.210 HD
ENDBRANCH   9  21
ENDBRANCH   4   5
ENDBRANCH   3   4
ENDBRANCH   1   3
BRANCH   1  23
HETATM   23  O   UNK N   1      34.289  17.020   9.475  0.00  0.00    -0.195 OA
BRANCH  23  24
HETATM   24  P   UNK N   1      33.314  17.317   8.062  0.00  0.00     0.404 P 
HETATM   25  O   UNK N   1      34.001  18.680   8.349  0.00  0.00    -0.631 OA
BRANCH  24  26
HETATM   26  O   UNK N   1      31.977  18.401   8.286  0.00  0.00    -0.263 OA
BRANCH  26  27
HETATM   27  C   UNK N   1      30.809  17.635   8.260  0.00  0.00     0.303 C 
HETATM   28  O   UNK N   1      30.483  17.410   6.909  0.00  0.00    -0.348 OA
HETATM   29  C   UNK N   1      29.376  16.545   6.853  0.00  0.00     0.179 C 
HETATM   30  C   UNK N   1      28.135  17.310   7.340  0.00  0.00     0.180 C 
HETATM   31  C   UNK N   1      28.368  17.700   8.797  0.00  0.00     0.183 C 
HETATM   32  C   UNK N   1      29.692  18.439   8.939  0.00  0.00     0.205 C 
BRANCH  29  33
HETATM   33  C   UNK N   1      29.224  16.083   5.409  0.00  0.00     0.198 C 
BRANCH  33  34
HETATM   34  O   UNK N   1      28.542  14.867   5.348  0.00  0.00    -0.398 OA
HETATM   35  H   UNK N   1      28.685  13.964   5.673  0.00  0.00     0.209 HD
ENDBRANCH  33  34
ENDBRANCH  29  33
BRANCH  30  36
HETATM   36  O   UNK N   1      26.988  16.519   7.252  0.00  0.00    -0.390 OA
HETATM   37  H   UNK N   1      26.609  15.882   7.879  0.00  0.00     0.210 HD
ENDBRANCH  30  36
BRANCH  31  38
HETATM   38  O   UNK N   1      27.323  18.507   9.250  0.00  0.00    -0.390 OA
HETATM   39  H   UNK N   1      26.511  18.627   8.734  0.00  0.00     0.210 HD
ENDBRANCH  31  38
BRANCH  32  40
HETATM   40  O   UNK N   1      29.985  18.622  10.292  0.00  0.00    -0.388 OA
HETATM   41  H   UNK N   1      30.111  19.485  10.717  0.00  0.00     0.210 HD
ENDBRANCH  32  40
ENDBRANCH  26  27
ENDBRANCH  24  26
BRANCH  24  42
HETATM   42  O   UNK N   1      32.260  16.804   9.347  0.00  0.00    -0.307 OA
HETATM   43  H   UNK N   1      32.128  16.024   9.909  0.00  0.00     0.222 HD
ENDBRANCH  24  42
ENDBRANCH  23  24
ENDBRANCH   1  23
BRANCH   1  44
HETATM   44  O   UNK N   1      33.087  14.839  10.995  0.00  0.00    -0.307 OA
HETATM   45  H   UNK N   1      32.156  14.639  11.185  0.00  0.00     0.222 HD
ENDBRANCH   1  44
TORSDOF 17
ENDMDL
MODEL 4
REMARK VINA RESULT:      -7.2      2.124      4.778
REMARK  17 active torsions:
REMARK  status: ('A' for Active; 'I' for Inactive)
REMARK    1  A    between atoms: C_1  and  N_2 
REMARK    2  A    between atoms: C_4  and  O_9 
REMARK    3  A    between atoms: C_7  and  C_13 
REMARK    4  A    between atoms: C_8  and  O_14 
REMARK    5  A    between atoms: C_13  and  O_16 
REMARK    6  A    between atoms: O_16  and  P_18 
REMARK    7  A    between atoms: P_18  and  O_19 
REMARK    8  A    between atoms: P_18  and  O_20 
REMARK    9  A    between atoms: O_19  and  P_22 
REMARK   10  A    between atoms: P_22  and  O_23 
REMARK   11  A    between atoms: P_22  and  O_24 
REMARK   12  A    between atoms: C_26  and  O_23 
REMARK   13  A    between atoms: C_28  and  O_31 
REMARK   14  A    between atoms: C_29  and  C_33 
REMARK   15  A    between atoms: C_30  and  O_34 
REMARK   16  A    between atoms: C_32  and  O_35 
REMARK   17  A    between atoms: C_33  and  O_36 
ROOT
HETATM    1  P   UNK N   1      20.643  15.186   7.806  0.00  0.00     0.401 P 
HETATM    2  O   UNK N   1      19.444  15.312   6.829  0.00  0.00    -0.631 OA
ENDROOT
BRANCH   1   3
HETATM    3  O   UNK N   1      20.368  13.789   8.802  0.00  0.00    -0.294 OA
BRANCH   3   4
HETATM    4  C   UNK N   1      21.430  13.788   9.701  0.00  0.00     0.215 C 
BRANCH   4   5
HETATM    5  C   UNK N   1      21.732  12.375  10.184  0.00  0.00     0.180 C 
HETATM    6  O   UNK N   1      22.197  11.590   9.104  0.00  0.00    -0.353 OA
HETATM    7  C   UNK N   1      23.597  11.486   9.247  0.00  0.00     0.263 C 
HETATM    8  C   UNK N   1      23.856  11.530  10.750  0.00  0.00     0.198 C 
HETATM    9  C   UNK N   1      22.781  12.418  11.276  0.00  0.00     0.182 C 
BRANCH   7  10
HETATM   10  N   UNK N   1      24.310  12.502   8.437  0.00  0.00    -0.280 N 
HETATM   11  C   UNK N   1      24.319  12.431   7.055  0.00  0.00     0.331 A 
HETATM   12  N   UNK N   1      24.951  13.400   6.320  0.00  0.00    -0.275 N 
HETATM   13  O   UNK N   1      23.747  11.524   6.476  0.00  0.00    -0.246 OA
HETATM   14  C   UNK N   1      25.569  14.456   6.933  0.00  0.00     0.250 A 
HETATM   15  H   UNK N   1      24.961  13.336   5.338  0.00  0.00     0.173 HD
HETATM   16  O   UNK N   1      26.128  15.306   6.267  0.00  0.00    -0.268 OA
HETATM   17  C   UNK N   1      25.549  14.558   8.316  0.00  0.00     0.092 A 
HETATM   18  C   UNK N   1      24.903  13.570   9.050  0.00  0.00     0.104 A 
ENDBRANCH   7  10
BRANCH   8  19
HETATM   19  O   UNK N   1      25.117  11.999  11.116  0.00  0.00    -0.388 OA
HETATM   20  H   UNK N   1      25.940  11.718  11.546  0.00  0.00     0.210 HD
ENDBRANCH   8  19
BRANCH   9  21
HETATM   21  O   UNK N   1      22.265  11.869  12.451  0.00  0.00    -0.390 OA
HETATM   22  H   UNK N   1      22.855  11.622  13.180  0.00  0.00     0.210 HD
ENDBRANCH   9  21
ENDBRANCH   4   5
ENDBRANCH   3   4
ENDBRANCH   1   3
BRANCH   1  23
HETATM   23  O   UNK N   1      22.067  14.911   6.840  0.00  0.00    -0.195 OA
BRANCH  23  24
HETATM   24  P   UNK N   1      21.881  15.792   5.349  0.00  0.00     0.404 P 
HETATM   25  O   UNK N   1      22.567  14.464   4.928  0.00  0.00    -0.631 OA
BRANCH  24  26
HETATM   26  O   UNK N   1      23.355  16.321   4.600  0.00  0.00    -0.263 OA
BRANCH  26  27
HETATM   27  C   UNK N   1      23.333  17.718   4.574  0.00  0.00     0.303 C 
HETATM   28  O   UNK N   1      22.408  18.106   3.585  0.00  0.00    -0.348 OA
HETATM   29  C   UNK N   1      22.279  19.505   3.615  0.00  0.00     0.179 C 
HETATM   30  C   UNK N   1      23.577  20.125   3.074  0.00  0.00     0.180 C 
HETATM   31  C   UNK N   1      24.713  19.727   4.012  0.00  0.00     0.183 C 
HETATM   32  C   UNK N   1      24.735  18.214   4.198  0.00  0.00     0.205 C 
BRANCH  29  33
HETATM   33  C   UNK N   1      21.075  19.877   2.759  0.00  0.00     0.198 C 
BRANCH  33  34
HETATM   34  O   UNK N   1      20.735  21.218   2.938  0.00  0.00    -0.398 OA
HETATM   35  H   UNK N   1      21.128  21.990   3.376  0.00  0.00     0.209 HD
ENDBRANCH  33  34
ENDBRANCH  29  33
BRANCH  30  36
HETATM   36  O   UNK N   1      23.488  21.517   3.023  0.00  0.00    -0.390 OA
HETATM   37  H   UNK N   1      22.940  22.135   3.533  0.00  0.00     0.210 HD
ENDBRANCH  30  36
BRANCH  31  38
HETATM   38  O   UNK N   1      25.935  20.159   3.496  0.00  0.00    -0.390 OA
HETATM   39  H   UNK N   1      26.541  20.710   4.015  0.00  0.00     0.210 HD
ENDBRANCH  31  38
BRANCH  32  40
HETATM   40  O   UNK N   1      25.649  17.878   5.199  0.00  0.00    -0.388 OA
HETATM   41  H   UNK N   1      25.508  18.027   6.147  0.00  0.00     0.210 HD
ENDBRANCH  32  40
ENDBRANCH  26  27
ENDBRANCH  24  26
BRANCH  24  42
HETATM   42  O   UNK N   1      22.859  16.749   6.424  0.00  0.00    -0.307 OA
HETATM   43  H   UNK N   1      23.313  17.606   6.421  0.00  0.00     0.222 HD
ENDBRANCH  24  42
ENDBRANCH  23  24
ENDBRANCH   1  23
BRANCH   1  44
HETATM   44  O   UNK N   1      20.713  16.639   8.761  0.00  0.00    -0.307 OA
HETATM   45  H   UNK N   1      20.592  17.042   9.636  0.00  0.00     0.222 HD
ENDBRANCH   1  44
TORSDOF 17
ENDMDL
MODEL 5
REMARK VINA RESULT:      -7.1      8.793     11.553
REMARK  17 active torsions:
REMARK  status: ('A' for Active; 'I' for Inactive)
REMARK    1  A    between atoms: C_1  and  N_2 
REMARK    2  A    between atoms: C_4  and  O_9 
REMARK    3  A    between atoms: C_7  and  C_13 
REMARK    4  A    between atoms: C_8  and  O_14 
REMARK    5  A    between atoms: C_13  and  O_16 
REMARK    6  A    between atoms: O_16  and  P_18 
REMARK    7  A    between atoms: P_18  and  O_19 
REMARK    8  A    between atoms: P_18  and  O_20 
REMARK    9  A    between atoms: O_19  and  P_22 
REMARK   10  A    between atoms: P_22  and  O_23 
REMARK   11  A    between atoms: P_22  and  O_24 
REMARK   12  A    between atoms: C_26  and  O_23 
REMARK   13  A    between atoms: C_28  and  O_31 
REMARK   14  A    between atoms: C_29  and  C_33 
REMARK   15  A    between atoms: C_30  and  O_34 
REMARK   16  A    between atoms: C_32  and  O_35 
REMARK   17  A    between atoms: C_33  and  O_36 
ROOT
HETATM    1  P   UNK N   1      33.293  13.080   6.963  0.00  0.00     0.401 P 
HETATM    2  O   UNK N   1      34.781  12.641   6.928  0.00  0.00    -0.631 OA
ENDROOT
BRANCH   1   3
HETATM    3  O   UNK N   1      32.796  13.129   8.627  0.00  0.00    -0.294 OA
BRANCH   3   4
HETATM    4  C   UNK N   1      33.957  13.438   9.328  0.00  0.00     0.215 C 
BRANCH   4   5
HETATM    5  C   UNK N   1      33.892  14.852   9.892  0.00  0.00     0.180 C 
HETATM    6  O   UNK N   1      33.804  14.799  11.303  0.00  0.00    -0.353 OA
HETATM    7  C   UNK N   1      35.086  15.111  11.804  0.00  0.00     0.263 C 
HETATM    8  C   UNK N   1      35.697  16.070  10.788  0.00  0.00     0.198 C 
HETATM    9  C   UNK N   1      35.128  15.626   9.484  0.00  0.00     0.182 C 
BRANCH   7  10
HETATM   10  N   UNK N   1      35.872  13.890  12.098  0.00  0.00    -0.280 N 
HETATM   11  C   UNK N   1      35.620  13.136  13.230  0.00  0.00     0.331 A 
HETATM   12  N   UNK N   1      36.332  11.989  13.467  0.00  0.00    -0.275 N 
HETATM   13  O   UNK N   1      34.749  13.469  14.016  0.00  0.00    -0.246 OA
HETATM   14  C   UNK N   1      37.289  11.562  12.588  0.00  0.00     0.250 A 
HETATM   15  H   UNK N   1      36.153  11.465  14.281  0.00  0.00     0.173 HD
HETATM   16  O   UNK N   1      37.914  10.543  12.813  0.00  0.00    -0.268 OA
HETATM   17  C   UNK N   1      37.539  12.289  11.434  0.00  0.00     0.092 A 
HETATM   18  C   UNK N   1      36.809  13.450  11.205  0.00  0.00     0.104 A 
ENDBRANCH   7  10
BRANCH   8  19
HETATM   19  O   UNK N   1      37.091  16.074  10.749  0.00  0.00    -0.388 OA
HETATM   20  H   UNK N   1      37.836  16.222  10.145  0.00  0.00     0.210 HD
ENDBRANCH   8  19
BRANCH   9  21
HETATM   21  O   UNK N   1      34.759  16.747   8.738  0.00  0.00    -0.390 OA
HETATM   22  H   UNK N   1      35.356  17.107   8.062  0.00  0.00     0.210 HD
ENDBRANCH   9  21
ENDBRANCH   4   5
ENDBRANCH   3   4
ENDBRANCH   1   3
BRANCH   1  23
HETATM   23  O   UNK N   1      33.219  14.694   6.311  0.00  0.00    -0.195 OA
BRANCH  23  24
HETATM   24  P   UNK N   1      31.676  15.377   6.742  0.00  0.00     0.404 P 
HETATM   25  O   UNK N   1      31.374  14.503   5.495  0.00  0.00    -0.631 OA
BRANCH  24  26
HETATM   26  O   UNK N   1      31.012  16.511   5.608  0.00  0.00    -0.263 OA
BRANCH  26  27
HETATM   27  C   UNK N   1      30.005  17.221   6.267  0.00  0.00     0.303 C 
HETATM   28  O   UNK N   1      30.472  17.507   7.564  0.00  0.00    -0.348 OA
HETATM   29  C   UNK N   1      29.527  18.321   8.212  0.00  0.00     0.179 C 
HETATM   30  C   UNK N   1      28.283  17.473   8.519  0.00  0.00     0.180 C 
HETATM   31  C   UNK N   1      27.691  17.013   7.190  0.00  0.00     0.183 C 
HETATM   32  C   UNK N   1      28.760  16.329   6.346  0.00  0.00     0.205 C 
BRANCH  29  33
HETATM   33  C   UNK N   1      30.174  18.856   9.484  0.00  0.00     0.198 C 
BRANCH  33  34
HETATM   34  O   UNK N   1      29.645  18.227  10.611  0.00  0.00    -0.398 OA
HETATM   35  H   UNK N   1      29.940  18.045  11.517  0.00  0.00     0.209 HD
ENDBRANCH  33  34
ENDBRANCH  29  33
BRANCH  30  36
HETATM   36  O   UNK N   1      27.328  18.213   9.218  0.00  0.00    -0.390 OA
HETATM   37  H   UNK N   1      27.338  19.136   9.518  0.00  0.00     0.210 HD
ENDBRANCH  30  36
BRANCH  31  38
HETATM   38  O   UNK N   1      26.631  16.134   7.416  0.00  0.00    -0.390 OA
HETATM   39  H   UNK N   1      25.802  16.197   6.917  0.00  0.00     0.210 HD
ENDBRANCH  31  38
BRANCH  32  40
HETATM   40  O   UNK N   1      28.261  16.084   5.065  0.00  0.00    -0.388 OA
HETATM   41  H   UNK N   1      27.796  16.738   4.520  0.00  0.00     0.210 HD
ENDBRANCH  32  40
ENDBRANCH  26  27
ENDBRANCH  24  26
BRANCH  24  42
HETATM   42  O   UNK N   1      32.770  16.686   6.404  0.00  0.00    -0.307 OA
HETATM   43  H   UNK N   1      33.653  16.812   6.023  0.00  0.00     0.222 HD
ENDBRANCH  24  42
ENDBRANCH  23  24
ENDBRANCH   1  23
BRANCH   1  44
HETATM   44  O   UNK N   1      32.367  11.916   6.060  0.00  0.00    -0.307 OA
HETATM   45  H   UNK N   1      32.386  11.146   5.469  0.00  0.00     0.222 HD
ENDBRANCH   1  44
TORSDOF 17
ENDMDL
MODEL 6
REMARK VINA RESULT:      -7.1      2.054      4.762
REMARK  17 active torsions:
REMARK  status: ('A' for Active; 'I' for Inactive)
REMARK    1  A    between atoms: C_1  and  N_2 
REMARK    2  A    between atoms: C_4  and  O_9 
REMARK    3  A    between atoms: C_7  and  C_13 
REMARK    4  A    between atoms: C_8  and  O_14 
REMARK    5  A    between atoms: C_13  and  O_16 
REMARK    6  A    between atoms: O_16  and  P_18 
REMARK    7  A    between atoms: P_18  and  O_19 
REMARK    8  A    between atoms: P_18  and  O_20 
REMARK    9  A    between atoms: O_19  and  P_22 
REMARK   10  A    between atoms: P_22  and  O_23 
REMARK   11  A    between atoms: P_22  and  O_24 
REMARK   12  A    between atoms: C_26  and  O_23 
REMARK   13  A    between atoms: C_28  and  O_31 
REMARK   14  A    between atoms: C_29  and  C_33 
REMARK   15  A    between atoms: C_30  and  O_34 
REMARK   16  A    between atoms: C_32  and  O_35 
REMARK   17  A    between atoms: C_33  and  O_36 
ROOT
HETATM    1  P   UNK N   1      20.242  15.262   7.913  0.00  0.00     0.401 P 
HETATM    2  O   UNK N   1      19.435  16.253   8.793  0.00  0.00    -0.631 OA
ENDROOT
BRANCH   1   3
HETATM    3  O   UNK N   1      20.264  13.728   8.728  0.00  0.00    -0.294 OA
BRANCH   3   4
HETATM    4  C   UNK N   1      21.302  13.837   9.647  0.00  0.00     0.215 C 
BRANCH   4   5
HETATM    5  C   UNK N   1      21.829  12.462  10.039  0.00  0.00     0.180 C 
HETATM    6  O   UNK N   1      22.180  11.737   8.876  0.00  0.00    -0.353 OA
HETATM    7  C   UNK N   1      23.587  11.782   8.776  0.00  0.00     0.263 C 
HETATM    8  C   UNK N   1      24.095  11.846  10.213  0.00  0.00     0.198 C 
HETATM    9  C   UNK N   1      23.041  12.612  10.935  0.00  0.00     0.182 C 
BRANCH   7  10
HETATM   10  N   UNK N   1      24.039  12.873   7.880  0.00  0.00    -0.280 N 
HETATM   11  C   UNK N   1      23.360  13.159   6.709  0.00  0.00     0.331 A 
HETATM   12  N   UNK N   1      23.769  14.195   5.911  0.00  0.00    -0.275 N 
HETATM   13  O   UNK N   1      22.379  12.511   6.385  0.00  0.00    -0.246 OA
HETATM   14  C   UNK N   1      24.841  14.970   6.260  0.00  0.00     0.250 A 
HETATM   15  H   UNK N   1      23.286  14.384   5.074  0.00  0.00     0.173 HD
HETATM   16  O   UNK N   1      25.193  15.885   5.540  0.00  0.00    -0.268 OA
HETATM   17  C   UNK N   1      25.518  14.717   7.443  0.00  0.00     0.092 A 
HETATM   18  C   UNK N   1      25.092  13.664   8.244  0.00  0.00     0.104 A 
ENDBRANCH   7  10
BRANCH   8  19
HETATM   19  O   UNK N   1      25.344  12.446  10.368  0.00  0.00    -0.388 OA
HETATM   20  H   UNK N   1      25.781  13.313  10.353  0.00  0.00     0.210 HD
ENDBRANCH   8  19
BRANCH   9  21
HETATM   21  O   UNK N   1      22.795  12.005  12.168  0.00  0.00    -0.390 OA
HETATM   22  H   UNK N   1      23.401  11.331  12.515  0.00  0.00     0.210 HD
ENDBRANCH   9  21
ENDBRANCH   4   5
ENDBRANCH   3   4
ENDBRANCH   1   3
BRANCH   1  23
HETATM   23  O   UNK N   1      19.374  15.084   6.412  0.00  0.00    -0.195 OA
BRANCH  23  24
HETATM   24  P   UNK N   1      19.814  16.414   5.377  0.00  0.00     0.404 P 
HETATM   25  O   UNK N   1      18.342  16.100   4.995  0.00  0.00    -0.631 OA
BRANCH  24  26
HETATM   26  O   UNK N   1      19.908  16.048   3.683  0.00  0.00    -0.263 OA
BRANCH  26  27
HETATM   27  C   UNK N   1      20.752  16.995   3.097  0.00  0.00     0.303 C 
HETATM   28  O   UNK N   1      21.539  17.551   4.125  0.00  0.00    -0.348 OA
HETATM   29  C   UNK N   1      22.478  18.425   3.549  0.00  0.00     0.179 C 
HETATM   30  C   UNK N   1      21.734  19.666   3.031  0.00  0.00     0.180 C 
HETATM   31  C   UNK N   1      20.767  19.213   1.941  0.00  0.00     0.183 C 
HETATM   32  C   UNK N   1      19.882  18.086   2.459  0.00  0.00     0.205 C 
BRANCH  29  33
HETATM   33  C   UNK N   1      23.496  18.783   4.624  0.00  0.00     0.198 C 
BRANCH  33  34
HETATM   34  O   UNK N   1      23.234  18.087   5.804  0.00  0.00    -0.398 OA
HETATM   35  H   UNK N   1      23.752  17.763   6.558  0.00  0.00     0.209 HD
ENDBRANCH  33  34
ENDBRANCH  29  33
BRANCH  30  36
HETATM   36  O   UNK N   1      22.623  20.601   2.499  0.00  0.00    -0.390 OA
HETATM   37  H   UNK N   1      23.100  20.611   1.653  0.00  0.00     0.210 HD
ENDBRANCH  30  36
BRANCH  31  38
HETATM   38  O   UNK N   1      19.976  20.285   1.526  0.00  0.00    -0.390 OA
HETATM   39  H   UNK N   1      20.355  21.160   1.352  0.00  0.00     0.210 HD
ENDBRANCH  31  38
BRANCH  32  40
HETATM   40  O   UNK N   1      19.137  17.552   1.405  0.00  0.00    -0.388 OA
HETATM   41  H   UNK N   1      19.264  16.665   1.034  0.00  0.00     0.210 HD
ENDBRANCH  32  40
ENDBRANCH  26  27
ENDBRANCH  24  26
BRANCH  24  42
HETATM   42  O   UNK N   1      20.897  15.092   5.049  0.00  0.00    -0.307 OA
HETATM   43  H   UNK N   1      21.673  14.674   5.453  0.00  0.00     0.222 HD
ENDBRANCH  24  42
ENDBRANCH  23  24
ENDBRANCH   1  23
BRANCH   1  44
HETATM   44  O   UNK N   1      21.850  15.899   7.721  0.00  0.00    -0.307 OA
HETATM   45  H   UNK N   1      22.725  16.028   8.122  0.00  0.00     0.222 HD
ENDBRANCH   1  44
TORSDOF 17
ENDMDL
MODEL 7
REMARK VINA RESULT:      -6.9      8.818     11.407
REMARK  17 active torsions:
REMARK  status: ('A' for Active; 'I' for Inactive)
REMARK    1  A    between atoms: C_1  and  N_2 
REMARK    2  A    between atoms: C_4  and  O_9 
REMARK    3  A    between atoms: C_7  and  C_13 
REMARK    4  A    between atoms: C_8  and  O_14 
REMARK    5  A    between atoms: C_13  and  O_16 
REMARK    6  A    between atoms: O_16  and  P_18 
REMARK    7  A    between atoms: P_18  and  O_19 
REMARK    8  A    between atoms: P_18  and  O_20 
REMARK    9  A    between atoms: O_19  and  P_22 
REMARK   10  A    between atoms: P_22  and  O_23 
REMARK   11  A    between atoms: P_22  and  O_24 
REMARK   12  A    between atoms: C_26  and  O_23 
REMARK   13  A    between atoms: C_28  and  O_31 
REMARK   14  A    between atoms: C_29  and  C_33 
REMARK   15  A    between atoms: C_30  and  O_34 
REMARK   16  A    between atoms: C_32  and  O_35 
REMARK   17  A    between atoms: C_33  and  O_36 
ROOT
HETATM    1  P   UNK N   1      33.239  13.582   6.916  0.00  0.00     0.401 P 
HETATM    2  O   UNK N   1      34.380  12.585   6.578  0.00  0.00    -0.631 OA
ENDROOT
BRANCH   1   3
HETATM    3  O   UNK N   1      32.793  13.331   8.576  0.00  0.00    -0.294 OA
BRANCH   3   4
HETATM    4  C   UNK N   1      33.961  13.574   9.291  0.00  0.00     0.215 C 
BRANCH   4   5
HETATM    5  C   UNK N   1      33.905  14.931   9.980  0.00  0.00     0.180 C 
HETATM    6  O   UNK N   1      33.834  14.753  11.382  0.00  0.00    -0.353 OA
HETATM    7  C   UNK N   1      35.122  15.018  11.893  0.00  0.00     0.263 C 
HETATM    8  C   UNK N   1      35.724  16.063  10.959  0.00  0.00     0.198 C 
HETATM    9  C   UNK N   1      35.138  15.739   9.628  0.00  0.00     0.182 C 
BRANCH   7  10
HETATM   10  N   UNK N   1      35.911  13.774  12.067  0.00  0.00    -0.280 N 
HETATM   11  C   UNK N   1      35.572  12.847  13.036  0.00  0.00     0.331 A 
HETATM   12  N   UNK N   1      36.289  11.685  13.157  0.00  0.00    -0.275 N 
HETATM   13  O   UNK N   1      34.621  13.039  13.774  0.00  0.00    -0.246 OA
HETATM   14  C   UNK N   1      37.338  11.416  12.321  0.00  0.00     0.250 A 
HETATM   15  H   UNK N   1      36.047  11.036  13.856  0.00  0.00     0.173 HD
HETATM   16  O   UNK N   1      37.966  10.381  12.444  0.00  0.00    -0.268 OA
HETATM   17  C   UNK N   1      37.676  12.321  11.327  0.00  0.00     0.092 A 
HETATM   18  C   UNK N   1      36.940  13.494  11.213  0.00  0.00     0.104 A 
ENDBRANCH   7  10
BRANCH   8  19
HETATM   19  O   UNK N   1      37.116  16.071  10.904  0.00  0.00    -0.388 OA
HETATM   20  H   UNK N   1      37.886  15.485  10.987  0.00  0.00     0.210 HD
ENDBRANCH   8  19
BRANCH   9  21
HETATM   21  O   UNK N   1      34.762  16.922   8.990  0.00  0.00    -0.390 OA
HETATM   22  H   UNK N   1      35.345  17.334   8.333  0.00  0.00     0.210 HD
ENDBRANCH   9  21
ENDBRANCH   4   5
ENDBRANCH   3   4
ENDBRANCH   1   3
BRANCH   1  23
HETATM   23  O   UNK N   1      33.896  15.188   6.751  0.00  0.00    -0.195 OA
BRANCH  23  24
HETATM   24  P   UNK N   1      32.756  16.142   5.844  0.00  0.00     0.404 P 
HETATM   25  O   UNK N   1      33.899  17.135   6.190  0.00  0.00    -0.631 OA
BRANCH  24  26
HETATM   26  O   UNK N   1      31.946  17.393   6.735  0.00  0.00    -0.263 OA
BRANCH  26  27
HETATM   27  C   UNK N   1      30.588  17.064   6.777  0.00  0.00     0.303 C 
HETATM   28  O   UNK N   1      30.035  17.399   5.526  0.00  0.00    -0.348 OA
HETATM   29  C   UNK N   1      28.696  16.974   5.499  0.00  0.00     0.179 C 
HETATM   30  C   UNK N   1      27.880  17.873   6.441  0.00  0.00     0.180 C 
HETATM   31  C   UNK N   1      28.418  17.680   7.856  0.00  0.00     0.183 C 
HETATM   32  C   UNK N   1      29.926  17.900   7.880  0.00  0.00     0.205 C 
BRANCH  29  33
HETATM   33  C   UNK N   1      28.208  17.074   4.059  0.00  0.00     0.198 C 
BRANCH  33  34
HETATM   34  O   UNK N   1      29.282  17.232   3.183  0.00  0.00    -0.398 OA
HETATM   35  H   UNK N   1      29.711  16.700   2.494  0.00  0.00     0.209 HD
ENDBRANCH  33  34
ENDBRANCH  29  33
BRANCH  30  36
HETATM   36  O   UNK N   1      26.526  17.537   6.413  0.00  0.00    -0.390 OA
HETATM   37  H   UNK N   1      26.065  16.804   5.974  0.00  0.00     0.210 HD
ENDBRANCH  30  36
BRANCH  31  38
HETATM   38  O   UNK N   1      27.795  18.570   8.732  0.00  0.00    -0.390 OA
HETATM   39  H   UNK N   1      28.107  19.482   8.838  0.00  0.00     0.210 HD
ENDBRANCH  31  38
BRANCH  32  40
HETATM   40  O   UNK N   1      30.434  17.536   9.129  0.00  0.00    -0.388 OA
HETATM   41  H   UNK N   1      30.176  17.947   9.970  0.00  0.00     0.210 HD
ENDBRANCH  32  40
ENDBRANCH  26  27
ENDBRANCH  24  26
BRANCH  24  42
HETATM   42  O   UNK N   1      31.943  15.525   7.253  0.00  0.00    -0.307 OA
HETATM   43  H   UNK N   1      31.321  15.841   7.927  0.00  0.00     0.222 HD
ENDBRANCH  24  42
ENDBRANCH  23  24
ENDBRANCH   1  23
BRANCH   1  44
HETATM   44  O   UNK N   1      31.906  13.256   5.847  0.00  0.00    -0.307 OA
HETATM   45  H   UNK N   1      31.310  13.602   5.164  0.00  0.00     0.222 HD
ENDBRANCH   1  44
TORSDOF 17
ENDMDL
MODEL 8
REMARK VINA RESULT:      -6.9      5.256      7.448
REMARK  17 active torsions:
REMARK  status: ('A' for Active; 'I' for Inactive)
REMARK    1  A    between atoms: C_1  and  N_2 
REMARK    2  A    between atoms: C_4  and  O_9 
REMARK    3  A    between atoms: C_7  and  C_13 
REMARK    4  A    between atoms: C_8  and  O_14 
REMARK    5  A    between atoms: C_13  and  O_16 
REMARK    6  A    between atoms: O_16  and  P_18 
REMARK    7  A    between atoms: P_18  and  O_19 
REMARK    8  A    between atoms: P_18  and  O_20 
REMARK    9  A    between atoms: O_19  and  P_22 
REMARK   10  A    between atoms: P_22  and  O_23 
REMARK   11  A    between atoms: P_22  and  O_24 
REMARK   12  A    between atoms: C_26  and  O_23 
REMARK   13  A    between atoms: C_28  and  O_31 
REMARK   14  A    between atoms: C_29  and  C_33 
REMARK   15  A    between atoms: C_30  and  O_34 
REMARK   16  A    between atoms: C_32  and  O_35 
REMARK   17  A    between atoms: C_33  and  O_36 
ROOT
HETATM    1  P   UNK N   1      26.843  16.714   5.649  0.00  0.00     0.401 P 
HETATM    2  O   UNK N   1      26.365  15.772   4.513  0.00  0.00    -0.631 OA
ENDROOT
BRANCH   1   3
HETATM    3  O   UNK N   1      28.576  16.798   5.572  0.00  0.00    -0.294 OA
BRANCH   3   4
HETATM    4  C   UNK N   1      28.907  17.891   6.367  0.00  0.00     0.215 C 
BRANCH   4   5
HETATM    5  C   UNK N   1      29.404  17.439   7.734  0.00  0.00     0.180 C 
HETATM    6  O   UNK N   1      29.909  16.121   7.647  0.00  0.00    -0.353 OA
HETATM    7  C   UNK N   1      31.317  16.223   7.637  0.00  0.00     0.263 C 
HETATM    8  C   UNK N   1      31.640  17.459   8.471  0.00  0.00     0.198 C 
HETATM    9  C   UNK N   1      30.491  18.374   8.222  0.00  0.00     0.182 C 
BRANCH   7  10
HETATM   10  N   UNK N   1      31.859  16.212   6.258  0.00  0.00    -0.280 N 
HETATM   11  C   UNK N   1      31.865  15.052   5.505  0.00  0.00     0.331 A 
HETATM   12  N   UNK N   1      32.335  15.068   4.218  0.00  0.00    -0.275 N 
HETATM   13  O   UNK N   1      31.431  14.010   5.966  0.00  0.00    -0.246 OA
HETATM   14  C   UNK N   1      32.792  16.226   3.651  0.00  0.00     0.250 A 
HETATM   15  H   UNK N   1      32.345  14.235   3.693  0.00  0.00     0.173 HD
HETATM   16  O   UNK N   1      33.209  16.224   2.509  0.00  0.00    -0.268 OA
HETATM   17  C   UNK N   1      32.771  17.405   4.381  0.00  0.00     0.092 A 
HETATM   18  C   UNK N   1      32.289  17.375   5.685  0.00  0.00     0.104 A 
ENDBRANCH   7  10
BRANCH   8  19
HETATM   19  O   UNK N   1      32.850  18.078   8.159  0.00  0.00    -0.388 OA
HETATM   20  H   UNK N   1      33.442  18.786   8.457  0.00  0.00     0.210 HD
ENDBRANCH   8  19
BRANCH   9  21
HETATM   21  O   UNK N   1      30.104  18.964   9.426  0.00  0.00    -0.390 OA
HETATM   22  H   UNK N   1      29.224  19.363   9.518  0.00  0.00     0.210 HD
ENDBRANCH   9  21
ENDBRANCH   4   5
ENDBRANCH   3   4
ENDBRANCH   1   3
BRANCH   1  23
HETATM   23  O   UNK N   1      26.192  18.295   5.314  0.00  0.00    -0.195 OA
BRANCH  23  24
HETATM   24  P   UNK N   1      24.855  18.103   4.214  0.00  0.00     0.404 P 
HETATM   25  O   UNK N   1      25.032  19.640   4.337  0.00  0.00    -0.631 OA
BRANCH  24  26
HETATM   26  O   UNK N   1      23.313  18.639   4.803  0.00  0.00    -0.263 OA
BRANCH  26  27
HETATM   27  C   UNK N   1      22.357  18.299   3.842  0.00  0.00     0.303 C 
HETATM   28  O   UNK N   1      21.870  19.500   3.290  0.00  0.00    -0.348 OA
HETATM   29  C   UNK N   1      20.990  19.187   2.240  0.00  0.00     0.179 C 
HETATM   30  C   UNK N   1      19.708  18.588   2.840  0.00  0.00     0.180 C 
HETATM   31  C   UNK N   1      20.086  17.293   3.553  0.00  0.00     0.183 C 
HETATM   32  C   UNK N   1      21.218  17.547   4.542  0.00  0.00     0.205 C 
BRANCH  29  33
HETATM   33  C   UNK N   1      20.708  20.473   1.475  0.00  0.00     0.198 C 
BRANCH  33  34
HETATM   34  O   UNK N   1      20.633  20.227   0.103  0.00  0.00    -0.398 OA
HETATM   35  H   UNK N   1      20.480  19.455  -0.465  0.00  0.00     0.209 HD
ENDBRANCH  33  34
ENDBRANCH  29  33
BRANCH  30  36
HETATM   36  O   UNK N   1      18.768  18.309   1.847  0.00  0.00    -0.390 OA
HETATM   37  H   UNK N   1      18.847  17.798   1.026  0.00  0.00     0.210 HD
ENDBRANCH  30  36
BRANCH  31  38
HETATM   38  O   UNK N   1      18.978  16.774   4.225  0.00  0.00    -0.390 OA
HETATM   39  H   UNK N   1      18.706  17.110   5.093  0.00  0.00     0.210 HD
ENDBRANCH  31  38
BRANCH  32  40
HETATM   40  O   UNK N   1      21.682  16.331   5.047  0.00  0.00    -0.388 OA
HETATM   41  H   UNK N   1      22.456  15.854   4.710  0.00  0.00     0.210 HD
ENDBRANCH  32  40
ENDBRANCH  26  27
ENDBRANCH  24  26
BRANCH  24  42
HETATM   42  O   UNK N   1      24.428  17.345   5.720  0.00  0.00    -0.307 OA
HETATM   43  H   UNK N   1      23.641  17.227   6.274  0.00  0.00     0.222 HD
ENDBRANCH  24  42
ENDBRANCH  23  24
ENDBRANCH   1  23
BRANCH   1  44
HETATM   44  O   UNK N   1      26.309  16.043   7.164  0.00  0.00    -0.307 OA
HETATM   45  H   UNK N   1      25.603  15.579   7.642  0.00  0.00     0.222 HD
ENDBRANCH   1  44
TORSDOF 17
ENDMDL
MODEL 9
REMARK VINA RESULT:      -6.9      3.107      8.469
REMARK  17 active torsions:
REMARK  status: ('A' for Active; 'I' for Inactive)
REMARK    1  A    between atoms: C_1  and  N_2 
REMARK    2  A    between atoms: C_4  and  O_9 
REMARK    3  A    between atoms: C_7  and  C_13 
REMARK    4  A    between atoms: C_8  and  O_14 
REMARK    5  A    between atoms: C_13  and  O_16 
REMARK    6  A    between atoms: O_16  and  P_18 
REMARK    7  A    between atoms: P_18  and  O_19 
REMARK    8  A    between atoms: P_18  and  O_20 
REMARK    9  A    between atoms: O_19  and  P_22 
REMARK   10  A    between atoms: P_22  and  O_23 
REMARK   11  A    between atoms: P_22  and  O_24 
REMARK   12  A    between atoms: C_26  and  O_23 
REMARK   13  A    between atoms: C_28  and  O_31 
REMARK   14  A    between atoms: C_29  and  C_33 
REMARK   15  A    between atoms: C_30  and  O_34 
REMARK   16  A    between atoms: C_32  and  O_35 
REMARK   17  A    between atoms: C_33  and  O_36 
ROOT
HETATM    1  P   UNK N   1      21.897  13.770   3.936  0.00  0.00     0.401 P 
HETATM    2  O   UNK N   1      20.845  12.890   4.661  0.00  0.00    -0.631 OA
ENDROOT
BRANCH   1   3
HETATM    3  O   UNK N   1      21.112  14.524   2.582  0.00  0.00    -0.294 OA
BRANCH   3   4
HETATM    4  C   UNK N   1      21.480  15.863   2.669  0.00  0.00     0.215 C 
BRANCH   4   5
HETATM    5  C   UNK N   1      20.253  16.766   2.656  0.00  0.00     0.180 C 
HETATM    6  O   UNK N   1      20.328  17.688   3.726  0.00  0.00    -0.353 OA
HETATM    7  C   UNK N   1      20.722  18.925   3.171  0.00  0.00     0.263 C 
HETATM    8  C   UNK N   1      20.143  18.941   1.760  0.00  0.00     0.198 C 
HETATM    9  C   UNK N   1      20.175  17.512   1.340  0.00  0.00     0.182 C 
BRANCH   7  10
HETATM   10  N   UNK N   1      22.186  19.131   3.273  0.00  0.00    -0.280 N 
HETATM   11  C   UNK N   1      22.751  20.366   3.008  0.00  0.00     0.331 A 
HETATM   12  N   UNK N   1      24.102  20.549   3.143  0.00  0.00    -0.275 N 
HETATM   13  O   UNK N   1      22.054  21.310   2.677  0.00  0.00    -0.246 OA
HETATM   14  C   UNK N   1      24.912  19.525   3.552  0.00  0.00     0.250 A 
HETATM   15  H   UNK N   1      24.497  21.428   2.943  0.00  0.00     0.173 HD
HETATM   16  O   UNK N   1      26.111  19.701   3.664  0.00  0.00    -0.268 OA
HETATM   17  C   UNK N   1      24.362  18.287   3.847  0.00  0.00     0.092 A 
HETATM   18  C   UNK N   1      22.990  18.115   3.707  0.00  0.00     0.104 A 
ENDBRANCH   7  10
BRANCH   8  19
HETATM   19  O   UNK N   1      20.830  19.745   0.852  0.00  0.00    -0.388 OA
HETATM   20  H   UNK N   1      20.708  20.233   0.022  0.00  0.00     0.210 HD
ENDBRANCH   8  19
BRANCH   9  21
HETATM   21  O   UNK N   1      18.983  17.197   0.687  0.00  0.00    -0.390 OA
HETATM   22  H   UNK N   1      18.779  17.583  -0.179  0.00  0.00     0.210 HD
ENDBRANCH   9  21
ENDBRANCH   4   5
ENDBRANCH   3   4
ENDBRANCH   1   3
BRANCH   1  23
HETATM   23  O   UNK N   1      22.390  15.010   5.057  0.00  0.00    -0.195 OA
BRANCH  23  24
HETATM   24  P   UNK N   1      21.871  14.531   6.649  0.00  0.00     0.404 P 
HETATM   25  O   UNK N   1      22.105  16.061   6.766  0.00  0.00    -0.631 OA
BRANCH  24  26
HETATM   26  O   UNK N   1      23.067  14.660   7.900  0.00  0.00    -0.263 OA
BRANCH  26  27
HETATM   27  C   UNK N   1      22.953  13.524   8.707  0.00  0.00     0.303 C 
HETATM   28  O   UNK N   1      21.855  13.727   9.566  0.00  0.00    -0.348 OA
HETATM   29  C   UNK N   1      21.645  12.553  10.310  0.00  0.00     0.179 C 
HETATM   30  C   UNK N   1      22.796  12.403  11.319  0.00  0.00     0.180 C 
HETATM   31  C   UNK N   1      24.092  12.247  10.530  0.00  0.00     0.183 C 
HETATM   32  C   UNK N   1      24.240  13.387   9.529  0.00  0.00     0.205 C 
BRANCH  29  33
HETATM   33  C   UNK N   1      20.297  12.683  11.007  0.00  0.00     0.198 C 
BRANCH  33  34
HETATM   34  O   UNK N   1      19.410  13.431  10.233  0.00  0.00    -0.398 OA
HETATM   35  H   UNK N   1      18.658  14.021  10.399  0.00  0.00     0.209 HD
ENDBRANCH  33  34
ENDBRANCH  29  33
BRANCH  30  36
HETATM   36  O   UNK N   1      22.612  11.283  12.130  0.00  0.00    -0.390 OA
HETATM   37  H   UNK N   1      22.512  11.208  13.093  0.00  0.00     0.210 HD
ENDBRANCH  30  36
BRANCH  31  38
HETATM   38  O   UNK N   1      25.184  12.234  11.399  0.00  0.00    -0.390 OA
HETATM   39  H   UNK N   1      25.124  11.847  12.286  0.00  0.00     0.210 HD
ENDBRANCH  31  38
BRANCH  32  40
HETATM   40  O   UNK N   1      25.325  13.135   8.687  0.00  0.00    -0.388 OA
HETATM   41  H   UNK N   1      25.274  12.636   7.857  0.00  0.00     0.210 HD
ENDBRANCH  32  40
ENDBRANCH  26  27
ENDBRANCH  24  26
BRANCH  24  42
HETATM   42  O   UNK N   1      23.321  13.650   6.266  0.00  0.00    -0.307 OA
HETATM   43  H   UNK N   1      23.572  12.831   5.811  0.00  0.00     0.222 HD
ENDBRANCH  24  42
ENDBRANCH  23  24
ENDBRANCH   1  23
BRANCH   1  44
HETATM   44  O   UNK N   1      23.198  12.736   3.418  0.00  0.00    -0.307 OA
HETATM   45  H   UNK N   1      24.145  12.662   3.219  0.00  0.00     0.222 HD
ENDBRANCH   1  44
TORSDOF 17
ENDMDL
