MODEL 1
REMARK VINA RESULT:      -5.2      0.000      0.000
REMARK  12 active torsions:
REMARK  status: ('A' for Active; 'I' for Inactive)
REMARK    1  A    between atoms: O_1  and  C_2 
REMARK    2  A    between atoms: C_2  and  C_3 
REMARK    3  A    between atoms: C_3  and  C_4 
REMARK    4  A    between atoms: C_4  and  O_5 
REMARK    5  A    between atoms: C_4  and  C_6 
REMARK    6  A    between atoms: C_6  and  O_7 
REMARK    7  A    between atoms: C_6  and  C_8 
REMARK    8  A    between atoms: C_8  and  O_9 
REMARK    9  A    between atoms: C_8  and  C_10 
REMARK   10  A    between atoms: C_11  and  P_12 
REMARK   11  A    between atoms: P_12  and  O_13 
REMARK   12  A    between atoms: P_12  and  O_14 
ROOT
HETATM    1  C   UNK N   1      35.971  15.233  10.528  0.00  0.00     0.172 C 
ENDROOT
BRANCH   1   2
HETATM    2  C   UNK N   1      35.234  14.747  11.781  0.00  0.00     0.179 C 
BRANCH   2   3
HETATM    3  C   UNK N   1      35.916  13.571  12.484  0.00  0.00     0.151 C 
BRANCH   3   4
HETATM    4  C   UNK N   1      35.663  13.695  13.979  0.00  0.00     0.060 C 
BRANCH   4   5
HETATM    5  C   UNK N   1      36.640  14.655  14.626  0.00  0.00     0.166 C 
BRANCH   5   6
HETATM    6  O   UNK N   1      37.641  13.925  15.266  0.00  0.00    -0.401 OA
HETATM    7  H   UNK N   1      38.272  13.358  14.794  0.00  0.00     0.209 HD
ENDBRANCH   5   6
ENDBRANCH   4   5
ENDBRANCH   3   4
BRANCH   3   8
HETATM    8  O   UNK N   1      37.295  13.567  12.259  0.00  0.00    -0.393 OA
HETATM    9  H   UNK N   1      37.871  12.900  12.668  0.00  0.00     0.210 HD
ENDBRANCH   3   8
ENDBRANCH   2   3
BRANCH   2  10
HETATM   10  O   UNK N   1      33.932  14.358  11.444  0.00  0.00    -0.390 OA
HETATM   11  H   UNK N   1      33.198  14.537  12.052  0.00  0.00     0.210 HD
ENDBRANCH   2  10
ENDBRANCH   1   2
BRANCH   1  12
HETATM   12  O   UNK N   1      36.835  16.280  10.859  0.00  0.00    -0.389 OA
HETATM   13  H   UNK N   1      37.179  16.866  10.168  0.00  0.00     0.210 HD
ENDBRANCH   1  12
BRANCH   1  14
HETATM   14  C   UNK N   1      34.993  15.737   9.518  0.00  0.00     0.015 C 
HETATM   15  C   UNK N   1      34.919  17.040   9.257  0.00  0.00     0.093 C 
BRANCH  15  16
HETATM   16  P   UNK N   1      33.764  17.659   7.973  0.00  0.00     0.260 P 
HETATM   17  O   UNK N   1      34.278  16.303   7.419  0.00  0.00    -0.651 OA
BRANCH  16  18
HETATM   18  O   UNK N   1      34.118  18.156   6.349  0.00  0.00    -0.326 OA
HETATM   19  H   UNK N   1      33.783  17.726   5.547  0.00  0.00     0.220 HD
ENDBRANCH  16  18
BRANCH  16  20
HETATM   20  O   UNK N   1      35.193  18.634   8.117  0.00  0.00    -0.326 OA
HETATM   21  H   UNK N   1      36.102  18.583   8.453  0.00  0.00     0.220 HD
ENDBRANCH  16  20
ENDBRANCH  15  16
ENDBRANCH   1  14
TORSDOF 12
ENDMDL
MODEL 2
REMARK VINA RESULT:      -5.2      2.610      6.534
REMARK  12 active torsions:
REMARK  status: ('A' for Active; 'I' for Inactive)
REMARK    1  A    between atoms: O_1  and  C_2 
REMARK    2  A    between atoms: C_2  and  C_3 
REMARK    3  A    between atoms: C_3  and  C_4 
REMARK    4  A    between atoms: C_4  and  O_5 
REMARK    5  A    between atoms: C_4  and  C_6 
REMARK    6  A    between atoms: C_6  and  O_7 
REMARK    7  A    between atoms: C_6  and  C_8 
REMARK    8  A    between atoms: C_8  and  O_9 
REMARK    9  A    between atoms: C_8  and  C_10 
REMARK   10  A    between atoms: C_11  and  P_12 
REMARK   11  A    between atoms: P_12  and  O_13 
REMARK   12  A    between atoms: P_12  and  O_14 
ROOT
HETATM    1  C   UNK N   1      35.837  15.705  11.474  0.00  0.00     0.172 C 
ENDROOT
BRANCH   1   2
HETATM    2  C   UNK N   1      34.696  15.571  10.460  0.00  0.00     0.179 C 
BRANCH   2   3
HETATM    3  C   UNK N   1      34.279  16.896   9.817  0.00  0.00     0.151 C 
BRANCH   3   4
HETATM    4  C   UNK N   1      33.688  16.598   8.447  0.00  0.00     0.060 C 
BRANCH   4   5
HETATM    5  C   UNK N   1      33.439  17.871   7.665  0.00  0.00     0.166 C 
BRANCH   5   6
HETATM    6  O   UNK N   1      34.513  18.098   6.806  0.00  0.00    -0.401 OA
HETATM    7  H   UNK N   1      35.125  18.844   6.903  0.00  0.00     0.209 HD
ENDBRANCH   5   6
ENDBRANCH   4   5
ENDBRANCH   3   4
BRANCH   3   8
HETATM    8  O   UNK N   1      35.369  17.757   9.661  0.00  0.00    -0.393 OA
HETATM    9  H   UNK N   1      36.104  17.535   9.067  0.00  0.00     0.210 HD
ENDBRANCH   3   8
ENDBRANCH   2   3
BRANCH   2  10
HETATM   10  O   UNK N   1      33.572  15.015  11.082  0.00  0.00    -0.390 OA
HETATM   11  H   UNK N   1      33.662  14.559  11.934  0.00  0.00     0.210 HD
ENDBRANCH   2  10
ENDBRANCH   1   2
BRANCH   1  12
HETATM   12  O   UNK N   1      37.037  15.969  10.810  0.00  0.00    -0.389 OA
HETATM   13  H   UNK N   1      37.030  16.417   9.950  0.00  0.00     0.210 HD
ENDBRANCH   1  12
BRANCH   1  14
HETATM   14  C   UNK N   1      35.997  14.434  12.241  0.00  0.00     0.015 C 
HETATM   15  C   UNK N   1      36.234  14.473  13.550  0.00  0.00     0.093 C 
BRANCH  15  16
HETATM   16  P   UNK N   1      36.370  12.916  14.510  0.00  0.00     0.260 P 
HETATM   17  O   UNK N   1      34.880  13.329  14.641  0.00  0.00    -0.651 OA
BRANCH  16  18
HETATM   18  O   UNK N   1      36.180  12.677  16.218  0.00  0.00    -0.326 OA
HETATM   19  H   UNK N   1      36.047  13.383  16.870  0.00  0.00     0.220 HD
ENDBRANCH  16  18
BRANCH  16  20
HETATM   20  O   UNK N   1      37.246  14.228  15.234  0.00  0.00    -0.326 OA
HETATM   21  H   UNK N   1      38.017  14.793  15.068  0.00  0.00     0.220 HD
ENDBRANCH  16  20
ENDBRANCH  15  16
ENDBRANCH   1  14
TORSDOF 12
ENDMDL
MODEL 3
REMARK VINA RESULT:      -4.9      1.071      1.338
REMARK  12 active torsions:
REMARK  status: ('A' for Active; 'I' for Inactive)
REMARK    1  A    between atoms: O_1  and  C_2 
REMARK    2  A    between atoms: C_2  and  C_3 
REMARK    3  A    between atoms: C_3  and  C_4 
REMARK    4  A    between atoms: C_4  and  O_5 
REMARK    5  A    between atoms: C_4  and  C_6 
REMARK    6  A    between atoms: C_6  and  O_7 
REMARK    7  A    between atoms: C_6  and  C_8 
REMARK    8  A    between atoms: C_8  and  O_9 
REMARK    9  A    between atoms: C_8  and  C_10 
REMARK   10  A    between atoms: C_11  and  P_12 
REMARK   11  A    between atoms: P_12  and  O_13 
REMARK   12  A    between atoms: P_12  and  O_14 
ROOT
HETATM    1  C   UNK N   1      35.898  15.427  10.560  0.00  0.00     0.172 C 
ENDROOT
BRANCH   1   2
HETATM    2  C   UNK N   1      35.197  14.901  11.817  0.00  0.00     0.179 C 
BRANCH   2   3
HETATM    3  C   UNK N   1      35.853  13.654  12.416  0.00  0.00     0.151 C 
BRANCH   3   4
HETATM    4  C   UNK N   1      35.529  13.612  13.903  0.00  0.00     0.060 C 
BRANCH   4   5
HETATM    5  C   UNK N   1      36.780  13.763  14.744  0.00  0.00     0.166 C 
BRANCH   5   6
HETATM    6  O   UNK N   1      37.171  15.101  14.745  0.00  0.00    -0.401 OA
HETATM    7  H   UNK N   1      37.695  15.504  14.035  0.00  0.00     0.209 HD
ENDBRANCH   5   6
ENDBRANCH   4   5
ENDBRANCH   3   4
BRANCH   3   8
HETATM    8  O   UNK N   1      37.241  13.676  12.257  0.00  0.00    -0.393 OA
HETATM    9  H   UNK N   1      37.645  13.800  11.383  0.00  0.00     0.210 HD
ENDBRANCH   3   8
ENDBRANCH   2   3
BRANCH   2  10
HETATM   10  O   UNK N   1      33.863  14.593  11.522  0.00  0.00    -0.390 OA
HETATM   11  H   UNK N   1      33.434  13.834  11.947  0.00  0.00     0.210 HD
ENDBRANCH   2  10
ENDBRANCH   1   2
BRANCH   1  12
HETATM   12  O   UNK N   1      37.061  16.114  10.914  0.00  0.00    -0.389 OA
HETATM   13  H   UNK N   1      37.043  16.765  11.633  0.00  0.00     0.210 HD
ENDBRANCH   1  12
BRANCH   1  14
HETATM   14  C   UNK N   1      35.002  16.371   9.827  0.00  0.00     0.015 C 
HETATM   15  C   UNK N   1      34.653  16.114   8.569  0.00  0.00     0.093 C 
BRANCH  15  16
HETATM   16  P   UNK N   1      33.504  17.237   7.683  0.00  0.00     0.260 P 
HETATM   17  O   UNK N   1      34.647  18.160   8.184  0.00  0.00    -0.651 OA
BRANCH  16  18
HETATM   18  O   UNK N   1      32.538  18.526   8.329  0.00  0.00    -0.326 OA
HETATM   19  H   UNK N   1      32.034  18.487   9.157  0.00  0.00     0.220 HD
ENDBRANCH  16  18
BRANCH  16  20
HETATM   20  O   UNK N   1      32.814  16.581   9.135  0.00  0.00    -0.326 OA
HETATM   21  H   UNK N   1      32.655  16.822  10.062  0.00  0.00     0.220 HD
ENDBRANCH  16  20
ENDBRANCH  15  16
ENDBRANCH   1  14
TORSDOF 12
ENDMDL
MODEL 4
REMARK VINA RESULT:      -4.8      1.741      2.560
REMARK  12 active torsions:
REMARK  status: ('A' for Active; 'I' for Inactive)
REMARK    1  A    between atoms: O_1  and  C_2 
REMARK    2  A    between atoms: C_2  and  C_3 
REMARK    3  A    between atoms: C_3  and  C_4 
REMARK    4  A    between atoms: C_4  and  O_5 
REMARK    5  A    between atoms: C_4  and  C_6 
REMARK    6  A    between atoms: C_6  and  O_7 
REMARK    7  A    between atoms: C_6  and  C_8 
REMARK    8  A    between atoms: C_8  and  O_9 
REMARK    9  A    between atoms: C_8  and  C_10 
REMARK   10  A    between atoms: C_11  and  P_12 
REMARK   11  A    between atoms: P_12  and  O_13 
REMARK   12  A    between atoms: P_12  and  O_14 
ROOT
HETATM    1  C   UNK N   1      36.437  14.963  10.442  0.00  0.00     0.172 C 
ENDROOT
BRANCH   1   2
HETATM    2  C   UNK N   1      36.487  13.764  11.395  0.00  0.00     0.179 C 
BRANCH   2   3
HETATM    3  C   UNK N   1      35.877  14.041  12.772  0.00  0.00     0.151 C 
BRANCH   3   4
HETATM    4  C   UNK N   1      36.644  13.231  13.807  0.00  0.00     0.060 C 
BRANCH   4   5
HETATM    5  C   UNK N   1      36.530  13.849  15.185  0.00  0.00     0.166 C 
BRANCH   5   6
HETATM    6  O   UNK N   1      37.640  14.659  15.417  0.00  0.00    -0.401 OA
HETATM    7  H   UNK N   1      37.651  15.374  16.073  0.00  0.00     0.209 HD
ENDBRANCH   5   6
ENDBRANCH   4   5
ENDBRANCH   3   4
BRANCH   3   8
HETATM    8  O   UNK N   1      34.529  13.673  12.820  0.00  0.00    -0.393 OA
HETATM    9  H   UNK N   1      33.824  14.319  12.653  0.00  0.00     0.210 HD
ENDBRANCH   3   8
ENDBRANCH   2   3
BRANCH   2  10
HETATM   10  O   UNK N   1      37.815  13.360  11.581  0.00  0.00    -0.390 OA
HETATM   11  H   UNK N   1      38.168  13.245  12.477  0.00  0.00     0.210 HD
ENDBRANCH   2  10
ENDBRANCH   1   2
BRANCH   1  12
HETATM   12  O   UNK N   1      37.016  16.079  11.050  0.00  0.00    -0.389 OA
HETATM   13  H   UNK N   1      36.548  16.546  11.759  0.00  0.00     0.210 HD
ENDBRANCH   1  12
BRANCH   1  14
HETATM   14  C   UNK N   1      35.021  15.296  10.105  0.00  0.00     0.015 C 
HETATM   15  C   UNK N   1      34.282  14.431   9.414  0.00  0.00     0.093 C 
BRANCH  15  16
HETATM   16  P   UNK N   1      32.524  14.806   9.050  0.00  0.00     0.260 P 
HETATM   17  O   UNK N   1      33.316  15.976   8.409  0.00  0.00    -0.651 OA
BRANCH  16  18
HETATM   18  O   UNK N   1      31.557  16.125   9.627  0.00  0.00    -0.326 OA
HETATM   19  H   UNK N   1      31.229  16.859   9.084  0.00  0.00     0.220 HD
ENDBRANCH  16  18
BRANCH  16  20
HETATM   20  O   UNK N   1      32.895  14.911  10.743  0.00  0.00    -0.326 OA
HETATM   21  H   UNK N   1      32.808  15.524  11.490  0.00  0.00     0.220 HD
ENDBRANCH  16  20
ENDBRANCH  15  16
ENDBRANCH   1  14
TORSDOF 12
ENDMDL
MODEL 5
REMARK VINA RESULT:      -4.8     15.468     17.031
REMARK  12 active torsions:
REMARK  status: ('A' for Active; 'I' for Inactive)
REMARK    1  A    between atoms: O_1  and  C_2 
REMARK    2  A    between atoms: C_2  and  C_3 
REMARK    3  A    between atoms: C_3  and  C_4 
REMARK    4  A    between atoms: C_4  and  O_5 
REMARK    5  A    between atoms: C_4  and  C_6 
REMARK    6  A    between atoms: C_6  and  O_7 
REMARK    7  A    between atoms: C_6  and  C_8 
REMARK    8  A    between atoms: C_8  and  O_9 
REMARK    9  A    between atoms: C_8  and  C_10 
REMARK   10  A    between atoms: C_11  and  P_12 
REMARK   11  A    between atoms: P_12  and  O_13 
REMARK   12  A    between atoms: P_12  and  O_14 
ROOT
HETATM    1  C   UNK N   1      30.397  23.053  -2.719  0.00  0.00     0.172 C 
ENDROOT
BRANCH   1   2
HETATM    2  C   UNK N   1      30.803  21.698  -3.306  0.00  0.00     0.179 C 
BRANCH   2   3
HETATM    3  C   UNK N   1      32.314  21.451  -3.310  0.00  0.00     0.151 C 
BRANCH   3   4
HETATM    4  C   UNK N   1      32.621  20.381  -4.347  0.00  0.00     0.060 C 
BRANCH   4   5
HETATM    5  C   UNK N   1      33.887  19.625  -4.001  0.00  0.00     0.166 C 
BRANCH   5   6
HETATM    6  O   UNK N   1      33.552  18.337  -3.588  0.00  0.00    -0.401 OA
HETATM    7  H   UNK N   1      33.682  18.016  -2.681  0.00  0.00     0.209 HD
ENDBRANCH   5   6
ENDBRANCH   4   5
ENDBRANCH   3   4
BRANCH   3   8
HETATM    8  O   UNK N   1      32.766  21.014  -2.062  0.00  0.00    -0.393 OA
HETATM    9  H   UNK N   1      33.168  20.137  -1.951  0.00  0.00     0.210 HD
ENDBRANCH   3   8
ENDBRANCH   2   3
BRANCH   2  10
HETATM   10  O   UNK N   1      30.341  21.595  -4.624  0.00  0.00    -0.390 OA
HETATM   11  H   UNK N   1      29.556  21.062  -4.824  0.00  0.00     0.210 HD
ENDBRANCH   2  10
ENDBRANCH   1   2
BRANCH   1  12
HETATM   12  O   UNK N   1      30.476  23.012  -1.325  0.00  0.00    -0.389 OA
HETATM   13  H   UNK N   1      31.124  22.436  -0.890  0.00  0.00     0.210 HD
ENDBRANCH   1  12
BRANCH   1  14
HETATM   14  C   UNK N   1      28.989  23.379  -3.097  0.00  0.00     0.015 C 
HETATM   15  C   UNK N   1      28.678  24.607  -3.502  0.00  0.00     0.093 C 
BRANCH  15  16
HETATM   16  P   UNK N   1      26.964  24.998  -4.028  0.00  0.00     0.260 P 
HETATM   17  O   UNK N   1      26.795  24.037  -2.822  0.00  0.00    -0.651 OA
BRANCH  16  18
HETATM   18  O   UNK N   1      25.770  23.935  -4.703  0.00  0.00    -0.326 OA
HETATM   19  H   UNK N   1      25.934  23.281  -5.401  0.00  0.00     0.220 HD
ENDBRANCH  16  18
BRANCH  16  20
HETATM   20  O   UNK N   1      27.830  24.061  -5.206  0.00  0.00    -0.326 OA
HETATM   21  H   UNK N   1      28.532  23.394  -5.260  0.00  0.00     0.220 HD
ENDBRANCH  16  20
ENDBRANCH  15  16
ENDBRANCH   1  14
TORSDOF 12
ENDMDL
MODEL 6
REMARK VINA RESULT:      -4.7     16.183     19.346
REMARK  12 active torsions:
REMARK  status: ('A' for Active; 'I' for Inactive)
REMARK    1  A    between atoms: O_1  and  C_2 
REMARK    2  A    between atoms: C_2  and  C_3 
REMARK    3  A    between atoms: C_3  and  C_4 
REMARK    4  A    between atoms: C_4  and  O_5 
REMARK    5  A    between atoms: C_4  and  C_6 
REMARK    6  A    between atoms: C_6  and  O_7 
REMARK    7  A    between atoms: C_6  and  C_8 
REMARK    8  A    between atoms: C_8  and  O_9 
REMARK    9  A    between atoms: C_8  and  C_10 
REMARK   10  A    between atoms: C_11  and  P_12 
REMARK   11  A    between atoms: P_12  and  O_13 
REMARK   12  A    between atoms: P_12  and  O_14 
ROOT
HETATM    1  C   UNK N   1      27.825  24.369  -3.675  0.00  0.00     0.172 C 
ENDROOT
BRANCH   1   2
HETATM    2  C   UNK N   1      27.648  25.867  -3.946  0.00  0.00     0.179 C 
BRANCH   2   3
HETATM    3  C   UNK N   1      26.226  26.378  -3.698  0.00  0.00     0.151 C 
BRANCH   3   4
HETATM    4  C   UNK N   1      25.965  27.541  -4.643  0.00  0.00     0.060 C 
BRANCH   4   5
HETATM    5  C   UNK N   1      25.949  28.862  -3.900  0.00  0.00     0.166 C 
BRANCH   5   6
HETATM    6  O   UNK N   1      27.259  29.238  -3.609  0.00  0.00    -0.401 OA
HETATM    7  H   UNK N   1      27.917  28.632  -3.233  0.00  0.00     0.209 HD
ENDBRANCH   5   6
ENDBRANCH   4   5
ENDBRANCH   3   4
BRANCH   3   8
HETATM    8  O   UNK N   1      26.061  26.819  -2.382  0.00  0.00    -0.393 OA
HETATM    9  H   UNK N   1      25.283  26.566  -1.860  0.00  0.00     0.210 HD
ENDBRANCH   3   8
ENDBRANCH   2   3
BRANCH   2  10
HETATM   10  O   UNK N   1      27.988  26.152  -5.274  0.00  0.00    -0.390 OA
HETATM   11  H   UNK N   1      28.196  27.062  -5.539  0.00  0.00     0.210 HD
ENDBRANCH   2  10
ENDBRANCH   1   2
BRANCH   1  12
HETATM   12  O   UNK N   1      27.183  24.021  -2.485  0.00  0.00    -0.389 OA
HETATM   13  H   UNK N   1      27.596  24.222  -1.631  0.00  0.00     0.210 HD
ENDBRANCH   1  12
BRANCH   1  14
HETATM   14  C   UNK N   1      29.275  24.038  -3.539  0.00  0.00     0.015 C 
HETATM   15  C   UNK N   1      29.657  22.770  -3.403  0.00  0.00     0.093 C 
BRANCH  15  16
HETATM   16  P   UNK N   1      31.439  22.350  -3.296  0.00  0.00     0.260 P 
HETATM   17  O   UNK N   1      30.726  20.988  -3.510  0.00  0.00    -0.651 OA
BRANCH  16  18
HETATM   18  O   UNK N   1      32.263  21.428  -2.079  0.00  0.00    -0.326 OA
HETATM   19  H   UNK N   1      33.103  20.959  -2.205  0.00  0.00     0.220 HD
ENDBRANCH  16  18
BRANCH  16  20
HETATM   20  O   UNK N   1      30.798  22.940  -1.794  0.00  0.00    -0.326 OA
HETATM   21  H   UNK N   1      31.065  23.077  -0.871  0.00  0.00     0.220 HD
ENDBRANCH  16  20
ENDBRANCH  15  16
ENDBRANCH   1  14
TORSDOF 12
ENDMDL
MODEL 7
REMARK VINA RESULT:      -4.6     13.060     14.031
REMARK  12 active torsions:
REMARK  status: ('A' for Active; 'I' for Inactive)
REMARK    1  A    between atoms: O_1  and  C_2 
REMARK    2  A    between atoms: C_2  and  C_3 
REMARK    3  A    between atoms: C_3  and  C_4 
REMARK    4  A    between atoms: C_4  and  O_5 
REMARK    5  A    between atoms: C_4  and  C_6 
REMARK    6  A    between atoms: C_6  and  O_7 
REMARK    7  A    between atoms: C_6  and  C_8 
REMARK    8  A    between atoms: C_8  and  O_9 
REMARK    9  A    between atoms: C_8  and  C_10 
REMARK   10  A    between atoms: C_11  and  P_12 
REMARK   11  A    between atoms: P_12  and  O_13 
REMARK   12  A    between atoms: P_12  and  O_14 
ROOT
HETATM    1  C   UNK N   1      20.904  14.084   9.723  0.00  0.00     0.172 C 
ENDROOT
BRANCH   1   2
HETATM    2  C   UNK N   1      21.472  12.691   9.433  0.00  0.00     0.179 C 
BRANCH   2   3
HETATM    3  C   UNK N   1      22.579  12.259  10.399  0.00  0.00     0.151 C 
BRANCH   3   4
HETATM    4  C   UNK N   1      22.007  12.250  11.809  0.00  0.00     0.060 C 
BRANCH   4   5
HETATM    5  C   UNK N   1      22.979  11.634  12.794  0.00  0.00     0.166 C 
BRANCH   5   6
HETATM    6  O   UNK N   1      23.981  12.558  13.085  0.00  0.00    -0.401 OA
HETATM    7  H   UNK N   1      24.876  12.509  12.712  0.00  0.00     0.209 HD
ENDBRANCH   5   6
ENDBRANCH   4   5
ENDBRANCH   3   4
BRANCH   3   8
HETATM    8  O   UNK N   1      23.667  13.135  10.358  0.00  0.00    -0.393 OA
HETATM    9  H   UNK N   1      23.654  13.976  10.842  0.00  0.00     0.210 HD
ENDBRANCH   3   8
ENDBRANCH   2   3
BRANCH   2  10
HETATM   10  O   UNK N   1      21.989  12.651   8.132  0.00  0.00    -0.390 OA
HETATM   11  H   UNK N   1      22.505  11.885   7.837  0.00  0.00     0.210 HD
ENDBRANCH   2  10
ENDBRANCH   1   2
BRANCH   1  12
HETATM   12  O   UNK N   1      19.514  14.016   9.845  0.00  0.00    -0.389 OA
HETATM   13  H   UNK N   1      19.078  14.347  10.646  0.00  0.00     0.210 HD
ENDBRANCH   1  12
BRANCH   1  14
HETATM   14  C   UNK N   1      21.230  15.017   8.604  0.00  0.00     0.015 C 
HETATM   15  C   UNK N   1      20.285  15.809   8.103  0.00  0.00     0.093 C 
BRANCH  15  16
HETATM   16  P   UNK N   1      20.692  17.001   6.770  0.00  0.00     0.260 P 
HETATM   17  O   UNK N   1      22.005  16.206   7.000  0.00  0.00    -0.651 OA
BRANCH  16  18
HETATM   18  O   UNK N   1      21.803  18.334   6.813  0.00  0.00    -0.326 OA
HETATM   19  H   UNK N   1      22.650  18.341   7.285  0.00  0.00     0.220 HD
ENDBRANCH  16  18
BRANCH  16  20
HETATM   20  O   UNK N   1      20.387  17.777   8.293  0.00  0.00    -0.326 OA
HETATM   21  H   UNK N   1      19.982  17.594   9.156  0.00  0.00     0.220 HD
ENDBRANCH  16  20
ENDBRANCH  15  16
ENDBRANCH   1  14
TORSDOF 12
ENDMDL
MODEL 8
REMARK VINA RESULT:      -4.6      3.385      7.184
REMARK  12 active torsions:
REMARK  status: ('A' for Active; 'I' for Inactive)
REMARK    1  A    between atoms: O_1  and  C_2 
REMARK    2  A    between atoms: C_2  and  C_3 
REMARK    3  A    between atoms: C_3  and  C_4 
REMARK    4  A    between atoms: C_4  and  O_5 
REMARK    5  A    between atoms: C_4  and  C_6 
REMARK    6  A    between atoms: C_6  and  O_7 
REMARK    7  A    between atoms: C_6  and  C_8 
REMARK    8  A    between atoms: C_8  and  O_9 
REMARK    9  A    between atoms: C_8  and  C_10 
REMARK   10  A    between atoms: C_11  and  P_12 
REMARK   11  A    between atoms: P_12  and  O_13 
REMARK   12  A    between atoms: P_12  and  O_14 
ROOT
HETATM    1  C   UNK N   1      32.343  16.172   7.987  0.00  0.00     0.172 C 
ENDROOT
BRANCH   1   2
HETATM    2  C   UNK N   1      32.998  15.843   6.641  0.00  0.00     0.179 C 
BRANCH   2   3
HETATM    3  C   UNK N   1      33.046  17.025   5.669  0.00  0.00     0.151 C 
BRANCH   3   4
HETATM    4  C   UNK N   1      33.257  16.480   4.264  0.00  0.00     0.060 C 
BRANCH   4   5
HETATM    5  C   UNK N   1      32.276  17.089   3.284  0.00  0.00     0.166 C 
BRANCH   5   6
HETATM    6  O   UNK N   1      31.610  18.147   3.900  0.00  0.00    -0.401 OA
HETATM    7  H   UNK N   1      31.161  18.853   3.410  0.00  0.00     0.209 HD
ENDBRANCH   5   6
ENDBRANCH   4   5
ENDBRANCH   3   4
BRANCH   3   8
HETATM    8  O   UNK N   1      34.091  17.900   5.976  0.00  0.00    -0.393 OA
HETATM    9  H   UNK N   1      34.236  18.214   6.883  0.00  0.00     0.210 HD
ENDBRANCH   3   8
ENDBRANCH   2   3
BRANCH   2  10
HETATM   10  O   UNK N   1      32.306  14.796   6.020  0.00  0.00    -0.390 OA
HETATM   11  H   UNK N   1      32.724  13.926   5.924  0.00  0.00     0.210 HD
ENDBRANCH   2  10
ENDBRANCH   1   2
BRANCH   1  12
HETATM   12  O   UNK N   1      32.070  17.539   8.062  0.00  0.00    -0.389 OA
HETATM   13  H   UNK N   1      31.230  17.850   8.434  0.00  0.00     0.210 HD
ENDBRANCH   1  12
BRANCH   1  14
HETATM   14  C   UNK N   1      33.262  15.815   9.108  0.00  0.00     0.015 C 
HETATM   15  C   UNK N   1      34.302  16.597   9.389  0.00  0.00     0.093 C 
BRANCH  15  16
HETATM   16  P   UNK N   1      35.399  16.199  10.804  0.00  0.00     0.260 P 
HETATM   17  O   UNK N   1      35.810  17.634  10.380  0.00  0.00    -0.651 OA
BRANCH  16  18
HETATM   18  O   UNK N   1      37.122  15.993  10.813  0.00  0.00    -0.326 OA
HETATM   19  H   UNK N   1      37.771  16.710  10.746  0.00  0.00     0.220 HD
ENDBRANCH  16  18
BRANCH  16  20
HETATM   20  O   UNK N   1      35.729  15.225   9.405  0.00  0.00    -0.326 OA
HETATM   21  H   UNK N   1      35.714  15.280   8.436  0.00  0.00     0.220 HD
ENDBRANCH  16  20
ENDBRANCH  15  16
ENDBRANCH   1  14
TORSDOF 12
ENDMDL
MODEL 9
REMARK VINA RESULT:      -4.6     14.143     16.000
REMARK  12 active torsions:
REMARK  status: ('A' for Active; 'I' for Inactive)
REMARK    1  A    between atoms: O_1  and  C_2 
REMARK    2  A    between atoms: C_2  and  C_3 
REMARK    3  A    between atoms: C_3  and  C_4 
REMARK    4  A    between atoms: C_4  and  O_5 
REMARK    5  A    between atoms: C_4  and  C_6 
REMARK    6  A    between atoms: C_6  and  O_7 
REMARK    7  A    between atoms: C_6  and  C_8 
REMARK    8  A    between atoms: C_8  and  O_9 
REMARK    9  A    between atoms: C_8  and  C_10 
REMARK   10  A    between atoms: C_11  and  P_12 
REMARK   11  A    between atoms: P_12  and  O_13 
REMARK   12  A    between atoms: P_12  and  O_14 
ROOT
HETATM    1  C   UNK N   1      20.324  14.460   8.970  0.00  0.00     0.172 C 
ENDROOT
BRANCH   1   2
HETATM    2  C   UNK N   1      20.829  15.848   8.562  0.00  0.00     0.179 C 
BRANCH   2   3
HETATM    3  C   UNK N   1      19.760  16.730   7.912  0.00  0.00     0.151 C 
BRANCH   3   4
HETATM    4  C   UNK N   1      19.214  17.679   8.970  0.00  0.00     0.060 C 
BRANCH   4   5
HETATM    5  C   UNK N   1      17.735  17.450   9.205  0.00  0.00     0.166 C 
BRANCH   5   6
HETATM    6  O   UNK N   1      17.272  18.376  10.138  0.00  0.00    -0.401 OA
HETATM    7  H   UNK N   1      16.411  18.304  10.579  0.00  0.00     0.209 HD
ENDBRANCH   5   6
ENDBRANCH   4   5
ENDBRANCH   3   4
BRANCH   3   8
HETATM    8  O   UNK N   1      18.705  15.968   7.402  0.00  0.00    -0.393 OA
HETATM    9  H   UNK N   1      17.812  16.030   7.777  0.00  0.00     0.210 HD
ENDBRANCH   3   8
ENDBRANCH   2   3
BRANCH   2  10
HETATM   10  O   UNK N   1      21.894  15.720   7.662  0.00  0.00    -0.390 OA
HETATM   11  H   UNK N   1      21.936  16.284   6.874  0.00  0.00     0.210 HD
ENDBRANCH   2  10
ENDBRANCH   1   2
BRANCH   1  12
HETATM   12  O   UNK N   1      19.124  14.577   9.675  0.00  0.00    -0.389 OA
HETATM   13  H   UNK N   1      18.286  14.682   9.198  0.00  0.00     0.210 HD
ENDBRANCH   1  12
BRANCH   1  14
HETATM   14  C   UNK N   1      21.322  13.788   9.855  0.00  0.00     0.015 C 
HETATM   15  C   UNK N   1      21.807  12.594   9.522  0.00  0.00     0.093 C 
BRANCH  15  16
HETATM   16  P   UNK N   1      23.079  11.790  10.571  0.00  0.00     0.260 P 
HETATM   17  O   UNK N   1      21.886  12.050  11.529  0.00  0.00    -0.651 OA
BRANCH  16  18
HETATM   18  O   UNK N   1      23.957  12.458  11.910  0.00  0.00    -0.326 OA
HETATM   19  H   UNK N   1      24.522  13.247  11.871  0.00  0.00     0.220 HD
ENDBRANCH  16  18
BRANCH  16  20
HETATM   20  O   UNK N   1      23.553  13.372  10.036  0.00  0.00    -0.326 OA
HETATM   21  H   UNK N   1      23.270  14.298  10.099  0.00  0.00     0.220 HD
ENDBRANCH  16  20
ENDBRANCH  15  16
ENDBRANCH   1  14
TORSDOF 12
ENDMDL
