MODEL 1
REMARK VINA RESULT:      -4.6      0.000      0.000
REMARK  5 active torsions:
REMARK  status: ('A' for Active; 'I' for Inactive)
REMARK    1  A    between atoms: C_2  and  C_1 
REMARK    2  A    between atoms: O_7  and  C_1 
REMARK    3  A    between atoms: C_3  and  O_8 
REMARK    4  A    between atoms: C_5  and  S_11 
REMARK    5  A    between atoms: C_6  and  S_12 
ROOT
HETATM    1  C   UNK N   1      34.053  17.078   8.844  0.00  0.00     0.162 C 
HETATM    2  C   UNK N   1      33.372  14.639   8.492  0.00  0.00     0.166 C 
HETATM    3  C   UNK N   1      33.924  14.564   9.914  0.00  0.00     0.186 C 
HETATM    4  C   UNK N   1      33.062  16.114   8.121  0.00  0.00     0.107 C 
HETATM    5  C   UNK N   1      35.269  15.362   9.907  0.00  0.00     0.211 C 
HETATM    6  O   UNK N   1      32.999  15.110  10.810  0.00  0.00    -0.390 OA
HETATM    7  O   UNK N   1      35.317  16.470   9.004  0.00  0.00    -0.364 OA
HETATM    8  H   UNK N   1      32.413  15.467  11.496  0.00  0.00     0.210 HD
ENDROOT
BRANCH   2   9
HETATM    9  O   UNK N   1      32.254  13.816   8.321  0.00  0.00    -0.392 OA
HETATM   10  H   UNK N   1      31.347  14.142   8.429  0.00  0.00     0.210 HD
ENDBRANCH   2   9
BRANCH   5  11
HETATM   11  S   UNK N   1      35.781  15.865  11.582  0.00  0.00    -0.148 SA
HETATM   12  H   UNK N   1      35.991  17.111  12.085  0.00  0.00     0.104 HD
ENDBRANCH   5  11
BRANCH   4  13
HETATM   13  S   UNK N   1      31.350  16.592   8.573  0.00  0.00    -0.172 SA
HETATM   14  H   UNK N   1      30.040  16.783   8.259  0.00  0.00     0.102 HD
ENDBRANCH   4  13
BRANCH   1  15
HETATM   15  C   UNK N   1      34.234  18.390   8.086  0.00  0.00     0.197 C 
BRANCH  15  16
HETATM   16  O   UNK N   1      35.310  19.122   8.591  0.00  0.00    -0.398 OA
HETATM   17  H   UNK N   1      36.214  19.367   8.339  0.00  0.00     0.209 HD
ENDBRANCH  15  16
ENDBRANCH   1  15
TORSDOF 5
ENDMDL
MODEL 2
REMARK VINA RESULT:      -4.3      2.824      4.434
REMARK  5 active torsions:
REMARK  status: ('A' for Active; 'I' for Inactive)
REMARK    1  A    between atoms: C_2  and  C_1 
REMARK    2  A    between atoms: O_7  and  C_1 
REMARK    3  A    between atoms: C_3  and  O_8 
REMARK    4  A    between atoms: C_5  and  S_11 
REMARK    5  A    between atoms: C_6  and  S_12 
ROOT
HETATM    1  C   UNK N   1      36.758  14.409  10.133  0.00  0.00     0.162 C 
HETATM    2  C   UNK N   1      35.214  14.140  12.154  0.00  0.00     0.166 C 
HETATM    3  C   UNK N   1      34.340  15.017  11.259  0.00  0.00     0.186 C 
HETATM    4  C   UNK N   1      36.337  13.476  11.311  0.00  0.00     0.107 C 
HETATM    5  C   UNK N   1      35.271  16.144  10.704  0.00  0.00     0.211 C 
HETATM    6  O   UNK N   1      33.789  14.244  10.232  0.00  0.00    -0.390 OA
HETATM    7  O   UNK N   1      36.635  15.767  10.499  0.00  0.00    -0.364 OA
HETATM    8  H   UNK N   1      33.365  13.780   9.493  0.00  0.00     0.210 HD
ENDROOT
BRANCH   2   9
HETATM    9  O   UNK N   1      34.461  13.191  12.853  0.00  0.00    -0.392 OA
HETATM   10  H   UNK N   1      33.692  13.433  13.391  0.00  0.00     0.210 HD
ENDBRANCH   2   9
BRANCH   5  11
HETATM   11  S   UNK N   1      34.583  16.933   9.212  0.00  0.00    -0.148 SA
HETATM   12  H   UNK N   1      33.561  17.824   9.097  0.00  0.00     0.104 HD
ENDBRANCH   5  11
BRANCH   4  13
HETATM   13  S   UNK N   1      35.813  11.861  10.618  0.00  0.00    -0.172 SA
HETATM   14  H   UNK N   1      35.772  10.951   9.608  0.00  0.00     0.102 HD
ENDBRANCH   4  13
BRANCH   1  15
HETATM   15  C   UNK N   1      38.193  14.152   9.683  0.00  0.00     0.197 C 
BRANCH  15  16
HETATM   16  O   UNK N   1      38.943  13.556  10.698  0.00  0.00    -0.398 OA
HETATM   17  H   UNK N   1      39.872  13.403  10.932  0.00  0.00     0.209 HD
ENDBRANCH  15  16
ENDBRANCH   1  15
TORSDOF 5
ENDMDL
MODEL 3
REMARK VINA RESULT:      -4.1      4.638      5.491
REMARK  5 active torsions:
REMARK  status: ('A' for Active; 'I' for Inactive)
REMARK    1  A    between atoms: C_2  and  C_1 
REMARK    2  A    between atoms: O_7  and  C_1 
REMARK    3  A    between atoms: C_3  and  O_8 
REMARK    4  A    between atoms: C_5  and  S_11 
REMARK    5  A    between atoms: C_6  and  S_12 
ROOT
HETATM    1  C   UNK N   1      29.641  17.702   6.403  0.00  0.00     0.162 C 
HETATM    2  C   UNK N   1      28.407  17.459   8.629  0.00  0.00     0.166 C 
HETATM    3  C   UNK N   1      29.828  17.707   9.132  0.00  0.00     0.186 C 
HETATM    4  C   UNK N   1      28.285  17.904   7.147  0.00  0.00     0.107 C 
HETATM    5  C   UNK N   1      30.765  16.802   8.268  0.00  0.00     0.211 C 
HETATM    6  O   UNK N   1      30.147  19.062   9.000  0.00  0.00    -0.390 OA
HETATM    7  O   UNK N   1      30.336  16.587   6.921  0.00  0.00    -0.364 OA
HETATM    8  H   UNK N   1      30.445  19.984   8.946  0.00  0.00     0.210 HD
ENDROOT
BRANCH   2   9
HETATM    9  O   UNK N   1      27.450  18.081   9.437  0.00  0.00    -0.392 OA
HETATM   10  H   UNK N   1      27.691  18.626  10.203  0.00  0.00     0.210 HD
ENDBRANCH   2   9
BRANCH   5  11
HETATM   11  S   UNK N   1      32.499  17.358   8.318  0.00  0.00    -0.148 SA
HETATM   12  H   UNK N   1      33.466  17.266   7.365  0.00  0.00     0.104 HD
ENDBRANCH   5  11
BRANCH   4  13
HETATM   13  S   UNK N   1      27.793  19.665   6.995  0.00  0.00    -0.172 SA
HETATM   14  H   UNK N   1      26.849  20.643   6.969  0.00  0.00     0.102 HD
ENDBRANCH   4  13
BRANCH   1  15
HETATM   15  C   UNK N   1      29.449  17.505   4.902  0.00  0.00     0.197 C 
BRANCH  15  16
HETATM   16  O   UNK N   1      30.568  17.938   4.187  0.00  0.00    -0.398 OA
HETATM   17  H   UNK N   1      30.806  18.198   3.284  0.00  0.00     0.209 HD
ENDBRANCH  15  16
ENDBRANCH   1  15
TORSDOF 5
ENDMDL
MODEL 4
REMARK VINA RESULT:      -4.1     13.399     14.849
REMARK  5 active torsions:
REMARK  status: ('A' for Active; 'I' for Inactive)
REMARK    1  A    between atoms: C_2  and  C_1 
REMARK    2  A    between atoms: O_7  and  C_1 
REMARK    3  A    between atoms: C_3  and  O_8 
REMARK    4  A    between atoms: C_5  and  S_11 
REMARK    5  A    between atoms: C_6  and  S_12 
ROOT
HETATM    1  C   UNK N   1      21.003  19.353   2.100  0.00  0.00     0.162 C 
HETATM    2  C   UNK N   1      21.184  18.445   4.483  0.00  0.00     0.166 C 
HETATM    3  C   UNK N   1      21.094  17.136   3.700  0.00  0.00     0.186 C 
HETATM    4  C   UNK N   1      21.572  19.607   3.530  0.00  0.00     0.107 C 
HETATM    5  C   UNK N   1      19.943  17.324   2.659  0.00  0.00     0.211 C 
HETATM    6  O   UNK N   1      22.320  16.872   3.080  0.00  0.00    -0.390 OA
HETATM    7  O   UNK N   1      19.777  18.656   2.164  0.00  0.00    -0.364 OA
HETATM    8  H   UNK N   1      23.134  16.614   2.621  0.00  0.00     0.210 HD
ENDROOT
BRANCH   2   9
HETATM    9  O   UNK N   1      22.063  18.347   5.567  0.00  0.00    -0.392 OA
HETATM   10  H   UNK N   1      22.188  19.071   6.201  0.00  0.00     0.210 HD
ENDBRANCH   2   9
BRANCH   5  11
HETATM   11  S   UNK N   1      20.053  16.130   1.287  0.00  0.00    -0.148 SA
HETATM   12  H   UNK N   1      19.057  15.493   0.613  0.00  0.00     0.104 HD
ENDBRANCH   5  11
BRANCH   4  13
HETATM   13  S   UNK N   1      23.390  19.816   3.406  0.00  0.00    -0.172 SA
HETATM   14  H   UNK N   1      24.550  19.788   2.696  0.00  0.00     0.102 HD
ENDBRANCH   4  13
BRANCH   1  15
HETATM   15  C   UNK N   1      20.787  20.652   1.329  0.00  0.00     0.197 C 
BRANCH  15  16
HETATM   16  O   UNK N   1      20.618  20.409  -0.035  0.00  0.00    -0.398 OA
HETATM   17  H   UNK N   1      19.917  20.146  -0.653  0.00  0.00     0.209 HD
ENDBRANCH  15  16
ENDBRANCH   1  15
TORSDOF 5
ENDMDL
MODEL 5
REMARK VINA RESULT:      -4.1     11.878     13.327
REMARK  5 active torsions:
REMARK  status: ('A' for Active; 'I' for Inactive)
REMARK    1  A    between atoms: C_2  and  C_1 
REMARK    2  A    between atoms: O_7  and  C_1 
REMARK    3  A    between atoms: C_3  and  O_8 
REMARK    4  A    between atoms: C_5  and  S_11 
REMARK    5  A    between atoms: C_6  and  S_12 
ROOT
HETATM    1  C   UNK N   1      42.662  21.948   2.092  0.00  0.00     0.162 C 
HETATM    2  C   UNK N   1      44.507  21.963   3.862  0.00  0.00     0.166 C 
HETATM    3  C   UNK N   1      44.653  20.539   3.328  0.00  0.00     0.186 C 
HETATM    4  C   UNK N   1      43.703  22.827   2.853  0.00  0.00     0.107 C 
HETATM    5  C   UNK N   1      43.206  19.956   3.225  0.00  0.00     0.211 C 
HETATM    6  O   UNK N   1      45.295  20.564   2.086  0.00  0.00    -0.390 OA
HETATM    7  O   UNK N   1      42.184  20.908   2.918  0.00  0.00    -0.364 OA
HETATM    8  H   UNK N   1      45.735  20.493   1.224  0.00  0.00     0.210 HD
ENDROOT
BRANCH   2   9
HETATM    9  O   UNK N   1      45.745  22.538   4.166  0.00  0.00    -0.392 OA
HETATM   10  H   UNK N   1      46.311  22.208   4.881  0.00  0.00     0.210 HD
ENDBRANCH   2   9
BRANCH   5  11
HETATM   11  S   UNK N   1      43.119  18.522   2.105  0.00  0.00    -0.148 SA
HETATM   12  H   UNK N   1      44.110  17.689   1.687  0.00  0.00     0.104 HD
ENDBRANCH   5  11
BRANCH   4  13
HETATM   13  S   UNK N   1      44.793  23.639   1.622  0.00  0.00    -0.172 SA
HETATM   14  H   UNK N   1      45.129  24.699   0.840  0.00  0.00     0.102 HD
ENDBRANCH   4  13
BRANCH   1  15
HETATM   15  C   UNK N   1      41.472  22.767   1.600  0.00  0.00     0.197 C 
BRANCH  15  16
HETATM   16  O   UNK N   1      41.382  23.986   2.273  0.00  0.00    -0.398 OA
HETATM   17  H   UNK N   1      41.913  24.785   2.420  0.00  0.00     0.209 HD
ENDBRANCH  15  16
ENDBRANCH   1  15
TORSDOF 5
ENDMDL
MODEL 6
REMARK VINA RESULT:      -4.0     13.199     14.169
REMARK  5 active torsions:
REMARK  status: ('A' for Active; 'I' for Inactive)
REMARK    1  A    between atoms: C_2  and  C_1 
REMARK    2  A    between atoms: O_7  and  C_1 
REMARK    3  A    between atoms: C_3  and  O_8 
REMARK    4  A    between atoms: C_5  and  S_11 
REMARK    5  A    between atoms: C_6  and  S_12 
ROOT
HETATM    1  C   UNK N   1      44.555  22.037   1.431  0.00  0.00     0.162 C 
HETATM    2  C   UNK N   1      43.568  22.928   3.615  0.00  0.00     0.166 C 
HETATM    3  C   UNK N   1      44.478  21.827   4.157  0.00  0.00     0.186 C 
HETATM    4  C   UNK N   1      43.982  23.290   2.163  0.00  0.00     0.107 C 
HETATM    5  C   UNK N   1      44.242  20.575   3.251  0.00  0.00     0.211 C 
HETATM    6  O   UNK N   1      45.810  22.254   4.119  0.00  0.00    -0.390 OA
HETATM    7  O   UNK N   1      43.926  20.858   1.886  0.00  0.00    -0.364 OA
HETATM    8  H   UNK N   1      46.755  22.473   4.131  0.00  0.00     0.210 HD
ENDROOT
BRANCH   2   9
HETATM    9  O   UNK N   1      43.555  24.053   4.446  0.00  0.00    -0.392 OA
HETATM   10  H   UNK N   1      42.753  24.577   4.599  0.00  0.00     0.210 HD
ENDBRANCH   2   9
BRANCH   5  11
HETATM   11  S   UNK N   1      45.607  19.373   3.367  0.00  0.00    -0.148 SA
HETATM   12  H   UNK N   1      46.401  19.065   4.428  0.00  0.00     0.104 HD
ENDBRANCH   5  11
BRANCH   4  13
HETATM   13  S   UNK N   1      45.244  24.620   2.119  0.00  0.00    -0.172 SA
HETATM   14  H   UNK N   1      46.433  25.153   2.510  0.00  0.00     0.102 HD
ENDBRANCH   4  13
BRANCH   1  15
HETATM   15  C   UNK N   1      44.385  22.130  -0.083  0.00  0.00     0.197 C 
BRANCH  15  16
HETATM   16  O   UNK N   1      43.192  22.771  -0.420  0.00  0.00    -0.398 OA
HETATM   17  H   UNK N   1      42.239  22.588  -0.438  0.00  0.00     0.209 HD
ENDBRANCH  15  16
ENDBRANCH   1  15
TORSDOF 5
ENDMDL
MODEL 7
REMARK VINA RESULT:      -3.9      2.491      4.144
REMARK  5 active torsions:
REMARK  status: ('A' for Active; 'I' for Inactive)
REMARK    1  A    between atoms: C_2  and  C_1 
REMARK    2  A    between atoms: O_7  and  C_1 
REMARK    3  A    between atoms: C_3  and  O_8 
REMARK    4  A    between atoms: C_5  and  S_11 
REMARK    5  A    between atoms: C_6  and  S_12 
ROOT
HETATM    1  C   UNK N   1      34.682  13.563   9.791  0.00  0.00     0.162 C 
HETATM    2  C   UNK N   1      34.894  15.763  11.077  0.00  0.00     0.166 C 
HETATM    3  C   UNK N   1      36.250  15.132  11.392  0.00  0.00     0.186 C 
HETATM    4  C   UNK N   1      34.258  15.064   9.846  0.00  0.00     0.107 C 
HETATM    5  C   UNK N   1      35.965  13.640  11.765  0.00  0.00     0.211 C 
HETATM    6  O   UNK N   1      37.091  15.239  10.279  0.00  0.00    -0.390 OA
HETATM    7  O   UNK N   1      34.854  13.043  11.092  0.00  0.00    -0.364 OA
HETATM    8  H   UNK N   1      37.736  15.275   9.556  0.00  0.00     0.210 HD
ENDROOT
BRANCH   2   9
HETATM    9  O   UNK N   1      34.991  17.146  10.895  0.00  0.00    -0.392 OA
HETATM   10  H   UNK N   1      34.694  17.586  10.083  0.00  0.00     0.210 HD
ENDBRANCH   2   9
BRANCH   5  11
HETATM   11  S   UNK N   1      37.452  12.597  11.620  0.00  0.00    -0.148 SA
HETATM   12  H   UNK N   1      38.674  12.748  12.199  0.00  0.00     0.104 HD
ENDBRANCH   5  11
BRANCH   4  13
HETATM   13  S   UNK N   1      34.747  15.865   8.270  0.00  0.00    -0.172 SA
HETATM   14  H   UNK N   1      34.924  16.970   7.496  0.00  0.00     0.102 HD
ENDBRANCH   4  13
BRANCH   1  15
HETATM   15  C   UNK N   1      33.659  12.704   9.053  0.00  0.00     0.197 C 
BRANCH  15  16
HETATM   16  O   UNK N   1      32.366  13.205   9.216  0.00  0.00    -0.398 OA
HETATM   17  H   UNK N   1      31.925  14.036   9.449  0.00  0.00     0.209 HD
ENDBRANCH  15  16
ENDBRANCH   1  15
TORSDOF 5
ENDMDL
MODEL 8
REMARK VINA RESULT:      -3.9      2.402      5.112
REMARK  5 active torsions:
REMARK  status: ('A' for Active; 'I' for Inactive)
REMARK    1  A    between atoms: C_2  and  C_1 
REMARK    2  A    between atoms: O_7  and  C_1 
REMARK    3  A    between atoms: C_3  and  O_8 
REMARK    4  A    between atoms: C_5  and  S_11 
REMARK    5  A    between atoms: C_6  and  S_12 
ROOT
HETATM    1  C   UNK N   1      34.907  13.012  10.872  0.00  0.00     0.162 C 
HETATM    2  C   UNK N   1      36.376  15.019  10.278  0.00  0.00     0.166 C 
HETATM    3  C   UNK N   1      35.013  15.531   9.811  0.00  0.00     0.186 C 
HETATM    4  C   UNK N   1      36.187  13.822  11.247  0.00  0.00     0.107 C 
HETATM    5  C   UNK N   1      34.349  14.357   9.020  0.00  0.00     0.211 C 
HETATM    6  O   UNK N   1      34.248  15.913  10.918  0.00  0.00    -0.390 OA
HETATM    7  O   UNK N   1      34.683  13.045   9.478  0.00  0.00    -0.364 OA
HETATM    8  H   UNK N   1      33.655  16.202  11.628  0.00  0.00     0.210 HD
ENDROOT
BRANCH   2   9
HETATM    9  O   UNK N   1      37.148  16.034  10.851  0.00  0.00    -0.392 OA
HETATM   10  H   UNK N   1      36.830  16.948  10.930  0.00  0.00     0.210 HD
ENDBRANCH   2   9
BRANCH   5  11
HETATM   11  S   UNK N   1      32.544  14.557   8.877  0.00  0.00    -0.148 SA
HETATM   12  H   UNK N   1      31.545  13.833   9.450  0.00  0.00     0.104 HD
ENDBRANCH   5  11
BRANCH   4  13
HETATM   13  S   UNK N   1      36.043  14.365  12.993  0.00  0.00    -0.172 SA
HETATM   14  H   UNK N   1      35.843  14.105  14.313  0.00  0.00     0.102 HD
ENDBRANCH   4  13
BRANCH   1  15
HETATM   15  C   UNK N   1      34.997  11.556  11.319  0.00  0.00     0.197 C 
BRANCH  15  16
HETATM   16  O   UNK N   1      33.744  10.941  11.298  0.00  0.00    -0.398 OA
HETATM   17  H   UNK N   1      33.363  10.049  11.312  0.00  0.00     0.209 HD
ENDBRANCH  15  16
ENDBRANCH   1  15
TORSDOF 5
ENDMDL
MODEL 9
REMARK VINA RESULT:      -3.8      3.005      4.587
REMARK  5 active torsions:
REMARK  status: ('A' for Active; 'I' for Inactive)
REMARK    1  A    between atoms: C_2  and  C_1 
REMARK    2  A    between atoms: O_7  and  C_1 
REMARK    3  A    between atoms: C_3  and  O_8 
REMARK    4  A    between atoms: C_5  and  S_11 
REMARK    5  A    between atoms: C_6  and  S_12 
ROOT
HETATM    1  C   UNK N   1      34.644  14.023  10.198  0.00  0.00     0.162 C 
HETATM    2  C   UNK N   1      35.802  14.246  12.466  0.00  0.00     0.166 C 
HETATM    3  C   UNK N   1      36.795  13.337  11.742  0.00  0.00     0.186 C 
HETATM    4  C   UNK N   1      34.874  14.944  11.436  0.00  0.00     0.107 C 
HETATM    5  C   UNK N   1      35.944  12.240  11.023  0.00  0.00     0.211 C 
HETATM    6  O   UNK N   1      37.548  14.089  10.835  0.00  0.00    -0.390 OA
HETATM    7  O   UNK N   1      34.653  12.662  10.576  0.00  0.00    -0.364 OA
HETATM    8  H   UNK N   1      38.115  14.537  10.187  0.00  0.00     0.210 HD
ENDROOT
BRANCH   2   9
HETATM    9  O   UNK N   1      36.447  15.171  13.293  0.00  0.00    -0.392 OA
HETATM   10  H   UNK N   1      36.797  14.933  14.166  0.00  0.00     0.210 HD
ENDBRANCH   2   9
BRANCH   5  11
HETATM   11  S   UNK N   1      36.864  11.425   9.679  0.00  0.00    -0.148 SA
HETATM   12  H   UNK N   1      37.365  10.161   9.616  0.00  0.00     0.104 HD
ENDBRANCH   5  11
BRANCH   4  13
HETATM   13  S   UNK N   1      35.568  16.539  10.855  0.00  0.00    -0.172 SA
HETATM   14  H   UNK N   1      36.601  17.414  10.718  0.00  0.00     0.102 HD
ENDBRANCH   4  13
BRANCH   1  15
HETATM   15  C   UNK N   1      33.323  14.326   9.495  0.00  0.00     0.197 C 
BRANCH  15  16
HETATM   16  O   UNK N   1      32.424  14.956  10.357  0.00  0.00    -0.398 OA
HETATM   17  H   UNK N   1      31.701  15.602  10.320  0.00  0.00     0.209 HD
ENDBRANCH  15  16
ENDBRANCH   1  15
TORSDOF 5
ENDMDL
