MODEL 1
REMARK VINA RESULT:      -8.1      0.000      0.000
REMARK  19 active torsions:
REMARK  status: ('A' for Active; 'I' for Inactive)
REMARK    1  A    between atoms: C_28  and  C_7 
REMARK    2  A    between atoms: C_16  and  C_14 
REMARK    3  A    between atoms: C_24  and  C_14 
REMARK    4  A    between atoms: C_30  and  C_16 
REMARK    5  A    between atoms: C_35  and  C_23 
REMARK    6  A    between atoms: O_49  and  C_23 
REMARK    7  A    between atoms: C_30  and  C_25 
REMARK    8  A    between atoms: C_28  and  C_26 
REMARK    9  A    between atoms: O_49  and  C_27 
REMARK   10  A    between atoms: C_28  and  C_37 
REMARK   11  A    between atoms: C_29  and  C_38 
REMARK   12  A    between atoms: C_30  and  O_50 
REMARK   13  A    between atoms: O_44  and  C_31 
REMARK   14  A    between atoms: O_45  and  C_32 
REMARK   15  A    between atoms: O_46  and  C_33 
REMARK   16  A    between atoms: O_47  and  C_34 
REMARK   17  A    between atoms: O_41  and  C_35 
REMARK   18  A    between atoms: O_48  and  C_36 
REMARK       I    between atoms: N_39  and  C_37 
REMARK   19  A    between atoms: O_50  and  C_38 
ROOT
HETATM    1  O   UNK N   1      25.504  16.376   4.534  0.00  0.00    -0.310 OA
ENDROOT
BRANCH   1   2
HETATM    2  C   UNK N   1      24.201  16.768   4.474  0.00  0.00     0.165 C 
BRANCH   2   3
HETATM    3  C   UNK N   1      23.560  16.524   5.820  0.00  0.00     0.042 C 
BRANCH   3   4
HETATM    4  C   UNK N   1      22.864  15.185   6.018  0.00  0.00     0.041 C 
BRANCH   4   5
HETATM    5  C   UNK N   1      21.632  15.586   6.713  0.00  0.00    -0.055 A 
HETATM    6  C   UNK N   1      21.212  16.912   6.668  0.00  0.00     0.010 A 
HETATM    7  C   UNK N   1      20.245  17.354   7.567  0.00  0.00     0.040 A 
HETATM    8  C   UNK N   1      19.719  16.484   8.544  0.00  0.00     0.101 A 
HETATM    9  C   UNK N   1      20.143  15.127   8.566  0.00  0.00     0.102 A 
HETATM   10  C   UNK N   1      21.093  14.705   7.648  0.00  0.00     0.046 A 
BRANCH   8  11
HETATM   11  O   UNK N   1      18.834  16.940   9.460  0.00  0.00    -0.353 OA
HETATM   12  C   UNK N   1      17.489  17.082   9.204  0.00  0.00     0.210 C 
ENDBRANCH   8  11
BRANCH   9  13
HETATM   13  O   UNK N   1      19.716  14.212   9.473  0.00  0.00    -0.353 OA
HETATM   14  C   UNK N   1      20.526  13.376  10.203  0.00  0.00     0.210 C 
ENDBRANCH   9  13
ENDBRANCH   4   5
ENDBRANCH   3   4
ENDBRANCH   2   3
BRANCH   2  15
HETATM   15  C   UNK N   1      24.073  18.145   3.884  0.00  0.00    -0.026 A 
HETATM   16  C   UNK N   1      25.214  18.786   3.377  0.00  0.00     0.010 A 
HETATM   17  C   UNK N   1      25.115  20.065   2.829  0.00  0.00     0.003 A 
HETATM   18  C   UNK N   1      23.875  20.704   2.777  0.00  0.00     0.037 A 
HETATM   19  C   UNK N   1      22.733  20.068   3.296  0.00  0.00     0.070 A 
HETATM   20  C   UNK N   1      22.842  18.800   3.850  0.00  0.00     0.046 A 
BRANCH  19  21
HETATM   21  O   UNK N   1      21.508  20.628   3.212  0.00  0.00    -0.341 OA
BRANCH  21  22
HETATM   22  C   UNK N   1      20.560  20.181   2.322  0.00  0.00     0.285 C 
BRANCH  22  23
HETATM   23  C   UNK N   1      20.718  20.941   1.039  0.00  0.00     0.164 C 
HETATM   24  O   UNK N   1      20.961  20.346   0.004  0.00  0.00    -0.648 OA
BRANCH  23  25
HETATM   25  O   UNK N   1      20.503  22.271   1.016  0.00  0.00    -0.775 OA
HETATM   26  H   UNK N   1      20.044  22.737   0.346  0.00  0.00     0.167 HD
ENDBRANCH  23  25
ENDBRANCH  22  23
ENDBRANCH  21  22
ENDBRANCH  19  21
ENDBRANCH   2  15
ENDBRANCH   1   2
BRANCH   1  27
HETATM   27  C   UNK N   1      26.103  15.368   3.846  0.00  0.00     0.282 C 
HETATM   28  O   UNK N   1      25.638  14.916   2.809  0.00  0.00    -0.263 OA
BRANCH  27  29
HETATM   29  C   UNK N   1      27.233  14.722   4.538  0.00  0.00     0.186 C 
HETATM   30  C   UNK N   1      26.869  13.241   4.577  0.00  0.00     0.035 C 
HETATM   31  C   UNK N   1      28.097  12.386   4.512  0.00  0.00     0.004 C 
HETATM   32  C   UNK N   1      28.640  12.583   3.121  0.00  0.00     0.020 C 
HETATM   33  C   UNK N   1      29.077  14.029   2.885  0.00  0.00     0.127 C 
HETATM   34  N   UNK N   1      28.404  15.045   3.705  0.00  0.00    -0.338 N 
HETATM   35  C   UNK N   1      28.866  16.341   3.593  0.00  0.00     0.229 C 
HETATM   36  O   UNK N   1      29.728  16.606   2.771  0.00  0.00    -0.273 OA
BRANCH  35  37
HETATM   37  C   UNK N   1      28.591  17.364   4.695  0.00  0.00     0.111 C 
BRANCH  37  38
HETATM   38  C   UNK N   1      28.705  18.796   4.141  0.00  0.00     0.014 C 
HETATM   39  C   UNK N   1      28.077  19.818   5.075  0.00  0.00     0.006 C 
ENDBRANCH  37  38
BRANCH  37  40
HETATM   40  C   UNK N   1      29.688  16.988   5.671  0.00  0.00    -0.040 A 
HETATM   41  C   UNK N   1      31.013  17.050   5.218  0.00  0.00     0.047 A 
HETATM   42  C   UNK N   1      32.081  17.173   6.104  0.00  0.00     0.104 A 
HETATM   43  C   UNK N   1      31.835  17.250   7.493  0.00  0.00     0.135 A 
HETATM   44  C   UNK N   1      30.493  17.173   7.963  0.00  0.00     0.104 A 
HETATM   45  C   UNK N   1      29.446  17.061   7.045  0.00  0.00     0.047 A 
BRANCH  42  46
HETATM   46  O   UNK N   1      33.341  17.290   5.634  0.00  0.00    -0.353 OA
HETATM   47  C   UNK N   1      34.088  16.195   5.280  0.00  0.00     0.210 C 
ENDBRANCH  42  46
BRANCH  43  48
HETATM   48  O   UNK N   1      32.844  17.446   8.386  0.00  0.00    -0.351 OA
HETATM   49  C   UNK N   1      33.574  16.460   9.014  0.00  0.00     0.210 C 
ENDBRANCH  43  48
BRANCH  44  50
HETATM   50  O   UNK N   1      30.154  17.272   9.274  0.00  0.00    -0.353 OA
HETATM   51  C   UNK N   1      29.380  18.264   9.830  0.00  0.00     0.210 C 
ENDBRANCH  44  50
ENDBRANCH  37  40
ENDBRANCH  35  37
ENDBRANCH  27  29
ENDBRANCH   1  27
TORSDOF 19
ENDMDL
MODEL 2
REMARK VINA RESULT:      -8.0      2.008      8.446
REMARK  19 active torsions:
REMARK  status: ('A' for Active; 'I' for Inactive)
REMARK    1  A    between atoms: C_28  and  C_7 
REMARK    2  A    between atoms: C_16  and  C_14 
REMARK    3  A    between atoms: C_24  and  C_14 
REMARK    4  A    between atoms: C_30  and  C_16 
REMARK    5  A    between atoms: C_35  and  C_23 
REMARK    6  A    between atoms: O_49  and  C_23 
REMARK    7  A    between atoms: C_30  and  C_25 
REMARK    8  A    between atoms: C_28  and  C_26 
REMARK    9  A    between atoms: O_49  and  C_27 
REMARK   10  A    between atoms: C_28  and  C_37 
REMARK   11  A    between atoms: C_29  and  C_38 
REMARK   12  A    between atoms: C_30  and  O_50 
REMARK   13  A    between atoms: O_44  and  C_31 
REMARK   14  A    between atoms: O_45  and  C_32 
REMARK   15  A    between atoms: O_46  and  C_33 
REMARK   16  A    between atoms: O_47  and  C_34 
REMARK   17  A    between atoms: O_41  and  C_35 
REMARK   18  A    between atoms: O_48  and  C_36 
REMARK       I    between atoms: N_39  and  C_37 
REMARK   19  A    between atoms: O_50  and  C_38 
ROOT
HETATM    1  O   UNK N   1      27.225  16.231   3.051  0.00  0.00    -0.310 OA
ENDROOT
BRANCH   1   2
HETATM    2  C   UNK N   1      27.948  16.869   4.012  0.00  0.00     0.165 C 
BRANCH   2   3
HETATM    3  C   UNK N   1      29.415  16.749   3.674  0.00  0.00     0.042 C 
BRANCH   3   4
HETATM    4  C   UNK N   1      30.227  15.742   4.476  0.00  0.00     0.041 C 
BRANCH   4   5
HETATM    5  C   UNK N   1      31.039  16.621   5.331  0.00  0.00    -0.055 A 
HETATM    6  C   UNK N   1      32.346  16.929   4.964  0.00  0.00     0.010 A 
HETATM    7  C   UNK N   1      33.207  17.486   5.905  0.00  0.00     0.040 A 
HETATM    8  C   UNK N   1      32.780  17.705   7.231  0.00  0.00     0.101 A 
HETATM    9  C   UNK N   1      31.438  17.403   7.587  0.00  0.00     0.102 A 
HETATM   10  C   UNK N   1      30.592  16.867   6.627  0.00  0.00     0.046 A 
BRANCH   8  11
HETATM   11  O   UNK N   1      33.645  18.178   8.157  0.00  0.00    -0.353 OA
HETATM   12  C   UNK N   1      34.518  17.375   8.855  0.00  0.00     0.210 C 
ENDBRANCH   8  11
BRANCH   9  13
HETATM   13  O   UNK N   1      30.930  17.556   8.836  0.00  0.00    -0.353 OA
HETATM   14  C   UNK N   1      30.094  18.570   9.238  0.00  0.00     0.210 C 
ENDBRANCH   9  13
ENDBRANCH   4   5
ENDBRANCH   3   4
ENDBRANCH   2   3
BRANCH   2  15
HETATM   15  C   UNK N   1      27.408  18.247   4.276  0.00  0.00    -0.026 A 
HETATM   16  C   UNK N   1      28.171  19.154   5.028  0.00  0.00     0.010 A 
HETATM   17  C   UNK N   1      27.683  20.436   5.285  0.00  0.00     0.003 A 
HETATM   18  C   UNK N   1      26.438  20.819   4.785  0.00  0.00     0.037 A 
HETATM   19  C   UNK N   1      25.667  19.906   4.043  0.00  0.00     0.070 A 
HETATM   20  C   UNK N   1      26.154  18.629   3.801  0.00  0.00     0.046 A 
BRANCH  19  21
HETATM   21  O   UNK N   1      24.485  20.257   3.494  0.00  0.00    -0.341 OA
BRANCH  21  22
HETATM   22  C   UNK N   1      23.369  19.458   3.588  0.00  0.00     0.285 C 
BRANCH  22  23
HETATM   23  C   UNK N   1      22.227  20.160   2.916  0.00  0.00     0.164 C 
HETATM   24  O   UNK N   1      22.251  21.371   2.777  0.00  0.00    -0.648 OA
BRANCH  23  25
HETATM   25  O   UNK N   1      21.215  19.443   2.388  0.00  0.00    -0.775 OA
HETATM   26  H   UNK N   1      20.529  19.784   1.849  0.00  0.00     0.167 HD
ENDBRANCH  23  25
ENDBRANCH  22  23
ENDBRANCH  21  22
ENDBRANCH  19  21
ENDBRANCH   2  15
ENDBRANCH   1   2
BRANCH   1  27
HETATM   27  C   UNK N   1      26.669  14.992   3.112  0.00  0.00     0.282 C 
HETATM   28  O   UNK N   1      27.339  13.979   3.246  0.00  0.00    -0.263 OA
BRANCH  27  29
HETATM   29  C   UNK N   1      25.229  14.936   2.803  0.00  0.00     0.186 C 
HETATM   30  C   UNK N   1      25.158  14.961   1.279  0.00  0.00     0.035 C 
HETATM   31  C   UNK N   1      23.979  14.181   0.784  0.00  0.00     0.004 C 
HETATM   32  C   UNK N   1      24.297  12.744   1.103  0.00  0.00     0.020 C 
HETATM   33  C   UNK N   1      24.401  12.509   2.610  0.00  0.00     0.127 C 
HETATM   34  N   UNK N   1      24.771  13.678   3.418  0.00  0.00    -0.338 N 
HETATM   35  C   UNK N   1      24.754  13.518   4.789  0.00  0.00     0.229 C 
HETATM   36  O   UNK N   1      24.532  12.417   5.266  0.00  0.00    -0.273 OA
BRANCH  35  37
HETATM   37  C   UNK N   1      24.653  14.730   5.714  0.00  0.00     0.111 C 
BRANCH  37  38
HETATM   38  C   UNK N   1      25.643  14.599   6.885  0.00  0.00     0.014 C 
HETATM   39  C   UNK N   1      26.575  15.797   6.979  0.00  0.00     0.006 C 
ENDBRANCH  37  38
BRANCH  37  40
HETATM   40  C   UNK N   1      23.196  14.621   6.119  0.00  0.00    -0.040 A 
HETATM   41  C   UNK N   1      22.913  14.290   7.450  0.00  0.00     0.047 A 
HETATM   42  C   UNK N   1      21.685  14.598   8.032  0.00  0.00     0.104 A 
HETATM   43  C   UNK N   1      20.699  15.270   7.276  0.00  0.00     0.135 A 
HETATM   44  C   UNK N   1      20.974  15.598   5.918  0.00  0.00     0.104 A 
HETATM   45  C   UNK N   1      22.220  15.283   5.371  0.00  0.00     0.047 A 
BRANCH  42  46
HETATM   46  O   UNK N   1      21.464  14.318   9.335  0.00  0.00    -0.353 OA
HETATM   47  C   UNK N   1      22.222  13.401  10.018  0.00  0.00     0.210 C 
ENDBRANCH  42  46
BRANCH  43  48
HETATM   48  O   UNK N   1      19.517  15.656   7.830  0.00  0.00    -0.351 OA
HETATM   49  C   UNK N   1      19.270  16.855   8.463  0.00  0.00     0.210 C 
ENDBRANCH  43  48
BRANCH  44  50
HETATM   50  O   UNK N   1      20.105  16.273   5.123  0.00  0.00    -0.353 OA
HETATM   51  C   UNK N   1      20.149  16.328   3.750  0.00  0.00     0.210 C 
ENDBRANCH  44  50
ENDBRANCH  37  40
ENDBRANCH  35  37
ENDBRANCH  27  29
ENDBRANCH   1  27
TORSDOF 19
ENDMDL
MODEL 3
REMARK VINA RESULT:      -8.0      2.425      9.164
REMARK  19 active torsions:
REMARK  status: ('A' for Active; 'I' for Inactive)
REMARK    1  A    between atoms: C_28  and  C_7 
REMARK    2  A    between atoms: C_16  and  C_14 
REMARK    3  A    between atoms: C_24  and  C_14 
REMARK    4  A    between atoms: C_30  and  C_16 
REMARK    5  A    between atoms: C_35  and  C_23 
REMARK    6  A    between atoms: O_49  and  C_23 
REMARK    7  A    between atoms: C_30  and  C_25 
REMARK    8  A    between atoms: C_28  and  C_26 
REMARK    9  A    between atoms: O_49  and  C_27 
REMARK   10  A    between atoms: C_28  and  C_37 
REMARK   11  A    between atoms: C_29  and  C_38 
REMARK   12  A    between atoms: C_30  and  O_50 
REMARK   13  A    between atoms: O_44  and  C_31 
REMARK   14  A    between atoms: O_45  and  C_32 
REMARK   15  A    between atoms: O_46  and  C_33 
REMARK   16  A    between atoms: O_47  and  C_34 
REMARK   17  A    between atoms: O_41  and  C_35 
REMARK   18  A    between atoms: O_48  and  C_36 
REMARK       I    between atoms: N_39  and  C_37 
REMARK   19  A    between atoms: O_50  and  C_38 
ROOT
HETATM    1  O   UNK N   1      27.098  15.573   2.314  0.00  0.00    -0.310 OA
ENDROOT
BRANCH   1   2
HETATM    2  C   UNK N   1      27.993  15.940   3.273  0.00  0.00     0.165 C 
BRANCH   2   3
HETATM    3  C   UNK N   1      29.362  16.040   2.643  0.00  0.00     0.042 C 
BRANCH   3   4
HETATM    4  C   UNK N   1      30.410  15.039   3.109  0.00  0.00     0.041 C 
BRANCH   4   5
HETATM    5  C   UNK N   1      31.213  15.852   4.035  0.00  0.00    -0.055 A 
HETATM    6  C   UNK N   1      31.818  17.021   3.583  0.00  0.00     0.010 A 
HETATM    7  C   UNK N   1      32.819  17.613   4.348  0.00  0.00     0.040 A 
HETATM    8  C   UNK N   1      33.251  17.019   5.552  0.00  0.00     0.101 A 
HETATM    9  C   UNK N   1      32.612  15.836   6.010  0.00  0.00     0.102 A 
HETATM   10  C   UNK N   1      31.604  15.274   5.241  0.00  0.00     0.046 A 
BRANCH   8  11
HETATM   11  O   UNK N   1      34.274  17.561   6.251  0.00  0.00    -0.353 OA
HETATM   12  C   UNK N   1      34.130  18.079   7.519  0.00  0.00     0.210 C 
ENDBRANCH   8  11
BRANCH   9  13
HETATM   13  O   UNK N   1      32.962  15.173   7.142  0.00  0.00    -0.353 OA
HETATM   14  C   UNK N   1      33.353  13.858   7.207  0.00  0.00     0.210 C 
ENDBRANCH   9  13
ENDBRANCH   4   5
ENDBRANCH   3   4
ENDBRANCH   2   3
BRANCH   2  15
HETATM   15  C   UNK N   1      27.499  17.126   4.053  0.00  0.00    -0.026 A 
HETATM   16  C   UNK N   1      26.303  17.752   3.671  0.00  0.00     0.010 A 
HETATM   17  C   UNK N   1      25.831  18.856   4.382  0.00  0.00     0.003 A 
HETATM   18  C   UNK N   1      26.547  19.332   5.482  0.00  0.00     0.037 A 
HETATM   19  C   UNK N   1      27.753  18.713   5.857  0.00  0.00     0.070 A 
HETATM   20  C   UNK N   1      28.221  17.622   5.138  0.00  0.00     0.046 A 
BRANCH  19  21
HETATM   21  O   UNK N   1      28.443  19.107   6.948  0.00  0.00    -0.341 OA
BRANCH  21  22
HETATM   22  C   UNK N   1      29.141  18.218   7.731  0.00  0.00     0.285 C 
BRANCH  22  23
HETATM   23  C   UNK N   1      28.666  18.359   9.147  0.00  0.00     0.164 C 
HETATM   24  O   UNK N   1      29.432  18.744  10.012  0.00  0.00    -0.648 OA
BRANCH  23  25
HETATM   25  O   UNK N   1      27.369  18.144   9.444  0.00  0.00    -0.775 OA
HETATM   26  H   UNK N   1      26.638  18.464   8.955  0.00  0.00     0.167 HD
ENDBRANCH  23  25
ENDBRANCH  22  23
ENDBRANCH  21  22
ENDBRANCH  19  21
ENDBRANCH   2  15
ENDBRANCH   1   2
BRANCH   1  27
HETATM   27  C   UNK N   1      26.375  14.423   2.245  0.00  0.00     0.282 C 
HETATM   28  O   UNK N   1      26.884  13.344   1.979  0.00  0.00    -0.263 OA
BRANCH  27  29
HETATM   29  C   UNK N   1      24.913  14.599   2.311  0.00  0.00     0.186 C 
HETATM   30  C   UNK N   1      24.452  14.556   0.857  0.00  0.00     0.035 C 
HETATM   31  C   UNK N   1      23.080  13.964   0.747  0.00  0.00     0.004 C 
HETATM   32  C   UNK N   1      23.249  12.512   1.110  0.00  0.00     0.020 C 
HETATM   33  C   UNK N   1      23.705  12.341   2.559  0.00  0.00     0.127 C 
HETATM   34  N   UNK N   1      24.447  13.470   3.136  0.00  0.00    -0.338 N 
HETATM   35  C   UNK N   1      24.765  13.386   4.476  0.00  0.00     0.229 C 
HETATM   36  O   UNK N   1      24.511  12.365   5.095  0.00  0.00    -0.273 OA
BRANCH  35  37
HETATM   37  C   UNK N   1      25.094  14.644   5.280  0.00  0.00     0.111 C 
BRANCH  37  38
HETATM   38  C   UNK N   1      26.050  14.309   6.438  0.00  0.00     0.014 C 
HETATM   39  C   UNK N   1      26.405  15.540   7.256  0.00  0.00     0.006 C 
ENDBRANCH  37  38
BRANCH  37  40
HETATM   40  C   UNK N   1      23.698  15.036   5.722  0.00  0.00    -0.040 A 
HETATM   41  C   UNK N   1      23.127  14.325   6.785  0.00  0.00     0.047 A 
HETATM   42  C   UNK N   1      22.095  14.862   7.551  0.00  0.00     0.104 A 
HETATM   43  C   UNK N   1      21.612  16.158   7.266  0.00  0.00     0.135 A 
HETATM   44  C   UNK N   1      22.177  16.883   6.178  0.00  0.00     0.104 A 
HETATM   45  C   UNK N   1      23.218  16.317   5.438  0.00  0.00     0.047 A 
BRANCH  42  46
HETATM   46  O   UNK N   1      21.607  14.175   8.607  0.00  0.00    -0.353 OA
HETATM   47  C   UNK N   1      22.430  13.552   9.510  0.00  0.00     0.210 C 
ENDBRANCH  42  46
BRANCH  43  48
HETATM   48  O   UNK N   1      20.657  16.749   8.037  0.00  0.00    -0.351 OA
HETATM   49  C   UNK N   1      19.294  16.629   7.873  0.00  0.00     0.210 C 
ENDBRANCH  43  48
BRANCH  44  50
HETATM   50  O   UNK N   1      21.803  18.146   5.849  0.00  0.00    -0.353 OA
HETATM   51  C   UNK N   1      21.628  18.625   4.572  0.00  0.00     0.210 C 
ENDBRANCH  44  50
ENDBRANCH  37  40
ENDBRANCH  35  37
ENDBRANCH  27  29
ENDBRANCH   1  27
TORSDOF 19
ENDMDL
MODEL 4
REMARK VINA RESULT:      -8.0      1.920      3.308
REMARK  19 active torsions:
REMARK  status: ('A' for Active; 'I' for Inactive)
REMARK    1  A    between atoms: C_28  and  C_7 
REMARK    2  A    between atoms: C_16  and  C_14 
REMARK    3  A    between atoms: C_24  and  C_14 
REMARK    4  A    between atoms: C_30  and  C_16 
REMARK    5  A    between atoms: C_35  and  C_23 
REMARK    6  A    between atoms: O_49  and  C_23 
REMARK    7  A    between atoms: C_30  and  C_25 
REMARK    8  A    between atoms: C_28  and  C_26 
REMARK    9  A    between atoms: O_49  and  C_27 
REMARK   10  A    between atoms: C_28  and  C_37 
REMARK   11  A    between atoms: C_29  and  C_38 
REMARK   12  A    between atoms: C_30  and  O_50 
REMARK   13  A    between atoms: O_44  and  C_31 
REMARK   14  A    between atoms: O_45  and  C_32 
REMARK   15  A    between atoms: O_46  and  C_33 
REMARK   16  A    between atoms: O_47  and  C_34 
REMARK   17  A    between atoms: O_41  and  C_35 
REMARK   18  A    between atoms: O_48  and  C_36 
REMARK       I    between atoms: N_39  and  C_37 
REMARK   19  A    between atoms: O_50  and  C_38 
ROOT
HETATM    1  O   UNK N   1      25.929  16.904   5.584  0.00  0.00    -0.310 OA
ENDROOT
BRANCH   1   2
HETATM    2  C   UNK N   1      24.829  16.787   4.791  0.00  0.00     0.165 C 
BRANCH   2   3
HETATM    3  C   UNK N   1      23.738  16.097   5.575  0.00  0.00     0.042 C 
BRANCH   3   4
HETATM    4  C   UNK N   1      23.430  14.653   5.202  0.00  0.00     0.041 C 
BRANCH   4   5
HETATM    5  C   UNK N   1      23.357  14.010   6.523  0.00  0.00    -0.055 A 
HETATM    6  C   UNK N   1      24.369  13.145   6.929  0.00  0.00     0.010 A 
HETATM    7  C   UNK N   1      24.153  12.303   8.017  0.00  0.00     0.040 A 
HETATM    8  C   UNK N   1      22.911  12.292   8.683  0.00  0.00     0.101 A 
HETATM    9  C   UNK N   1      21.893  13.193   8.270  0.00  0.00     0.102 A 
HETATM   10  C   UNK N   1      22.137  14.036   7.196  0.00  0.00     0.046 A 
BRANCH   8  11
HETATM   11  O   UNK N   1      22.685  11.420   9.692  0.00  0.00    -0.353 OA
HETATM   12  C   UNK N   1      23.089  11.645  10.989  0.00  0.00     0.210 C 
ENDBRANCH   8  11
BRANCH   9  13
HETATM   13  O   UNK N   1      20.657  13.252   8.827  0.00  0.00    -0.353 OA
HETATM   14  C   UNK N   1      20.274  14.113   9.826  0.00  0.00     0.210 C 
ENDBRANCH   9  13
ENDBRANCH   4   5
ENDBRANCH   3   4
ENDBRANCH   2   3
BRANCH   2  15
HETATM   15  C   UNK N   1      24.489  18.096   4.135  0.00  0.00    -0.026 A 
HETATM   16  C   UNK N   1      25.519  18.888   3.602  0.00  0.00     0.010 A 
HETATM   17  C   UNK N   1      25.223  20.107   2.993  0.00  0.00     0.003 A 
HETATM   18  C   UNK N   1      23.897  20.536   2.904  0.00  0.00     0.037 A 
HETATM   19  C   UNK N   1      22.866  19.750   3.449  0.00  0.00     0.070 A 
HETATM   20  C   UNK N   1      23.170  18.543   4.064  0.00  0.00     0.046 A 
BRANCH  19  21
HETATM   21  O   UNK N   1      21.568  20.102   3.332  0.00  0.00    -0.341 OA
BRANCH  21  22
HETATM   22  C   UNK N   1      21.136  21.000   2.385  0.00  0.00     0.285 C 
BRANCH  22  23
HETATM   23  C   UNK N   1      20.855  20.253   1.116  0.00  0.00     0.164 C 
HETATM   24  O   UNK N   1      21.220  20.708   0.046  0.00  0.00    -0.648 OA
BRANCH  23  25
HETATM   25  O   UNK N   1      20.278  19.036   1.167  0.00  0.00    -0.775 OA
HETATM   26  H   UNK N   1      19.786  18.637   0.478  0.00  0.00     0.167 HD
ENDBRANCH  23  25
ENDBRANCH  22  23
ENDBRANCH  21  22
ENDBRANCH  19  21
ENDBRANCH   2  15
ENDBRANCH   1   2
BRANCH   1  27
HETATM   27  C   UNK N   1      26.559  15.923   6.284  0.00  0.00     0.282 C 
HETATM   28  O   UNK N   1      26.341  15.720   7.469  0.00  0.00    -0.263 OA
BRANCH  27  29
HETATM   29  C   UNK N   1      27.667  15.259   5.572  0.00  0.00     0.186 C 
HETATM   30  C   UNK N   1      26.983  14.327   4.575  0.00  0.00     0.035 C 
HETATM   31  C   UNK N   1      27.805  14.177   3.332  0.00  0.00     0.004 C 
HETATM   32  C   UNK N   1      27.748  15.523   2.658  0.00  0.00     0.020 C 
HETATM   33  C   UNK N   1      28.404  16.610   3.511  0.00  0.00     0.127 C 
HETATM   34  N   UNK N   1      28.422  16.366   4.959  0.00  0.00    -0.338 N 
HETATM   35  C   UNK N   1      29.113  17.275   5.734  0.00  0.00     0.229 C 
HETATM   36  O   UNK N   1      29.589  18.272   5.217  0.00  0.00    -0.273 OA
BRANCH  35  37
HETATM   37  C   UNK N   1      29.597  16.897   7.134  0.00  0.00     0.111 C 
BRANCH  37  38
HETATM   38  C   UNK N   1      29.479  18.098   8.088  0.00  0.00     0.014 C 
HETATM   39  C   UNK N   1      28.585  17.791   9.279  0.00  0.00     0.006 C 
ENDBRANCH  37  38
BRANCH  37  40
HETATM   40  C   UNK N   1      31.025  16.500   6.810  0.00  0.00    -0.040 A 
HETATM   41  C   UNK N   1      32.053  17.130   7.523  0.00  0.00     0.047 A 
HETATM   42  C   UNK N   1      33.315  16.552   7.644  0.00  0.00     0.104 A 
HETATM   43  C   UNK N   1      33.572  15.297   7.049  0.00  0.00     0.135 A 
HETATM   44  C   UNK N   1      32.536  14.657   6.311  0.00  0.00     0.104 A 
HETATM   45  C   UNK N   1      31.280  15.260   6.219  0.00  0.00     0.047 A 
BRANCH  42  46
HETATM   46  O   UNK N   1      34.268  17.155   8.388  0.00  0.00    -0.353 OA
HETATM   47  C   UNK N   1      34.616  18.469   8.193  0.00  0.00     0.210 C 
ENDBRANCH  42  46
BRANCH  43  48
HETATM   48  O   UNK N   1      34.767  14.664   7.208  0.00  0.00    -0.351 OA
HETATM   49  C   UNK N   1      35.837  14.720   6.341  0.00  0.00     0.210 C 
ENDBRANCH  43  48
BRANCH  44  50
HETATM   50  O   UNK N   1      32.676  13.436   5.734  0.00  0.00    -0.353 OA
HETATM   51  C   UNK N   1      32.868  13.198   4.393  0.00  0.00     0.210 C 
ENDBRANCH  44  50
ENDBRANCH  37  40
ENDBRANCH  35  37
ENDBRANCH  27  29
ENDBRANCH   1  27
TORSDOF 19
ENDMDL
MODEL 5
REMARK VINA RESULT:      -7.9      2.577      7.637
REMARK  19 active torsions:
REMARK  status: ('A' for Active; 'I' for Inactive)
REMARK    1  A    between atoms: C_28  and  C_7 
REMARK    2  A    between atoms: C_16  and  C_14 
REMARK    3  A    between atoms: C_24  and  C_14 
REMARK    4  A    between atoms: C_30  and  C_16 
REMARK    5  A    between atoms: C_35  and  C_23 
REMARK    6  A    between atoms: O_49  and  C_23 
REMARK    7  A    between atoms: C_30  and  C_25 
REMARK    8  A    between atoms: C_28  and  C_26 
REMARK    9  A    between atoms: O_49  and  C_27 
REMARK   10  A    between atoms: C_28  and  C_37 
REMARK   11  A    between atoms: C_29  and  C_38 
REMARK   12  A    between atoms: C_30  and  O_50 
REMARK   13  A    between atoms: O_44  and  C_31 
REMARK   14  A    between atoms: O_45  and  C_32 
REMARK   15  A    between atoms: O_46  and  C_33 
REMARK   16  A    between atoms: O_47  and  C_34 
REMARK   17  A    between atoms: O_41  and  C_35 
REMARK   18  A    between atoms: O_48  and  C_36 
REMARK       I    between atoms: N_39  and  C_37 
REMARK   19  A    between atoms: O_50  and  C_38 
ROOT
HETATM    1  O   UNK N   1      24.864  16.149   2.484  0.00  0.00    -0.310 OA
ENDROOT
BRANCH   1   2
HETATM    2  C   UNK N   1      24.990  16.772   3.688  0.00  0.00     0.165 C 
BRANCH   2   3
HETATM    3  C   UNK N   1      26.214  17.656   3.649  0.00  0.00     0.042 C 
BRANCH   3   4
HETATM    4  C   UNK N   1      27.565  16.969   3.792  0.00  0.00     0.041 C 
BRANCH   4   5
HETATM    5  C   UNK N   1      28.084  17.578   5.026  0.00  0.00    -0.055 A 
HETATM    6  C   UNK N   1      28.846  16.816   5.907  0.00  0.00     0.010 A 
HETATM    7  C   UNK N   1      29.066  17.282   7.200  0.00  0.00     0.040 A 
HETATM    8  C   UNK N   1      28.494  18.495   7.635  0.00  0.00     0.101 A 
HETATM    9  C   UNK N   1      27.733  19.272   6.720  0.00  0.00     0.102 A 
HETATM   10  C   UNK N   1      27.544  18.797   5.431  0.00  0.00     0.046 A 
BRANCH   8  11
HETATM   11  O   UNK N   1      28.652  18.905   8.915  0.00  0.00    -0.353 OA
HETATM   12  C   UNK N   1      29.767  18.613   9.668  0.00  0.00     0.210 C 
ENDBRANCH   8  11
BRANCH   9  13
HETATM   13  O   UNK N   1      27.123  20.442   7.039  0.00  0.00    -0.353 OA
HETATM   14  C   UNK N   1      27.000  21.528   6.207  0.00  0.00     0.210 C 
ENDBRANCH   9  13
ENDBRANCH   4   5
ENDBRANCH   3   4
ENDBRANCH   2   3
BRANCH   2  15
HETATM   15  C   UNK N   1      23.693  17.401   4.115  0.00  0.00    -0.026 A 
HETATM   16  C   UNK N   1      23.320  17.361   5.467  0.00  0.00     0.010 A 
HETATM   17  C   UNK N   1      22.118  17.937   5.880  0.00  0.00     0.003 A 
HETATM   18  C   UNK N   1      21.291  18.563   4.947  0.00  0.00     0.037 A 
HETATM   19  C   UNK N   1      21.657  18.593   3.589  0.00  0.00     0.070 A 
HETATM   20  C   UNK N   1      22.849  18.007   3.184  0.00  0.00     0.046 A 
BRANCH  19  21
HETATM   21  O   UNK N   1      20.913  19.238   2.667  0.00  0.00    -0.341 OA
BRANCH  21  22
HETATM   22  C   UNK N   1      20.890  20.610   2.576  0.00  0.00     0.285 C 
BRANCH  22  23
HETATM   23  C   UNK N   1      20.785  20.986   1.128  0.00  0.00     0.164 C 
HETATM   24  O   UNK N   1      20.902  20.133   0.265  0.00  0.00    -0.648 OA
BRANCH  23  25
HETATM   25  O   UNK N   1      20.473  22.252   0.784  0.00  0.00    -0.775 OA
HETATM   26  H   UNK N   1      19.859  22.501   0.122  0.00  0.00     0.167 HD
ENDBRANCH  23  25
ENDBRANCH  22  23
ENDBRANCH  21  22
ENDBRANCH  19  21
ENDBRANCH   2  15
ENDBRANCH   1   2
BRANCH   1  27
HETATM   27  C   UNK N   1      24.681  14.823   2.248  0.00  0.00     0.282 C 
HETATM   28  O   UNK N   1      25.495  14.148   1.635  0.00  0.00    -0.263 OA
BRANCH  27  29
HETATM   29  C   UNK N   1      23.347  14.303   2.600  0.00  0.00     0.186 C 
HETATM   30  C   UNK N   1      22.561  14.333   1.293  0.00  0.00     0.035 C 
HETATM   31  C   UNK N   1      21.562  13.218   1.242  0.00  0.00     0.004 C 
HETATM   32  C   UNK N   1      22.383  11.959   1.136  0.00  0.00     0.020 C 
HETATM   33  C   UNK N   1      23.247  11.742   2.378  0.00  0.00     0.127 C 
HETATM   34  N   UNK N   1      23.609  12.952   3.128  0.00  0.00    -0.338 N 
HETATM   35  C   UNK N   1      24.289  12.768   4.315  0.00  0.00     0.229 C 
HETATM   36  O   UNK N   1      24.638  11.647   4.644  0.00  0.00    -0.273 OA
BRANCH  35  37
HETATM   37  C   UNK N   1      24.300  13.862   5.383  0.00  0.00     0.111 C 
BRANCH  37  38
HETATM   38  C   UNK N   1      25.592  13.788   6.216  0.00  0.00     0.014 C 
HETATM   39  C   UNK N   1      25.915  15.115   6.884  0.00  0.00     0.006 C 
ENDBRANCH  37  38
BRANCH  37  40
HETATM   40  C   UNK N   1      23.047  13.484   6.148  0.00  0.00    -0.040 A 
HETATM   41  C   UNK N   1      23.203  12.955   7.436  0.00  0.00     0.047 A 
HETATM   42  C   UNK N   1      22.174  13.000   8.373  0.00  0.00     0.104 A 
HETATM   43  C   UNK N   1      20.941  13.601   8.032  0.00  0.00     0.135 A 
HETATM   44  C   UNK N   1      20.769  14.129   6.721  0.00  0.00     0.104 A 
HETATM   45  C   UNK N   1      21.827  14.076   5.811  0.00  0.00     0.047 A 
BRANCH  42  46
HETATM   46  O   UNK N   1      22.376  12.535   9.624  0.00  0.00    -0.353 OA
HETATM   47  C   UNK N   1      23.628  12.475  10.182  0.00  0.00     0.210 C 
ENDBRANCH  42  46
BRANCH  43  48
HETATM   48  O   UNK N   1      19.937  13.733   8.942  0.00  0.00    -0.351 OA
HETATM   49  C   UNK N   1      19.635  14.871   9.659  0.00  0.00     0.210 C 
ENDBRANCH  43  48
BRANCH  44  50
HETATM   50  O   UNK N   1      19.636  14.755   6.312  0.00  0.00    -0.353 OA
HETATM   51  C   UNK N   1      19.213  14.881   5.009  0.00  0.00     0.210 C 
ENDBRANCH  44  50
ENDBRANCH  37  40
ENDBRANCH  35  37
ENDBRANCH  27  29
ENDBRANCH   1  27
TORSDOF 19
ENDMDL
MODEL 6
REMARK VINA RESULT:      -7.7      3.352      6.539
REMARK  19 active torsions:
REMARK  status: ('A' for Active; 'I' for Inactive)
REMARK    1  A    between atoms: C_28  and  C_7 
REMARK    2  A    between atoms: C_16  and  C_14 
REMARK    3  A    between atoms: C_24  and  C_14 
REMARK    4  A    between atoms: C_30  and  C_16 
REMARK    5  A    between atoms: C_35  and  C_23 
REMARK    6  A    between atoms: O_49  and  C_23 
REMARK    7  A    between atoms: C_30  and  C_25 
REMARK    8  A    between atoms: C_28  and  C_26 
REMARK    9  A    between atoms: O_49  and  C_27 
REMARK   10  A    between atoms: C_28  and  C_37 
REMARK   11  A    between atoms: C_29  and  C_38 
REMARK   12  A    between atoms: C_30  and  O_50 
REMARK   13  A    between atoms: O_44  and  C_31 
REMARK   14  A    between atoms: O_45  and  C_32 
REMARK   15  A    between atoms: O_46  and  C_33 
REMARK   16  A    between atoms: O_47  and  C_34 
REMARK   17  A    between atoms: O_41  and  C_35 
REMARK   18  A    between atoms: O_48  and  C_36 
REMARK       I    between atoms: N_39  and  C_37 
REMARK   19  A    between atoms: O_50  and  C_38 
ROOT
HETATM    1  O   UNK N   1      30.515  16.836   4.681  0.00  0.00    -0.310 OA
ENDROOT
BRANCH   1   2
HETATM    2  C   UNK N   1      29.278  17.201   4.242  0.00  0.00     0.165 C 
BRANCH   2   3
HETATM    3  C   UNK N   1      28.457  15.953   4.018  0.00  0.00     0.042 C 
BRANCH   3   4
HETATM    4  C   UNK N   1      27.535  15.944   2.807  0.00  0.00     0.041 C 
BRANCH   4   5
HETATM    5  C   UNK N   1      26.210  16.060   3.435  0.00  0.00    -0.055 A 
HETATM    6  C   UNK N   1      25.530  17.274   3.398  0.00  0.00     0.010 A 
HETATM    7  C   UNK N   1      24.445  17.476   4.247  0.00  0.00     0.040 A 
HETATM    8  C   UNK N   1      24.056  16.481   5.167  0.00  0.00     0.101 A 
HETATM    9  C   UNK N   1      24.748  15.240   5.182  0.00  0.00     0.102 A 
HETATM   10  C   UNK N   1      25.813  15.054   4.314  0.00  0.00     0.046 A 
BRANCH   8  11
HETATM   11  O   UNK N   1      23.048  16.715   6.038  0.00  0.00    -0.353 OA
HETATM   12  C   UNK N   1      22.123  17.721   5.871  0.00  0.00     0.210 C 
ENDBRANCH   8  11
BRANCH   9  13
HETATM   13  O   UNK N   1      24.469  14.225   6.038  0.00  0.00    -0.353 OA
HETATM   14  C   UNK N   1      25.396  13.393   6.617  0.00  0.00     0.210 C 
ENDBRANCH   9  13
ENDBRANCH   4   5
ENDBRANCH   3   4
ENDBRANCH   2   3
BRANCH   2  15
HETATM   15  C   UNK N   1      28.687  18.275   5.112  0.00  0.00    -0.026 A 
HETATM   16  C   UNK N   1      28.205  19.453   4.520  0.00  0.00     0.010 A 
HETATM   17  C   UNK N   1      27.655  20.461   5.312  0.00  0.00     0.003 A 
HETATM   18  C   UNK N   1      27.576  20.293   6.695  0.00  0.00     0.037 A 
HETATM   19  C   UNK N   1      28.071  19.119   7.291  0.00  0.00     0.070 A 
HETATM   20  C   UNK N   1      28.626  18.125   6.497  0.00  0.00     0.046 A 
BRANCH  19  21
HETATM   21  O   UNK N   1      27.960  18.894   8.617  0.00  0.00    -0.341 OA
BRANCH  21  22
HETATM   22  C   UNK N   1      29.046  18.577   9.398  0.00  0.00     0.285 C 
BRANCH  22  23
HETATM   23  C   UNK N   1      28.794  17.247  10.042  0.00  0.00     0.164 C 
HETATM   24  O   UNK N   1      27.711  16.702   9.914  0.00  0.00    -0.648 OA
BRANCH  23  25
HETATM   25  O   UNK N   1      29.793  16.613  10.689  0.00  0.00    -0.775 OA
HETATM   26  H   UNK N   1      30.173  16.882  11.501  0.00  0.00     0.167 HD
ENDBRANCH  23  25
ENDBRANCH  22  23
ENDBRANCH  21  22
ENDBRANCH  19  21
ENDBRANCH   2  15
ENDBRANCH   1   2
BRANCH   1  27
HETATM   27  C   UNK N   1      31.554  16.364   3.944  0.00  0.00     0.282 C 
HETATM   28  O   UNK N   1      32.021  16.982   2.998  0.00  0.00    -0.263 OA
BRANCH  27  29
HETATM   29  C   UNK N   1      31.945  14.972   4.232  0.00  0.00     0.186 C 
HETATM   30  C   UNK N   1      31.458  14.174   3.027  0.00  0.00     0.035 C 
HETATM   31  C   UNK N   1      32.360  13.009   2.754  0.00  0.00     0.004 C 
HETATM   32  C   UNK N   1      33.654  13.618   2.279  0.00  0.00     0.020 C 
HETATM   33  C   UNK N   1      34.315  14.462   3.370  0.00  0.00     0.127 C 
HETATM   34  N   UNK N   1      33.411  15.027   4.380  0.00  0.00    -0.338 N 
HETATM   35  C   UNK N   1      33.998  15.693   5.437  0.00  0.00     0.229 C 
HETATM   36  O   UNK N   1      35.205  15.866   5.447  0.00  0.00    -0.273 OA
BRANCH  35  37
HETATM   37  C   UNK N   1      33.236  15.900   6.747  0.00  0.00     0.111 C 
BRANCH  37  38
HETATM   38  C   UNK N   1      33.464  17.324   7.283  0.00  0.00     0.014 C 
HETATM   39  C   UNK N   1      32.303  17.801   8.141  0.00  0.00     0.006 C 
ENDBRANCH  37  38
BRANCH  37  40
HETATM   40  C   UNK N   1      33.874  14.811   7.587  0.00  0.00    -0.040 A 
HETATM   41  C   UNK N   1      34.869  15.190   8.498  0.00  0.00     0.047 A 
HETATM   42  C   UNK N   1      35.187  14.399   9.600  0.00  0.00     0.104 A 
HETATM   43  C   UNK N   1      34.491  13.189   9.820  0.00  0.00     0.135 A 
HETATM   44  C   UNK N   1      33.489  12.790   8.890  0.00  0.00     0.104 A 
HETATM   45  C   UNK N   1      33.188  13.614   7.803  0.00  0.00     0.047 A 
BRANCH  42  46
HETATM   46  O   UNK N   1      36.109  14.820  10.493  0.00  0.00    -0.353 OA
HETATM   47  C   UNK N   1      35.834  15.805  11.408  0.00  0.00     0.210 C 
ENDBRANCH  42  46
BRANCH  43  48
HETATM   48  O   UNK N   1      34.720  12.426  10.924  0.00  0.00    -0.351 OA
HETATM   49  C   UNK N   1      35.656  11.420  11.035  0.00  0.00     0.210 C 
ENDBRANCH  43  48
BRANCH  44  50
HETATM   50  O   UNK N   1      32.743  11.665   9.036  0.00  0.00    -0.353 OA
HETATM   51  C   UNK N   1      33.037  10.432   8.502  0.00  0.00     0.210 C 
ENDBRANCH  44  50
ENDBRANCH  37  40
ENDBRANCH  35  37
ENDBRANCH  27  29
ENDBRANCH   1  27
TORSDOF 19
ENDMDL
MODEL 7
REMARK VINA RESULT:      -7.6      5.862     10.765
REMARK  19 active torsions:
REMARK  status: ('A' for Active; 'I' for Inactive)
REMARK    1  A    between atoms: C_28  and  C_7 
REMARK    2  A    between atoms: C_16  and  C_14 
REMARK    3  A    between atoms: C_24  and  C_14 
REMARK    4  A    between atoms: C_30  and  C_16 
REMARK    5  A    between atoms: C_35  and  C_23 
REMARK    6  A    between atoms: O_49  and  C_23 
REMARK    7  A    between atoms: C_30  and  C_25 
REMARK    8  A    between atoms: C_28  and  C_26 
REMARK    9  A    between atoms: O_49  and  C_27 
REMARK   10  A    between atoms: C_28  and  C_37 
REMARK   11  A    between atoms: C_29  and  C_38 
REMARK   12  A    between atoms: C_30  and  O_50 
REMARK   13  A    between atoms: O_44  and  C_31 
REMARK   14  A    between atoms: O_45  and  C_32 
REMARK   15  A    between atoms: O_46  and  C_33 
REMARK   16  A    between atoms: O_47  and  C_34 
REMARK   17  A    between atoms: O_41  and  C_35 
REMARK   18  A    between atoms: O_48  and  C_36 
REMARK       I    between atoms: N_39  and  C_37 
REMARK   19  A    between atoms: O_50  and  C_38 
ROOT
HETATM    1  O   UNK N   1      34.285  13.682   7.611  0.00  0.00    -0.310 OA
ENDROOT
BRANCH   1   2
HETATM    2  C   UNK N   1      34.301  14.706   6.712  0.00  0.00     0.165 C 
BRANCH   2   3
HETATM    3  C   UNK N   1      33.792  14.193   5.386  0.00  0.00     0.042 C 
BRANCH   3   4
HETATM    4  C   UNK N   1      34.070  15.053   4.162  0.00  0.00     0.041 C 
BRANCH   4   5
HETATM    5  C   UNK N   1      32.777  15.725   3.966  0.00  0.00    -0.055 A 
HETATM    6  C   UNK N   1      32.669  17.097   4.181  0.00  0.00     0.010 A 
HETATM    7  C   UNK N   1      31.408  17.672   4.306  0.00  0.00     0.040 A 
HETATM    8  C   UNK N   1      30.245  16.876   4.256  0.00  0.00     0.101 A 
HETATM    9  C   UNK N   1      30.369  15.481   4.017  0.00  0.00     0.102 A 
HETATM   10  C   UNK N   1      31.635  14.932   3.876  0.00  0.00     0.046 A 
BRANCH   8  11
HETATM   11  O   UNK N   1      29.028  17.433   4.452  0.00  0.00    -0.353 OA
HETATM   12  C   UNK N   1      28.777  18.377   5.421  0.00  0.00     0.210 C 
ENDBRANCH   8  11
BRANCH   9  13
HETATM   13  O   UNK N   1      29.319  14.622   3.969  0.00  0.00    -0.353 OA
HETATM   14  C   UNK N   1      29.226  13.438   4.659  0.00  0.00     0.210 C 
ENDBRANCH   9  13
ENDBRANCH   4   5
ENDBRANCH   3   4
ENDBRANCH   2   3
BRANCH   2  15
HETATM   15  C   UNK N   1      33.649  15.936   7.277  0.00  0.00    -0.026 A 
HETATM   16  C   UNK N   1      34.375  17.137   7.332  0.00  0.00     0.010 A 
HETATM   17  C   UNK N   1      33.787  18.289   7.856  0.00  0.00     0.003 A 
HETATM   18  C   UNK N   1      32.470  18.248   8.317  0.00  0.00     0.037 A 
HETATM   19  C   UNK N   1      31.747  17.043   8.275  0.00  0.00     0.070 A 
HETATM   20  C   UNK N   1      32.343  15.898   7.763  0.00  0.00     0.046 A 
BRANCH  19  21
HETATM   21  O   UNK N   1      30.454  16.976   8.658  0.00  0.00    -0.341 OA
BRANCH  21  22
HETATM   22  C   UNK N   1      29.823  18.025   9.285  0.00  0.00     0.285 C 
BRANCH  22  23
HETATM   23  C   UNK N   1      28.412  17.616   9.585  0.00  0.00     0.164 C 
HETATM   24  O   UNK N   1      28.193  16.619  10.251  0.00  0.00    -0.648 OA
BRANCH  23  25
HETATM   25  O   UNK N   1      27.388  18.401   9.195  0.00  0.00    -0.775 OA
HETATM   26  H   UNK N   1      26.491  18.138   9.137  0.00  0.00     0.167 HD
ENDBRANCH  23  25
ENDBRANCH  22  23
ENDBRANCH  21  22
ENDBRANCH  19  21
ENDBRANCH   2  15
ENDBRANCH   1   2
BRANCH   1  27
HETATM   27  C   UNK N   1      35.340  13.143   8.277  0.00  0.00     0.282 C 
HETATM   28  O   UNK N   1      36.498  13.348   7.947  0.00  0.00    -0.263 OA
BRANCH  27  29
HETATM   29  C   UNK N   1      34.988  12.135   9.295  0.00  0.00     0.186 C 
HETATM   30  C   UNK N   1      34.660  10.877   8.497  0.00  0.00     0.035 C 
HETATM   31  C   UNK N   1      35.026   9.644   9.266  0.00  0.00     0.004 C 
HETATM   32  C   UNK N   1      36.531   9.649   9.321  0.00  0.00     0.020 C 
HETATM   33  C   UNK N   1      37.064  10.850  10.103  0.00  0.00     0.127 C 
HETATM   34  N   UNK N   1      36.193  12.031  10.137  0.00  0.00    -0.338 N 
HETATM   35  C   UNK N   1      36.600  13.082  10.934  0.00  0.00     0.229 C 
HETATM   36  O   UNK N   1      37.684  13.033  11.491  0.00  0.00    -0.273 OA
BRANCH  35  37
HETATM   37  C   UNK N   1      35.595  14.128  11.418  0.00  0.00     0.111 C 
BRANCH  37  38
HETATM   38  C   UNK N   1      36.198  15.540  11.319  0.00  0.00     0.014 C 
HETATM   39  C   UNK N   1      35.206  16.543  10.752  0.00  0.00     0.006 C 
ENDBRANCH  37  38
BRANCH  37  40
HETATM   40  C   UNK N   1      35.386  13.641  12.839  0.00  0.00    -0.040 A 
HETATM   41  C   UNK N   1      34.953  12.321  13.018  0.00  0.00     0.047 A 
HETATM   42  C   UNK N   1      35.159  11.642  14.217  0.00  0.00     0.104 A 
HETATM   43  C   UNK N   1      35.831  12.286  15.280  0.00  0.00     0.135 A 
HETATM   44  C   UNK N   1      36.263  13.632  15.111  0.00  0.00     0.104 A 
HETATM   45  C   UNK N   1      36.048  14.278  13.891  0.00  0.00     0.047 A 
BRANCH  42  46
HETATM   46  O   UNK N   1      34.782  10.351  14.338  0.00  0.00    -0.353 OA
HETATM   47  C   UNK N   1      35.322   9.362  13.555  0.00  0.00     0.210 C 
ENDBRANCH  42  46
BRANCH  43  48
HETATM   48  O   UNK N   1      36.119  11.633  16.440  0.00  0.00    -0.351 OA
HETATM   49  C   UNK N   1      35.325  11.590  17.566  0.00  0.00     0.210 C 
ENDBRANCH  43  48
BRANCH  44  50
HETATM   50  O   UNK N   1      36.946  14.321  16.061  0.00  0.00    -0.353 OA
HETATM   51  C   UNK N   1      37.446  15.596  15.925  0.00  0.00     0.210 C 
ENDBRANCH  44  50
ENDBRANCH  37  40
ENDBRANCH  35  37
ENDBRANCH  27  29
ENDBRANCH   1  27
TORSDOF 19
ENDMDL
MODEL 8
REMARK VINA RESULT:      -7.5      2.964      6.789
REMARK  19 active torsions:
REMARK  status: ('A' for Active; 'I' for Inactive)
REMARK    1  A    between atoms: C_28  and  C_7 
REMARK    2  A    between atoms: C_16  and  C_14 
REMARK    3  A    between atoms: C_24  and  C_14 
REMARK    4  A    between atoms: C_30  and  C_16 
REMARK    5  A    between atoms: C_35  and  C_23 
REMARK    6  A    between atoms: O_49  and  C_23 
REMARK    7  A    between atoms: C_30  and  C_25 
REMARK    8  A    between atoms: C_28  and  C_26 
REMARK    9  A    between atoms: O_49  and  C_27 
REMARK   10  A    between atoms: C_28  and  C_37 
REMARK   11  A    between atoms: C_29  and  C_38 
REMARK   12  A    between atoms: C_30  and  O_50 
REMARK   13  A    between atoms: O_44  and  C_31 
REMARK   14  A    between atoms: O_45  and  C_32 
REMARK   15  A    between atoms: O_46  and  C_33 
REMARK   16  A    between atoms: O_47  and  C_34 
REMARK   17  A    between atoms: O_41  and  C_35 
REMARK   18  A    between atoms: O_48  and  C_36 
REMARK       I    between atoms: N_39  and  C_37 
REMARK   19  A    between atoms: O_50  and  C_38 
ROOT
HETATM    1  O   UNK N   1      22.908  17.304   3.575  0.00  0.00    -0.310 OA
ENDROOT
BRANCH   1   2
HETATM    2  C   UNK N   1      23.003  18.415   4.356  0.00  0.00     0.165 C 
BRANCH   2   3
HETATM    3  C   UNK N   1      22.628  18.045   5.772  0.00  0.00     0.042 C 
BRANCH   3   4
HETATM    4  C   UNK N   1      21.152  18.122   6.135  0.00  0.00     0.041 C 
BRANCH   4   5
HETATM    5  C   UNK N   1      21.033  17.055   7.140  0.00  0.00    -0.055 A 
HETATM    6  C   UNK N   1      21.859  15.937   7.064  0.00  0.00     0.010 A 
HETATM    7  C   UNK N   1      21.543  14.801   7.805  0.00  0.00     0.040 A 
HETATM    8  C   UNK N   1      20.378  14.760   8.597  0.00  0.00     0.101 A 
HETATM    9  C   UNK N   1      19.553  15.914   8.680  0.00  0.00     0.102 A 
HETATM   10  C   UNK N   1      19.898  17.041   7.949  0.00  0.00     0.046 A 
BRANCH   8  11
HETATM   11  O   UNK N   1      20.040  13.628   9.256  0.00  0.00    -0.353 OA
HETATM   12  C   UNK N   1      20.763  13.125  10.314  0.00  0.00     0.210 C 
ENDBRANCH   8  11
BRANCH   9  13
HETATM   13  O   UNK N   1      18.402  15.976   9.396  0.00  0.00    -0.353 OA
HETATM   14  C   UNK N   1      17.492  17.004   9.353  0.00  0.00     0.210 C 
ENDBRANCH   9  13
ENDBRANCH   4   5
ENDBRANCH   3   4
ENDBRANCH   2   3
BRANCH   2  15
HETATM   15  C   UNK N   1      24.316  19.117   4.147  0.00  0.00    -0.026 A 
HETATM   16  C   UNK N   1      24.522  19.858   2.973  0.00  0.00     0.010 A 
HETATM   17  C   UNK N   1      25.735  20.513   2.761  0.00  0.00     0.003 A 
HETATM   18  C   UNK N   1      26.743  20.439   3.724  0.00  0.00     0.037 A 
HETATM   19  C   UNK N   1      26.543  19.685   4.895  0.00  0.00     0.070 A 
HETATM   20  C   UNK N   1      25.337  19.027   5.093  0.00  0.00     0.046 A 
BRANCH  19  21
HETATM   21  O   UNK N   1      27.469  19.636   5.874  0.00  0.00    -0.341 OA
BRANCH  21  22
HETATM   22  C   UNK N   1      28.188  18.496   6.145  0.00  0.00     0.285 C 
BRANCH  22  23
HETATM   23  C   UNK N   1      28.220  18.297   7.631  0.00  0.00     0.164 C 
HETATM   24  O   UNK N   1      28.961  17.461   8.119  0.00  0.00    -0.648 OA
BRANCH  23  25
HETATM   25  O   UNK N   1      27.495  19.102   8.432  0.00  0.00    -0.775 OA
HETATM   26  H   UNK N   1      27.331  18.960   9.343  0.00  0.00     0.167 HD
ENDBRANCH  23  25
ENDBRANCH  22  23
ENDBRANCH  21  22
ENDBRANCH  19  21
ENDBRANCH   2  15
ENDBRANCH   1   2
BRANCH   1  27
HETATM   27  C   UNK N   1      21.796  16.797   2.981  0.00  0.00     0.282 C 
HETATM   28  O   UNK N   1      21.000  17.498   2.373  0.00  0.00    -0.263 OA
BRANCH  27  29
HETATM   29  C   UNK N   1      21.509  15.384   3.290  0.00  0.00     0.186 C 
HETATM   30  C   UNK N   1      20.046  15.370   3.722  0.00  0.00     0.035 C 
HETATM   31  C   UNK N   1      19.387  14.079   3.342  0.00  0.00     0.004 C 
HETATM   32  C   UNK N   1      19.315  14.103   1.838  0.00  0.00     0.020 C 
HETATM   33  C   UNK N   1      20.707  14.108   1.205  0.00  0.00     0.127 C 
HETATM   34  N   UNK N   1      21.784  14.671   2.030  0.00  0.00    -0.338 N 
HETATM   35  C   UNK N   1      23.066  14.578   1.527  0.00  0.00     0.229 C 
HETATM   36  O   UNK N   1      23.244  14.131   0.406  0.00  0.00    -0.273 OA
BRANCH  35  37
HETATM   37  C   UNK N   1      24.277  14.683   2.454  0.00  0.00     0.111 C 
BRANCH  37  38
HETATM   38  C   UNK N   1      25.446  15.380   1.737  0.00  0.00     0.014 C 
HETATM   39  C   UNK N   1      26.242  16.270   2.679  0.00  0.00     0.006 C 
ENDBRANCH  37  38
BRANCH  37  40
HETATM   40  C   UNK N   1      24.510  13.212   2.736  0.00  0.00    -0.040 A 
HETATM   41  C   UNK N   1      25.612  12.598   2.126  0.00  0.00     0.047 A 
HETATM   42  C   UNK N   1      26.176  11.434   2.642  0.00  0.00     0.104 A 
HETATM   43  C   UNK N   1      25.641  10.855   3.814  0.00  0.00     0.135 A 
HETATM   44  C   UNK N   1      24.512  11.464   4.432  0.00  0.00     0.104 A 
HETATM   45  C   UNK N   1      23.979  12.637   3.893  0.00  0.00     0.047 A 
BRANCH  42  46
HETATM   46  O   UNK N   1      27.274  10.900   2.065  0.00  0.00    -0.353 OA
HETATM   47  C   UNK N   1      27.194  10.109   0.946  0.00  0.00     0.210 C 
ENDBRANCH  42  46
BRANCH  43  48
HETATM   48  O   UNK N   1      26.209   9.761   4.392  0.00  0.00    -0.351 OA
HETATM   49  C   UNK N   1      25.712   8.475   4.359  0.00  0.00     0.210 C 
ENDBRANCH  43  48
BRANCH  44  50
HETATM   50  O   UNK N   1      23.950  11.002   5.579  0.00  0.00    -0.353 OA
HETATM   51  C   UNK N   1      23.076  11.698   6.382  0.00  0.00     0.210 C 
ENDBRANCH  44  50
ENDBRANCH  37  40
ENDBRANCH  35  37
ENDBRANCH  27  29
ENDBRANCH   1  27
TORSDOF 19
ENDMDL
MODEL 9
REMARK VINA RESULT:      -7.5      1.952      2.436
REMARK  19 active torsions:
REMARK  status: ('A' for Active; 'I' for Inactive)
REMARK    1  A    between atoms: C_28  and  C_7 
REMARK    2  A    between atoms: C_16  and  C_14 
REMARK    3  A    between atoms: C_24  and  C_14 
REMARK    4  A    between atoms: C_30  and  C_16 
REMARK    5  A    between atoms: C_35  and  C_23 
REMARK    6  A    between atoms: O_49  and  C_23 
REMARK    7  A    between atoms: C_30  and  C_25 
REMARK    8  A    between atoms: C_28  and  C_26 
REMARK    9  A    between atoms: O_49  and  C_27 
REMARK   10  A    between atoms: C_28  and  C_37 
REMARK   11  A    between atoms: C_29  and  C_38 
REMARK   12  A    between atoms: C_30  and  O_50 
REMARK   13  A    between atoms: O_44  and  C_31 
REMARK   14  A    between atoms: O_45  and  C_32 
REMARK   15  A    between atoms: O_46  and  C_33 
REMARK   16  A    between atoms: O_47  and  C_34 
REMARK   17  A    between atoms: O_41  and  C_35 
REMARK   18  A    between atoms: O_48  and  C_36 
REMARK       I    between atoms: N_39  and  C_37 
REMARK   19  A    between atoms: O_50  and  C_38 
ROOT
HETATM    1  O   UNK N   1      24.460  15.527   3.407  0.00  0.00    -0.310 OA
ENDROOT
BRANCH   1   2
HETATM    2  C   UNK N   1      23.393  14.690   3.530  0.00  0.00     0.165 C 
BRANCH   2   3
HETATM    3  C   UNK N   1      23.089  14.507   4.999  0.00  0.00     0.042 C 
BRANCH   3   4
HETATM    4  C   UNK N   1      23.414  15.674   5.920  0.00  0.00     0.041 C 
BRANCH   4   5
HETATM    5  C   UNK N   1      22.146  15.849   6.643  0.00  0.00    -0.055 A 
HETATM    6  C   UNK N   1      21.358  16.971   6.398  0.00  0.00     0.010 A 
HETATM    7  C   UNK N   1      20.339  17.299   7.288  0.00  0.00     0.040 A 
HETATM    8  C   UNK N   1      20.125  16.531   8.451  0.00  0.00     0.101 A 
HETATM    9  C   UNK N   1      20.924  15.378   8.680  0.00  0.00     0.102 A 
HETATM   10  C   UNK N   1      21.920  15.060   7.769  0.00  0.00     0.046 A 
BRANCH   8  11
HETATM   11  O   UNK N   1      19.181  16.899   9.348  0.00  0.00    -0.353 OA
HETATM   12  C   UNK N   1      17.890  17.220   8.995  0.00  0.00     0.210 C 
ENDBRANCH   8  11
BRANCH   9  13
HETATM   13  O   UNK N   1      20.815  14.582   9.774  0.00  0.00    -0.353 OA
HETATM   14  C   UNK N   1      20.763  13.210   9.758  0.00  0.00     0.210 C 
ENDBRANCH   9  13
ENDBRANCH   4   5
ENDBRANCH   3   4
ENDBRANCH   2   3
BRANCH   2  15
HETATM   15  C   UNK N   1      22.262  15.113   2.635  0.00  0.00    -0.026 A 
HETATM   16  C   UNK N   1      21.786  14.223   1.660  0.00  0.00     0.010 A 
HETATM   17  C   UNK N   1      20.739  14.600   0.818  0.00  0.00     0.003 A 
HETATM   18  C   UNK N   1      20.158  15.862   0.954  0.00  0.00     0.037 A 
HETATM   19  C   UNK N   1      20.643  16.759   1.922  0.00  0.00     0.070 A 
HETATM   20  C   UNK N   1      21.692  16.381   2.749  0.00  0.00     0.046 A 
BRANCH  19  21
HETATM   21  O   UNK N   1      20.071  17.965   2.124  0.00  0.00    -0.341 OA
BRANCH  21  22
HETATM   22  C   UNK N   1      20.793  19.056   2.547  0.00  0.00     0.285 C 
BRANCH  22  23
HETATM   23  C   UNK N   1      20.862  20.044   1.422  0.00  0.00     0.164 C 
HETATM   24  O   UNK N   1      21.280  21.171   1.624  0.00  0.00    -0.648 OA
BRANCH  23  25
HETATM   25  O   UNK N   1      20.546  19.659   0.169  0.00  0.00    -0.775 OA
HETATM   26  H   UNK N   1      21.101  19.175  -0.408  0.00  0.00     0.167 HD
ENDBRANCH  23  25
ENDBRANCH  22  23
ENDBRANCH  21  22
ENDBRANCH  19  21
ENDBRANCH   2  15
ENDBRANCH   1   2
BRANCH   1  27
HETATM   27  C   UNK N   1      25.570  15.354   2.641  0.00  0.00     0.282 C 
HETATM   28  O   UNK N   1      25.601  15.654   1.457  0.00  0.00    -0.263 OA
BRANCH  27  29
HETATM   29  C   UNK N   1      26.660  14.596   3.281  0.00  0.00     0.186 C 
HETATM   30  C   UNK N   1      26.721  13.280   2.510  0.00  0.00     0.035 C 
HETATM   31  C   UNK N   1      28.123  12.754   2.460  0.00  0.00     0.004 C 
HETATM   32  C   UNK N   1      28.873  13.718   1.579  0.00  0.00     0.020 C 
HETATM   33  C   UNK N   1      28.932  15.117   2.195  0.00  0.00     0.127 C 
HETATM   34  N   UNK N   1      27.845  15.456   3.122  0.00  0.00    -0.338 N 
HETATM   35  C   UNK N   1      27.943  16.667   3.779  0.00  0.00     0.229 C 
HETATM   36  O   UNK N   1      28.852  17.432   3.503  0.00  0.00    -0.273 OA
BRANCH  35  37
HETATM   37  C   UNK N   1      27.166  16.916   5.072  0.00  0.00     0.111 C 
BRANCH  37  38
HETATM   38  C   UNK N   1      26.661  18.369   5.124  0.00  0.00     0.014 C 
HETATM   39  C   UNK N   1      25.351  18.542   4.373  0.00  0.00     0.006 C 
ENDBRANCH  37  38
BRANCH  37  40
HETATM   40  C   UNK N   1      28.250  16.599   6.084  0.00  0.00    -0.040 A 
HETATM   41  C   UNK N   1      29.184  15.609   5.751  0.00  0.00     0.047 A 
HETATM   42  C   UNK N   1      30.435  15.553   6.359  0.00  0.00     0.104 A 
HETATM   43  C   UNK N   1      30.788  16.518   7.329  0.00  0.00     0.135 A 
HETATM   44  C   UNK N   1      29.840  17.520   7.683  0.00  0.00     0.104 A 
HETATM   45  C   UNK N   1      28.598  17.552   7.044  0.00  0.00     0.047 A 
BRANCH  42  46
HETATM   46  O   UNK N   1      31.335  14.623   5.974  0.00  0.00    -0.353 OA
HETATM   47  C   UNK N   1      31.679  14.449   4.657  0.00  0.00     0.210 C 
ENDBRANCH  42  46
BRANCH  43  48
HETATM   48  O   UNK N   1      32.027  16.543   7.892  0.00  0.00    -0.351 OA
HETATM   49  C   UNK N   1      33.040  17.426   7.585  0.00  0.00     0.210 C 
ENDBRANCH  43  48
BRANCH  44  50
HETATM   50  O   UNK N   1      30.099  18.509   8.576  0.00  0.00    -0.353 OA
HETATM   51  C   UNK N   1      29.628  18.569   9.868  0.00  0.00     0.210 C 
ENDBRANCH  44  50
ENDBRANCH  37  40
ENDBRANCH  35  37
ENDBRANCH  27  29
ENDBRANCH   1  27
TORSDOF 19
ENDMDL
