REMARK  13 active torsions:
REMARK  status: ('A' for Active; 'I' for Inactive)
REMARK    1  A    between atoms: C_4  and  C_3 
REMARK    2  A    between atoms: C_14  and  C_4 
REMARK    3  A    between atoms: C_9  and  C_6 
REMARK    4  A    between atoms: O_17  and  C_6 
REMARK    5  A    between atoms: O_18  and  C_7 
REMARK    6  A    between atoms: C_8  and  O_19 
REMARK    7  A    between atoms: C_11  and  C_9 
REMARK    8  A    between atoms: C_9  and  O_20 
REMARK    9  A    between atoms: C_10  and  N_15 
REMARK   10  A    between atoms: C_12  and  C_11 
REMARK   11  A    between atoms: C_11  and  O_21 
REMARK   12  A    between atoms: C_14  and  C_13 
REMARK   13  A    between atoms: O_23  and  C_13 
ROOT
HETATM    1  C   UNK N   1       2.247   0.478   0.976  0.00  0.00     0.083 C 
HETATM    2  C   UNK N   1       1.612   1.811   0.561  0.00  0.00     0.146 C 
HETATM    3  C   UNK N   1       0.175   1.612  -0.026  0.00  0.00     0.143 C 
HETATM    4  C   UNK N   1      -0.153   0.088  -0.100  0.00  0.00     0.179 C 
HETATM    5  C   UNK N   1       2.135  -0.565  -0.166  0.00  0.00     0.151 C 
HETATM    6  O   UNK N   1       0.895  -0.484  -0.870  0.00  0.00    -0.359 OA
ENDROOT
BRANCH   4   7
HETATM    7  C   UNK N   1      -1.496  -0.370  -0.739  0.00  0.00     0.180 C 
BRANCH   7   8
HETATM    8  C   UNK N   1      -2.745  -0.209   0.170  0.00  0.00     0.173 C 
BRANCH   8   9
HETATM    9  C   UNK N   1      -3.989  -0.859  -0.436  0.00  0.00     0.198 C 
BRANCH   9  10
HETATM   10  O   UNK N   1      -3.897  -2.253  -0.413  0.00  0.00    -0.398 OA
HETATM   11  H   UNK N   1      -4.703  -2.792  -0.396  0.00  0.00     0.209 HD
ENDBRANCH   9  10
ENDBRANCH   8   9
BRANCH   8  12
HETATM   12  O   UNK N   1      -3.052   1.130   0.376  0.00  0.00    -0.391 OA
HETATM   13  H   UNK N   1      -2.349   1.783   0.520  0.00  0.00     0.210 HD
ENDBRANCH   8  12
ENDBRANCH   7   8
BRANCH   7  14
HETATM   14  O   UNK N   1      -1.360  -1.734  -1.026  0.00  0.00    -0.390 OA
HETATM   15  H   UNK N   1      -2.132  -2.287  -1.224  0.00  0.00     0.210 HD
ENDBRANCH   7  14
ENDBRANCH   4   7
BRANCH   3  16
HETATM   16  N   UNK N   1      -0.794   2.380   0.741  0.00  0.00    -0.365 N 
HETATM   17  C   UNK N   1      -1.356   3.475   0.331  0.00  0.00     0.107 C 
HETATM   18  C   UNK N   1      -1.035   4.097  -0.995  0.00  0.00     0.097 C 
ATOM     19  HN  UNK N   1      -1.048   2.034   1.666  1.00  0.00     0.161 HD
BRANCH  17  20
HETATM   20  O   UNK N   1      -2.249   4.092   1.127  0.00  0.00    -0.350 OA
HETATM   21  H   UNK N   1      -2.188   4.845   1.680  0.00  0.00     0.219 HD
ENDBRANCH  17  20
ENDBRANCH   3  16
BRANCH   2  22
HETATM   22  O   UNK N   1       1.608   2.662   1.670  0.00  0.00    -0.393 OA
HETATM   23  H   UNK N   1       2.118   2.960   2.440  0.00  0.00     0.210 HD
ENDBRANCH   2  22
BRANCH   5  24
HETATM   24  C   UNK N   1       2.224  -1.991   0.401  0.00  0.00     0.076 C 
BRANCH  24  25
HETATM   25  C   UNK N   1       3.495  -2.320   1.115  0.00  0.00    -0.033 C 
HETATM   26  C   UNK N   1       4.217  -3.364   0.719  0.00  0.00     0.007 C 
ENDBRANCH  24  25
ENDBRANCH   5  24
BRANCH   5  27
HETATM   27  C   UNK N   1       3.259  -0.299  -1.148  0.00  0.00     0.176 C 
HETATM   28  O   UNK N   1       3.012  -0.033  -2.314  0.00  0.00    -0.648 OA
BRANCH  27  29
HETATM   29  O   UNK N   1       4.543  -0.327  -0.736  0.00  0.00    -0.774 OA
HETATM   30  H   UNK N   1       4.972  -1.109  -0.450  0.00  0.00     0.167 HD
ENDBRANCH  27  29
ENDBRANCH   5  27
TORSDOF 13
