MODEL 1
REMARK VINA RESULT:      -9.2      0.000      0.000
REMARK  9 active torsions:
REMARK  status: ('A' for Active; 'I' for Inactive)
REMARK    1  A    between atoms: C_3  and  Fe_4 
REMARK    2  A    between atoms: C_5  and  Fe_4 
REMARK    3  A    between atoms: Fe_4  and  C_6 
REMARK    4  A    between atoms: C_5  and  C_6 
REMARK    5  A    between atoms: C_8  and  C_9 
REMARK    6  A    between atoms: C_20  and  C_8 
REMARK    7  A    between atoms: C_9  and  C_10 
REMARK    8  A    between atoms: C_10  and  C_11 
REMARK    9  A    between atoms: C_16  and  N_18 
ROOT
HETATM    1  C   UNK N   1      36.878  15.097  16.346  0.00  0.00     0.000 A 
HETATM    2  C   UNK N   1      37.244  15.591  16.988  0.00  0.00     0.000 A 
HETATM    3  C   UNK N   1      37.003  15.082  15.409  0.00  0.00     0.000 A 
HETATM    4 Fe   UNK N   1      36.252  14.475  16.642  0.00  0.00     0.000 Fe
HETATM    5  C   UNK N   1      37.516  15.791  16.420  0.00  0.00     0.000 A 
HETATM    6  C   UNK N   1      37.408  15.565  15.718  0.00  0.00     0.000 A 
HETATM    7  C   UNK N   1      35.542  13.769  16.978  0.00  0.00     0.005 A 
HETATM    8  C   UNK N   1      35.125  13.216  16.297  0.00  0.00    -0.022 A 
HETATM    9  C   UNK N   1      34.862  13.034  16.923  0.00  0.00     0.005 A 
HETATM   10  C   UNK N   1      34.970  13.260  17.625  0.00  0.00     0.001 A 
HETATM   11  C   UNK N   1      35.315  13.664  17.838  0.00  0.00     0.001 A 
HETATM   12  O   UNK N   1      34.343  12.068  14.330  0.00  0.00    -0.268 OA
HETATM   13  C   UNK N   1      34.842  12.528  13.861  0.00  0.00     0.250 A 
HETATM   14  C   UNK N   1      34.918  12.479  13.040  0.00  0.00     0.080 A 
HETATM   15  C   UNK N   1      35.476  13.038  12.802  0.00  0.00     0.080 A 
HETATM   16  C   UNK N   1      35.745  13.432  13.475  0.00  0.00     0.250 A 
HETATM   17  O   UNK N   1      36.308  14.036  13.491  0.00  0.00    -0.268 OA
HETATM   18  N   UNK N   1      35.353  13.117  14.129  0.00  0.00    -0.281 N 
HETATM   19  C   UNK N   1      35.455  13.350  14.914  0.00  0.00     0.136 A 
HETATM   20  C   UNK N   1      35.023  12.982  15.513  0.00  0.00     0.031 A 
ENDROOT
TORSDOF 9
ENDMDL
MODEL 2
REMARK VINA RESULT:      -9.2      0.486      2.492
REMARK  9 active torsions:
REMARK  status: ('A' for Active; 'I' for Inactive)
REMARK    1  A    between atoms: C_3  and  Fe_4 
REMARK    2  A    between atoms: C_5  and  Fe_4 
REMARK    3  A    between atoms: Fe_4  and  C_6 
REMARK    4  A    between atoms: C_5  and  C_6 
REMARK    5  A    between atoms: C_8  and  C_9 
REMARK    6  A    between atoms: C_20  and  C_8 
REMARK    7  A    between atoms: C_9  and  C_10 
REMARK    8  A    between atoms: C_10  and  C_11 
REMARK    9  A    between atoms: C_16  and  N_18 
ROOT
HETATM    1  C   UNK N   1      35.504  13.808  17.212  0.00  0.00     0.000 A 
HETATM    2  C   UNK N   1      35.505  13.961  18.087  0.00  0.00     0.000 A 
HETATM    3  C   UNK N   1      35.001  13.217  16.672  0.00  0.00     0.000 A 
HETATM    4 Fe   UNK N   1      36.110  14.322  16.726  0.00  0.00     0.000 Fe
HETATM    5  C   UNK N   1      35.051  13.494  17.979  0.00  0.00     0.000 A 
HETATM    6  C   UNK N   1      34.827  13.163  17.350  0.00  0.00     0.000 A 
HETATM    7  C   UNK N   1      36.797  14.905  16.176  0.00  0.00     0.005 A 
HETATM    8  C   UNK N   1      36.818  14.759  15.215  0.00  0.00    -0.022 A 
HETATM    9  C   UNK N   1      37.291  15.254  15.375  0.00  0.00     0.005 A 
HETATM   10  C   UNK N   1      37.514  15.584  16.004  0.00  0.00     0.001 A 
HETATM   11  C   UNK N   1      37.343  15.510  16.545  0.00  0.00     0.001 A 
HETATM   12  O   UNK N   1      36.556  14.100  12.914  0.00  0.00    -0.268 OA
HETATM   13  C   UNK N   1      35.972  13.560  13.132  0.00  0.00     0.250 A 
HETATM   14  C   UNK N   1      35.557  13.061  12.622  0.00  0.00     0.080 A 
HETATM   15  C   UNK N   1      35.028  12.617  13.074  0.00  0.00     0.080 A 
HETATM   16  C   UNK N   1      35.117  12.842  13.863  0.00  0.00     0.250 A 
HETATM   17  O   UNK N   1      34.695  12.537  14.504  0.00  0.00    -0.268 OA
HETATM   18  N   UNK N   1      35.700  13.424  13.899  0.00  0.00    -0.281 N 
HETATM   19  C   UNK N   1      35.964  13.804  14.582  0.00  0.00     0.136 A 
HETATM   20  C   UNK N   1      36.554  14.379  14.532  0.00  0.00     0.031 A 
ENDROOT
TORSDOF 9
ENDMDL
MODEL 3
REMARK VINA RESULT:      -8.8      9.148     11.369
REMARK  9 active torsions:
REMARK  status: ('A' for Active; 'I' for Inactive)
REMARK    1  A    between atoms: C_3  and  Fe_4 
REMARK    2  A    between atoms: C_5  and  Fe_4 
REMARK    3  A    between atoms: Fe_4  and  C_6 
REMARK    4  A    between atoms: C_5  and  C_6 
REMARK    5  A    between atoms: C_8  and  C_9 
REMARK    6  A    between atoms: C_20  and  C_8 
REMARK    7  A    between atoms: C_9  and  C_10 
REMARK    8  A    between atoms: C_10  and  C_11 
REMARK    9  A    between atoms: C_16  and  N_18 
ROOT
HETATM    1  C   UNK N   1      30.384  17.120   5.640  0.00  0.00     0.000 A 
HETATM    2  C   UNK N   1      29.655  16.967   5.156  0.00  0.00     0.000 A 
HETATM    3  C   UNK N   1      30.520  17.211   6.571  0.00  0.00     0.000 A 
HETATM    4 Fe   UNK N   1      31.168  17.208   5.145  0.00  0.00     0.000 Fe
HETATM    5  C   UNK N   1      29.461  16.983   5.787  0.00  0.00     0.000 A 
HETATM    6  C   UNK N   1      29.846  17.091   6.416  0.00  0.00     0.000 A 
HETATM    7  C   UNK N   1      32.058  17.308   4.584  0.00  0.00     0.005 A 
HETATM    8  C   UNK N   1      32.872  17.476   5.088  0.00  0.00    -0.022 A 
HETATM    9  C   UNK N   1      33.034  17.451   4.404  0.00  0.00     0.005 A 
HETATM   10  C   UNK N   1      32.649  17.343   3.776  0.00  0.00     0.001 A 
HETATM   11  C   UNK N   1      32.091  17.247   3.692  0.00  0.00     0.001 A 
HETATM   12  O   UNK N   1      34.627  17.876   6.687  0.00  0.00    -0.268 OA
HETATM   13  C   UNK N   1      34.079  17.834   7.302  0.00  0.00     0.250 A 
HETATM   14  C   UNK N   1      34.245  17.921   8.106  0.00  0.00     0.080 A 
HETATM   15  C   UNK N   1      33.537  17.839   8.523  0.00  0.00     0.080 A 
HETATM   16  C   UNK N   1      32.935  17.701   7.976  0.00  0.00     0.250 A 
HETATM   17  O   UNK N   1      32.136  17.587   8.153  0.00  0.00    -0.268 OA
HETATM   18  N   UNK N   1      33.270  17.699   7.222  0.00  0.00    -0.281 N 
HETATM   19  C   UNK N   1      32.865  17.581   6.513  0.00  0.00     0.136 A 
HETATM   20  C   UNK N   1      33.276  17.594   5.797  0.00  0.00     0.031 A 
ENDROOT
TORSDOF 9
ENDMDL
MODEL 4
REMARK VINA RESULT:      -8.7     13.591     14.954
REMARK  9 active torsions:
REMARK  status: ('A' for Active; 'I' for Inactive)
REMARK    1  A    between atoms: C_3  and  Fe_4 
REMARK    2  A    between atoms: C_5  and  Fe_4 
REMARK    3  A    between atoms: Fe_4  and  C_6 
REMARK    4  A    between atoms: C_5  and  C_6 
REMARK    5  A    between atoms: C_8  and  C_9 
REMARK    6  A    between atoms: C_20  and  C_8 
REMARK    7  A    between atoms: C_9  and  C_10 
REMARK    8  A    between atoms: C_10  and  C_11 
REMARK    9  A    between atoms: C_16  and  N_18 
ROOT
HETATM    1  C   UNK N   1      23.898  12.725  10.054  0.00  0.00     0.000 A 
HETATM    2  C   UNK N   1      24.590  12.277  10.384  0.00  0.00     0.000 A 
HETATM    3  C   UNK N   1      23.826  13.352   9.350  0.00  0.00     0.000 A 
HETATM    4 Fe   UNK N   1      23.085  12.551  10.474  0.00  0.00     0.000 Fe
HETATM    5  C   UNK N   1      24.825  12.649   9.892  0.00  0.00     0.000 A 
HETATM    6  C   UNK N   1      24.486  13.126   9.432  0.00  0.00     0.000 A 
HETATM    7  C   UNK N   1      22.164  12.354  10.951  0.00  0.00     0.005 A 
HETATM    8  C   UNK N   1      21.388  12.831  10.610  0.00  0.00    -0.022 A 
HETATM    9  C   UNK N   1      21.181  12.420  11.141  0.00  0.00     0.005 A 
HETATM   10  C   UNK N   1      21.521  11.942  11.600  0.00  0.00     0.001 A 
HETATM   11  C   UNK N   1      22.070  11.784  11.634  0.00  0.00     0.001 A 
HETATM   12  O   UNK N   1      19.751  14.191   9.483  0.00  0.00    -0.268 OA
HETATM   13  C   UNK N   1      20.337  14.487   8.984  0.00  0.00     0.250 A 
HETATM   14  C   UNK N   1      20.227  15.037   8.379  0.00  0.00     0.080 A 
HETATM   15  C   UNK N   1      20.958  15.175   8.022  0.00  0.00     0.080 A 
HETATM   16  C   UNK N   1      21.521  14.709   8.407  0.00  0.00     0.250 A 
HETATM   17  O   UNK N   1      22.326  14.675   8.229  0.00  0.00    -0.268 OA
HETATM   18  N   UNK N   1      21.137  14.284   9.001  0.00  0.00    -0.281 N 
HETATM   19  C   UNK N   1      21.491  13.751   9.521  0.00  0.00     0.136 A 
HETATM   20  C   UNK N   1      21.034  13.365  10.090  0.00  0.00     0.031 A 
ENDROOT
TORSDOF 9
ENDMDL
MODEL 5
REMARK VINA RESULT:      -8.6      1.735      3.367
REMARK  9 active torsions:
REMARK  status: ('A' for Active; 'I' for Inactive)
REMARK    1  A    between atoms: C_3  and  Fe_4 
REMARK    2  A    between atoms: C_5  and  Fe_4 
REMARK    3  A    between atoms: Fe_4  and  C_6 
REMARK    4  A    between atoms: C_5  and  C_6 
REMARK    5  A    between atoms: C_8  and  C_9 
REMARK    6  A    between atoms: C_20  and  C_8 
REMARK    7  A    between atoms: C_9  and  C_10 
REMARK    8  A    between atoms: C_10  and  C_11 
REMARK    9  A    between atoms: C_16  and  N_18 
ROOT
HETATM    1  C   UNK N   1      34.187  11.268  14.806  0.00  0.00     0.000 A 
HETATM    2  C   UNK N   1      33.795  10.594  15.232  0.00  0.00     0.000 A 
HETATM    3  C   UNK N   1      34.219  11.505  13.891  0.00  0.00     0.000 A 
HETATM    4 Fe   UNK N   1      34.655  11.857  15.354  0.00  0.00     0.000 Fe
HETATM    5  C   UNK N   1      33.656  10.516  14.592  0.00  0.00     0.000 A 
HETATM    6  C   UNK N   1      33.844  10.921  13.996  0.00  0.00     0.000 A 
HETATM    7  C   UNK N   1      35.186  12.525  15.975  0.00  0.00     0.005 A 
HETATM    8  C   UNK N   1      35.625  13.272  15.535  0.00  0.00    -0.022 A 
HETATM    9  C   UNK N   1      35.749  13.317  16.225  0.00  0.00     0.005 A 
HETATM   10  C   UNK N   1      35.560  12.912  16.821  0.00  0.00     0.001 A 
HETATM   11  C   UNK N   1      35.247  12.435  16.864  0.00  0.00     0.001 A 
HETATM   12  O   UNK N   1      36.545  14.952  14.075  0.00  0.00    -0.268 OA
HETATM   13  C   UNK N   1      36.205  14.576  13.424  0.00  0.00     0.250 A 
HETATM   14  C   UNK N   1      36.261  14.821  12.638  0.00  0.00     0.080 A 
HETATM   15  C   UNK N   1      35.840  14.285  12.173  0.00  0.00     0.080 A 
HETATM   16  C   UNK N   1      35.524  13.709  12.672  0.00  0.00     0.250 A 
HETATM   17  O   UNK N   1      35.062  13.065  12.438  0.00  0.00    -0.268 OA
HETATM   18  N   UNK N   1      35.749  13.888  13.444  0.00  0.00    -0.281 N 
HETATM   19  C   UNK N   1      35.554  13.456  14.120  0.00  0.00     0.136 A 
HETATM   20  C   UNK N   1      35.820  13.704  14.860  0.00  0.00     0.031 A 
ENDROOT
TORSDOF 9
ENDMDL
MODEL 6
REMARK VINA RESULT:      -8.5      1.757      2.827
REMARK  9 active torsions:
REMARK  status: ('A' for Active; 'I' for Inactive)
REMARK    1  A    between atoms: C_3  and  Fe_4 
REMARK    2  A    between atoms: C_5  and  Fe_4 
REMARK    3  A    between atoms: Fe_4  and  C_6 
REMARK    4  A    between atoms: C_5  and  C_6 
REMARK    5  A    between atoms: C_8  and  C_9 
REMARK    6  A    between atoms: C_20  and  C_8 
REMARK    7  A    between atoms: C_9  and  C_10 
REMARK    8  A    between atoms: C_10  and  C_11 
REMARK    9  A    between atoms: C_16  and  N_18 
ROOT
HETATM    1  C   UNK N   1      35.079  12.529  16.370  0.00  0.00     0.000 A 
HETATM    2  C   UNK N   1      34.941  12.231  17.195  0.00  0.00     0.000 A 
HETATM    3  C   UNK N   1      35.544  13.283  16.037  0.00  0.00     0.000 A 
HETATM    4 Fe   UNK N   1      34.699  12.008  15.698  0.00  0.00     0.000 Fe
HETATM    5  C   UNK N   1      35.300  12.782  17.253  0.00  0.00     0.000 A 
HETATM    6  C   UNK N   1      35.568  13.249  16.738  0.00  0.00     0.000 A 
HETATM    7  C   UNK N   1      34.268  11.416  14.937  0.00  0.00     0.005 A 
HETATM    8  C   UNK N   1      34.404  11.719  14.023  0.00  0.00    -0.022 A 
HETATM    9  C   UNK N   1      34.022  11.129  14.007  0.00  0.00     0.005 A 
HETATM   10  C   UNK N   1      33.754  10.662  14.523  0.00  0.00     0.001 A 
HETATM   11  C   UNK N   1      33.798  10.672  15.093  0.00  0.00     0.001 A 
HETATM   12  O   UNK N   1      34.966  12.797  11.944  0.00  0.00    -0.268 OA
HETATM   13  C   UNK N   1      35.372  13.385  12.356  0.00  0.00     0.250 A 
HETATM   14  C   UNK N   1      35.766  14.028  12.021  0.00  0.00     0.080 A 
HETATM   15  C   UNK N   1      36.093  14.474  12.633  0.00  0.00     0.080 A 
HETATM   16  C   UNK N   1      35.902  14.106  13.347  0.00  0.00     0.250 A 
HETATM   17  O   UNK N   1      36.118  14.365  14.100  0.00  0.00    -0.268 OA
HETATM   18  N   UNK N   1      35.456  13.433  13.175  0.00  0.00    -0.281 N 
HETATM   19  C   UNK N   1      35.149  12.902  13.727  0.00  0.00     0.136 A 
HETATM   20  C   UNK N   1      34.712  12.250  13.472  0.00  0.00     0.031 A 
ENDROOT
TORSDOF 9
ENDMDL
MODEL 7
REMARK VINA RESULT:      -8.3     17.069     18.433
REMARK  9 active torsions:
REMARK  status: ('A' for Active; 'I' for Inactive)
REMARK    1  A    between atoms: C_3  and  Fe_4 
REMARK    2  A    between atoms: C_5  and  Fe_4 
REMARK    3  A    between atoms: Fe_4  and  C_6 
REMARK    4  A    between atoms: C_5  and  C_6 
REMARK    5  A    between atoms: C_8  and  C_9 
REMARK    6  A    between atoms: C_20  and  C_8 
REMARK    7  A    between atoms: C_9  and  C_10 
REMARK    8  A    between atoms: C_10  and  C_11 
REMARK    9  A    between atoms: C_16  and  N_18 
ROOT
HETATM    1  C   UNK N   1      25.039  19.904   3.281  0.00  0.00     0.000 A 
HETATM    2  C   UNK N   1      25.921  19.843   3.363  0.00  0.00     0.000 A 
HETATM    3  C   UNK N   1      24.487  20.500   2.796  0.00  0.00     0.000 A 
HETATM    4 Fe   UNK N   1      24.558  19.265   3.758  0.00  0.00     0.000 Fe
HETATM    5  C   UNK N   1      25.806  20.354   2.961  0.00  0.00     0.000 A 
HETATM    6  C   UNK N   1      25.168  20.646   2.709  0.00  0.00     0.000 A 
HETATM    7  C   UNK N   1      24.012  18.541   4.299  0.00  0.00     0.005 A 
HETATM    8  C   UNK N   1      23.044  18.584   4.228  0.00  0.00    -0.022 A 
HETATM    9  C   UNK N   1      23.212  18.048   4.651  0.00  0.00     0.005 A 
HETATM   10  C   UNK N   1      23.850  17.757   4.902  0.00  0.00     0.001 A 
HETATM   11  C   UNK N   1      24.393  17.909   4.806  0.00  0.00     0.001 A 
HETATM   12  O   UNK N   1      20.720  19.033   3.787  0.00  0.00    -0.268 OA
HETATM   13  C   UNK N   1      20.931  19.666   3.303  0.00  0.00     0.250 A 
HETATM   14  C   UNK N   1      20.411  20.162   2.897  0.00  0.00     0.080 A 
HETATM   15  C   UNK N   1      20.859  20.718   2.482  0.00  0.00     0.080 A 
HETATM   16  C   UNK N   1      21.656  20.565   2.633  0.00  0.00     0.250 A 
HETATM   17  O   UNK N   1      22.296  20.988   2.329  0.00  0.00    -0.268 OA
HETATM   18  N   UNK N   1      21.700  19.916   3.139  0.00  0.00    -0.281 N 
HETATM   19  C   UNK N   1      22.393  19.575   3.431  0.00  0.00     0.136 A 
HETATM   20  C   UNK N   1      22.352  18.924   3.936  0.00  0.00     0.031 A 
ENDROOT
TORSDOF 9
ENDMDL
MODEL 8
REMARK VINA RESULT:      -8.3     13.005     14.523
REMARK  9 active torsions:
REMARK  status: ('A' for Active; 'I' for Inactive)
REMARK    1  A    between atoms: C_3  and  Fe_4 
REMARK    2  A    between atoms: C_5  and  Fe_4 
REMARK    3  A    between atoms: Fe_4  and  C_6 
REMARK    4  A    between atoms: C_5  and  C_6 
REMARK    5  A    between atoms: C_8  and  C_9 
REMARK    6  A    between atoms: C_20  and  C_8 
REMARK    7  A    between atoms: C_9  and  C_10 
REMARK    8  A    between atoms: C_10  and  C_11 
REMARK    9  A    between atoms: C_16  and  N_18 
ROOT
HETATM    1  C   UNK N   1      23.081  12.100  11.833  0.00  0.00     0.000 A 
HETATM    2  C   UNK N   1      23.572  11.645  12.416  0.00  0.00     0.000 A 
HETATM    3  C   UNK N   1      22.165  12.337  11.824  0.00  0.00     0.000 A 
HETATM    4 Fe   UNK N   1      23.546  12.406  11.087  0.00  0.00     0.000 Fe
HETATM    5  C   UNK N   1      22.959  11.661  12.660  0.00  0.00     0.000 A 
HETATM    6  C   UNK N   1      22.334  11.969  12.397  0.00  0.00     0.000 A 
HETATM    7  C   UNK N   1      24.074  12.754  10.240  0.00  0.00     0.005 A 
HETATM    8  C   UNK N   1      23.561  13.256   9.585  0.00  0.00    -0.022 A 
HETATM    9  C   UNK N   1      24.226  13.214   9.362  0.00  0.00     0.005 A 
HETATM   10  C   UNK N   1      24.851  12.906   9.626  0.00  0.00     0.001 A 
HETATM   11  C   UNK N   1      24.947  12.609  10.106  0.00  0.00     0.001 A 
HETATM   12  O   UNK N   1      21.951  14.431   8.233  0.00  0.00    -0.268 OA
HETATM   13  C   UNK N   1      21.363  14.266   8.786  0.00  0.00     0.250 A 
HETATM   14  C   UNK N   1      20.571  14.495   8.736  0.00  0.00     0.080 A 
HETATM   15  C   UNK N   1      20.181  14.214   9.406  0.00  0.00     0.080 A 
HETATM   16  C   UNK N   1      20.731  13.810   9.870  0.00  0.00     0.250 A 
HETATM   17  O   UNK N   1      20.577  13.439  10.592  0.00  0.00    -0.268 OA
HETATM   18  N   UNK N   1      21.461  13.843   9.488  0.00  0.00    -0.281 N 
HETATM   19  C   UNK N   1      22.165  13.511   9.759  0.00  0.00     0.136 A 
HETATM   20  C   UNK N   1      22.856  13.588   9.314  0.00  0.00     0.031 A 
ENDROOT
TORSDOF 9
ENDMDL
MODEL 9
REMARK VINA RESULT:      -8.3     12.536     14.121
REMARK  9 active torsions:
REMARK  status: ('A' for Active; 'I' for Inactive)
REMARK    1  A    between atoms: C_3  and  Fe_4 
REMARK    2  A    between atoms: C_5  and  Fe_4 
REMARK    3  A    between atoms: Fe_4  and  C_6 
REMARK    4  A    between atoms: C_5  and  C_6 
REMARK    5  A    between atoms: C_8  and  C_9 
REMARK    6  A    between atoms: C_20  and  C_8 
REMARK    7  A    between atoms: C_9  and  C_10 
REMARK    8  A    between atoms: C_10  and  C_11 
REMARK    9  A    between atoms: C_16  and  N_18 
ROOT
HETATM    1  C   UNK N   1      21.756  12.606  10.581  0.00  0.00     0.000 A 
HETATM    2  C   UNK N   1      21.253  12.318  11.255  0.00  0.00     0.000 A 
HETATM    3  C   UNK N   1      21.538  13.036   9.767  0.00  0.00     0.000 A 
HETATM    4 Fe   UNK N   1      22.670  12.463  10.687  0.00  0.00     0.000 Fe
HETATM    5  C   UNK N   1      20.840  12.580  10.813  0.00  0.00     0.000 A 
HETATM    6  C   UNK N   1      20.966  12.899  10.151  0.00  0.00     0.000 A 
HETATM    7  C   UNK N   1      23.706  12.301  10.807  0.00  0.00     0.005 A 
HETATM    8  C   UNK N   1      24.280  12.607  10.085  0.00  0.00    -0.022 A 
HETATM    9  C   UNK N   1      24.684  12.318  10.582  0.00  0.00     0.005 A 
HETATM   10  C   UNK N   1      24.556  11.999  11.244  0.00  0.00     0.001 A 
HETATM   11  C   UNK N   1      24.067  11.906  11.525  0.00  0.00     0.001 A 
HETATM   12  O   UNK N   1      25.327  13.495   8.107  0.00  0.00    -0.268 OA
HETATM   13  C   UNK N   1      24.589  13.715   7.812  0.00  0.00     0.250 A 
HETATM   14  C   UNK N   1      24.447  14.091   7.091  0.00  0.00     0.080 A 
HETATM   15  C   UNK N   1      23.633  14.207   7.020  0.00  0.00     0.080 A 
HETATM   16  C   UNK N   1      23.272  13.903   7.697  0.00  0.00     0.250 A 
HETATM   17  O   UNK N   1      22.462  13.902   7.857  0.00  0.00    -0.268 OA
HETATM   18  N   UNK N   1      23.863  13.599   8.186  0.00  0.00    -0.281 N 
HETATM   19  C   UNK N   1      23.748  13.242   8.921  0.00  0.00     0.136 A 
HETATM   20  C   UNK N   1      24.395  12.964   9.350  0.00  0.00     0.031 A 
ENDROOT
TORSDOF 9
ENDMDL
