REMARK  9 active torsions:
REMARK  status: ('A' for Active; 'I' for Inactive)
REMARK    1  A    between atoms: C_2  and  N_5 
REMARK    2  A    between atoms: N_5  and  C_6 
REMARK    3  A    between atoms: C_6  and  C_7 
REMARK    4  A    between atoms: C_7  and  C_8 
REMARK    5  A    between atoms: C_8  and  C_10 
REMARK    6  A    between atoms: C_10  and  C_11 
REMARK    7  A    between atoms: C_11  and  N_12 
REMARK    8  A    between atoms: C_11  and  C_13 
REMARK    9  A    between atoms: C_13  and  O_14 
ROOT
HETATM    1  C   UNK N   1       5.865   3.239   0.468  0.00  0.00     0.174 C 
HETATM    2  F   UNK N   1       5.001   4.304   0.280  0.00  0.00    -0.249 F 
ENDROOT
BRANCH   1   3
HETATM    3  C   UNK N   1       5.130   1.904   0.401  0.00  0.00     0.057 C 
BRANCH   3   4
HETATM    4  C   UNK N   1       4.127   1.876  -0.739  0.00  0.00     0.123 C 
BRANCH   4   5
HETATM    5  N   UNK N   1       2.901   1.270  -0.281  0.00  0.00    -0.380 N 
HETATM    6  H   UNK N   1       2.875   0.298  -0.126  0.00  0.00     0.160 HD
BRANCH   5   7
HETATM    7  C   UNK N   1       1.730   2.039  -0.048  0.00  0.00     0.066 C 
HETATM    8  C   UNK N   1       0.464   1.357   0.340  0.00  0.00     0.088 C 
HETATM    9  N   UNK N   1       1.754   3.318  -0.152  0.00  0.00    -0.389 N 
HETATM   10  H   UNK N   1       2.613   3.792  -0.231  0.00  0.00     0.157 HD
ATOM     11  HN  UNK N   1       0.880   3.844  -0.152  1.00  0.00     0.157 HD
ENDBRANCH   5   7
ENDBRANCH   4   5
ENDBRANCH   3   4
ENDBRANCH   1   3
BRANCH   1  12
HETATM   12  C   UNK N   1       7.030   3.314  -0.502  0.00  0.00     0.072 C 
BRANCH  12  13
HETATM   13  C   UNK N   1       8.318   3.332   0.305  0.00  0.00     0.176 C 
BRANCH  13  14
HETATM   14  N   UNK N   1       9.072   4.536  -0.003  0.00  0.00    -0.417 N 
HETATM   15  H   UNK N   1      10.068   4.501  -0.220  0.00  0.00     0.150 HD
HETATM   16  H   UNK N   1       8.594   5.437  -0.003  0.00  0.00     0.150 HD
ENDBRANCH  13  14
BRANCH  13  17
HETATM   17  C   UNK N   1       9.139   2.101   0.051  0.00  0.00     0.163 C 
HETATM   18  O   UNK N   1       8.662   0.997   0.266  0.00  0.00    -0.648 OA
BRANCH  17  19
HETATM   19  O   UNK N   1      10.410   2.201  -0.387  0.00  0.00    -0.775 OA
HETATM   20  H   UNK N   1      10.912   1.471  -0.692  0.00  0.00     0.167 HD
ENDBRANCH  17  19
ENDBRANCH  13  17
ENDBRANCH  12  13
ENDBRANCH   1  12
TORSDOF 9
