MODEL 1
REMARK VINA RESULT:      -8.7      0.000      0.000
REMARK  6 active torsions:
REMARK  status: ('A' for Active; 'I' for Inactive)
REMARK    1  A    between atoms: C_2  and  N_3 
REMARK    2  A    between atoms: C_2  and  C_35 
REMARK       I    between atoms: N_3  and  C_4 
REMARK    3  A    between atoms: C_9  and  C_12 
REMARK    4  A    between atoms: C_13  and  C_25 
REMARK    5  A    between atoms: C_16  and  C_17 
REMARK    6  A    between atoms: C_27  and  C_31 
ROOT
HETATM    1  C   UNK N   1      23.080  18.773   4.083  0.00  0.00     0.091 A 
HETATM    2  C   UNK N   1      23.528  17.984   5.152  0.00  0.00     0.073 A 
HETATM    3  N   UNK N   1      24.819  18.302   5.407  0.00  0.00    -0.343 N 
ATOM      4  HN  UNK N   1      25.426  17.896   6.119  1.00  0.00     0.167 HD
HETATM    5  C   UNK N   1      25.134  19.274   4.518  0.00  0.00     0.088 A 
HETATM    6  N   UNK N   1      24.099  19.562   3.698  0.00  0.00    -0.337 N 
HETATM    7  C   UNK N   1      24.068  20.559   2.638  0.00  0.00     0.158 C 
ENDROOT
BRANCH   1   8
HETATM    8  C   UNK N   1      21.760  18.746   3.404  0.00  0.00     0.079 A 
HETATM    9  C   UNK N   1      20.974  19.893   3.273  0.00  0.00     0.050 A 
HETATM   10  C   UNK N   1      19.688  19.775   2.756  0.00  0.00     0.108 A 
HETATM   11  N   UNK N   1      19.206  18.554   2.415  0.00  0.00    -0.202 N 
HETATM   12  C   UNK N   1      19.985  17.446   2.518  0.00  0.00     0.679 A 
ATOM     13  HN  UNK N   1      18.248  18.466   2.076  1.00  0.00     0.183 HD
HETATM   14  N   UNK N   1      19.453  16.179   2.158  0.00  0.00    -0.218 N 
HETATM   15  N   UNK N   1      21.259  17.554   2.990  0.00  0.00    -0.190 N 
HETATM   16  H   UNK N   1      18.474  16.067   2.141  0.00  0.00     0.178 HD
ATOM     17  HN  UNK N   1      21.848  16.722   3.032  1.00  0.00     0.184 HD
BRANCH  14  18
HETATM   18  C   UNK N   1      20.289  15.044   1.815  0.00  0.00     0.128 C 
HETATM   19  C   UNK N   1      19.839  14.397   0.508  0.00  0.00     0.038 C 
BRANCH  18  20
HETATM   20  C   UNK N   1      20.358  14.064   2.962  0.00  0.00    -0.035 A 
HETATM   21  C   UNK N   1      19.315  13.996   3.895  0.00  0.00     0.009 A 
HETATM   22  C   UNK N   1      19.370  13.072   4.945  0.00  0.00     0.001 A 
HETATM   23  C   UNK N   1      20.457  12.200   5.058  0.00  0.00     0.000 A 
HETATM   24  C   UNK N   1      21.493  12.250   4.124  0.00  0.00     0.001 A 
HETATM   25  C   UNK N   1      21.444  13.177   3.085  0.00  0.00     0.009 A 
ENDBRANCH  18  20
ENDBRANCH  14  18
ENDBRANCH   1   8
BRANCH   2  26
HETATM   26  C   UNK N   1      22.795  16.920   5.894  0.00  0.00    -0.006 A 
HETATM   27  C   UNK N   1      21.617  17.218   6.570  0.00  0.00     0.030 A 
HETATM   28  C   UNK N   1      20.925  16.271   7.316  0.00  0.00     0.048 A 
HETATM   29  C   UNK N   1      21.408  14.959   7.363  0.00  0.00     0.016 A 
HETATM   30  C   UNK N   1      22.581  14.624   6.669  0.00  0.00     0.002 A 
HETATM   31  C   UNK N   1      23.282  15.605   5.949  0.00  0.00     0.014 A 
BRANCH  28  32
HETATM   32  C   UNK N   1      19.707  16.709   8.080  0.00  0.00     0.417 C 
HETATM   33  F   UNK N   1      19.593  15.972   9.245  0.00  0.00    -0.166 F 
HETATM   34  F   UNK N   1      19.766  18.053   8.400  0.00  0.00    -0.166 F 
HETATM   35  F   UNK N   1      18.582  16.487   7.302  0.00  0.00    -0.166 F 
ENDBRANCH  28  32
ENDBRANCH   2  26
BRANCH   5  36
HETATM   36  C   UNK N   1      26.466  19.996   4.489  0.00  0.00     0.057 C 
HETATM   37  C   UNK N   1      26.532  21.185   5.457  0.00  0.00     0.031 C 
HETATM   38  C   UNK N   1      26.754  20.695   6.891  0.00  0.00     0.114 C 
HETATM   39  N   UNK N   1      27.985  19.910   6.972  0.00  0.00    -0.421 N 
HETATM   40  C   UNK N   1      27.814  18.700   6.174  0.00  0.00     0.114 C 
HETATM   41  H   UNK N   1      28.823  20.166   7.495  0.00  0.00     0.153 HD
HETATM   42  C   UNK N   1      27.670  19.073   4.703  0.00  0.00     0.031 C 
ENDBRANCH   5  36
TORSDOF 6
ENDMDL
MODEL 2
REMARK VINA RESULT:      -8.4      3.931      7.866
REMARK  6 active torsions:
REMARK  status: ('A' for Active; 'I' for Inactive)
REMARK    1  A    between atoms: C_2  and  N_3 
REMARK    2  A    between atoms: C_2  and  C_35 
REMARK       I    between atoms: N_3  and  C_4 
REMARK    3  A    between atoms: C_9  and  C_12 
REMARK    4  A    between atoms: C_13  and  C_25 
REMARK    5  A    between atoms: C_16  and  C_17 
REMARK    6  A    between atoms: C_27  and  C_31 
ROOT
HETATM    1  C   UNK N   1      23.087  16.676   5.751  0.00  0.00     0.091 A 
HETATM    2  C   UNK N   1      23.894  15.539   5.884  0.00  0.00     0.073 A 
HETATM    3  N   UNK N   1      23.257  14.653   6.686  0.00  0.00    -0.343 N 
ATOM      4  HN  UNK N   1      23.590  13.734   6.980  1.00  0.00     0.167 HD
HETATM    5  C   UNK N   1      22.083  15.243   7.014  0.00  0.00     0.088 A 
HETATM    6  N   UNK N   1      21.968  16.474   6.469  0.00  0.00    -0.337 N 
HETATM    7  C   UNK N   1      20.841  17.389   6.592  0.00  0.00     0.158 C 
ENDROOT
BRANCH   1   8
HETATM    8  C   UNK N   1      23.379  17.937   5.024  0.00  0.00     0.079 A 
HETATM    9  C   UNK N   1      22.560  18.401   3.993  0.00  0.00     0.050 A 
HETATM   10  C   UNK N   1      22.964  19.511   3.256  0.00  0.00     0.108 A 
HETATM   11  N   UNK N   1      24.152  20.106   3.527  0.00  0.00    -0.202 N 
HETATM   12  C   UNK N   1      24.932  19.666   4.549  0.00  0.00     0.679 A 
ATOM     13  HN  UNK N   1      24.465  20.892   2.957  1.00  0.00     0.183 HD
HETATM   14  N   UNK N   1      26.174  20.305   4.807  0.00  0.00    -0.218 N 
HETATM   15  N   UNK N   1      24.530  18.603   5.301  0.00  0.00    -0.190 N 
HETATM   16  H   UNK N   1      26.594  20.827   4.085  0.00  0.00     0.178 HD
ATOM     17  HN  UNK N   1      25.104  18.301   6.088  1.00  0.00     0.184 HD
BRANCH  14  18
HETATM   18  C   UNK N   1      26.850  20.221   6.088  0.00  0.00     0.128 C 
HETATM   19  C   UNK N   1      27.346  21.590   6.547  0.00  0.00     0.038 C 
BRANCH  18  20
HETATM   20  C   UNK N   1      27.945  19.182   6.048  0.00  0.00    -0.035 A 
HETATM   21  C   UNK N   1      28.524  18.815   4.827  0.00  0.00     0.009 A 
HETATM   22  C   UNK N   1      29.554  17.868   4.793  0.00  0.00     0.001 A 
HETATM   23  C   UNK N   1      30.024  17.297   5.979  0.00  0.00     0.000 A 
HETATM   24  C   UNK N   1      29.464  17.669   7.203  0.00  0.00     0.001 A 
HETATM   25  C   UNK N   1      28.430  18.603   7.236  0.00  0.00     0.009 A 
ENDBRANCH  18  20
ENDBRANCH  14  18
ENDBRANCH   1   8
BRANCH   2  26
HETATM   26  C   UNK N   1      25.252  15.290   5.324  0.00  0.00    -0.006 A 
HETATM   27  C   UNK N   1      25.441  15.205   3.948  0.00  0.00     0.030 A 
HETATM   28  C   UNK N   1      26.678  14.927   3.381  0.00  0.00     0.048 A 
HETATM   29  C   UNK N   1      27.787  14.760   4.219  0.00  0.00     0.016 A 
HETATM   30  C   UNK N   1      27.631  14.865   5.609  0.00  0.00     0.002 A 
HETATM   31  C   UNK N   1      26.364  15.115   6.162  0.00  0.00     0.014 A 
BRANCH  28  32
HETATM   32  C   UNK N   1      26.766  14.772   1.889  0.00  0.00     0.417 C 
HETATM   33  F   UNK N   1      26.333  13.510   1.522  0.00  0.00    -0.166 F 
HETATM   34  F   UNK N   1      26.000  15.719   1.235  0.00  0.00    -0.166 F 
HETATM   35  F   UNK N   1      28.086  14.920   1.495  0.00  0.00    -0.166 F 
ENDBRANCH  28  32
ENDBRANCH   2  26
BRANCH   5  36
HETATM   36  C   UNK N   1      21.001  14.575   7.839  0.00  0.00     0.057 C 
HETATM   37  C   UNK N   1      20.730  13.123   7.420  0.00  0.00     0.031 C 
HETATM   38  C   UNK N   1      21.816  12.196   7.974  0.00  0.00     0.114 C 
HETATM   39  N   UNK N   1      21.872  12.299   9.432  0.00  0.00    -0.421 N 
HETATM   40  C   UNK N   1      22.304  13.648   9.782  0.00  0.00     0.114 C 
HETATM   41  H   UNK N   1      21.647  11.554  10.092  0.00  0.00     0.153 HD
HETATM   42  C   UNK N   1      21.243  14.653   9.349  0.00  0.00     0.031 C 
ENDBRANCH   5  36
TORSDOF 6
ENDMDL
MODEL 3
REMARK VINA RESULT:      -8.3      1.578      2.053
REMARK  6 active torsions:
REMARK  status: ('A' for Active; 'I' for Inactive)
REMARK    1  A    between atoms: C_2  and  N_3 
REMARK    2  A    between atoms: C_2  and  C_35 
REMARK       I    between atoms: N_3  and  C_4 
REMARK    3  A    between atoms: C_9  and  C_12 
REMARK    4  A    between atoms: C_13  and  C_25 
REMARK    5  A    between atoms: C_16  and  C_17 
REMARK    6  A    between atoms: C_27  and  C_31 
ROOT
HETATM    1  C   UNK N   1      23.232  18.822   4.093  0.00  0.00     0.091 A 
HETATM    2  C   UNK N   1      23.607  18.013   5.174  0.00  0.00     0.073 A 
HETATM    3  N   UNK N   1      24.923  18.212   5.422  0.00  0.00    -0.343 N 
ATOM      4  HN  UNK N   1      25.492  17.762   6.139  1.00  0.00     0.167 HD
HETATM    5  C   UNK N   1      25.326  19.135   4.515  0.00  0.00     0.088 A 
HETATM    6  N   UNK N   1      24.319  19.505   3.693  0.00  0.00    -0.337 N 
HETATM    7  C   UNK N   1      24.379  20.484   2.616  0.00  0.00     0.158 C 
ENDROOT
BRANCH   1   8
HETATM    8  C   UNK N   1      21.913  18.909   3.417  0.00  0.00     0.079 A 
HETATM    9  C   UNK N   1      21.206  20.110   3.329  0.00  0.00     0.050 A 
HETATM   10  C   UNK N   1      19.915  20.098   2.811  0.00  0.00     0.108 A 
HETATM   11  N   UNK N   1      19.352  18.925   2.427  0.00  0.00    -0.202 N 
HETATM   12  C   UNK N   1      20.054  17.764   2.490  0.00  0.00     0.679 A 
ATOM     13  HN  UNK N   1      18.390  18.913   2.088  1.00  0.00     0.183 HD
HETATM   14  N   UNK N   1      19.438  16.549   2.086  0.00  0.00    -0.218 N 
HETATM   15  N   UNK N   1      21.333  17.768   2.962  0.00  0.00    -0.190 N 
HETATM   16  H   UNK N   1      18.454  16.504   2.067  0.00  0.00     0.178 HD
ATOM     17  HN  UNK N   1      21.865  16.898   2.973  1.00  0.00     0.184 HD
BRANCH  14  18
HETATM   18  C   UNK N   1      20.196  15.373   1.700  0.00  0.00     0.128 C 
HETATM   19  C   UNK N   1      19.631  14.738   0.433  0.00  0.00     0.038 C 
BRANCH  18  20
HETATM   20  C   UNK N   1      20.296  14.400   2.851  0.00  0.00    -0.035 A 
HETATM   21  C   UNK N   1      19.203  14.203   3.705  0.00  0.00     0.009 A 
HETATM   22  C   UNK N   1      19.289  13.285   4.757  0.00  0.00     0.001 A 
HETATM   23  C   UNK N   1      20.460  12.545   4.951  0.00  0.00     0.000 A 
HETATM   24  C   UNK N   1      21.548  12.723   4.096  0.00  0.00     0.001 A 
HETATM   25  C   UNK N   1      21.467  13.646   3.054  0.00  0.00     0.009 A 
ENDBRANCH  18  20
ENDBRANCH  14  18
ENDBRANCH   1   8
BRANCH   2  26
HETATM   26  C   UNK N   1      22.780  17.035   5.935  0.00  0.00    -0.006 A 
HETATM   27  C   UNK N   1      23.322  15.820   6.340  0.00  0.00     0.030 A 
HETATM   28  C   UNK N   1      22.576  14.856   7.008  0.00  0.00     0.048 A 
HETATM   29  C   UNK N   1      21.239  15.128   7.319  0.00  0.00     0.016 A 
HETATM   30  C   UNK N   1      20.673  16.356   6.945  0.00  0.00     0.002 A 
HETATM   31  C   UNK N   1      21.437  17.302   6.241  0.00  0.00     0.014 A 
BRANCH  28  32
HETATM   32  C   UNK N   1      23.227  13.541   7.330  0.00  0.00     0.417 C 
HETATM   33  F   UNK N   1      22.261  12.606   7.658  0.00  0.00    -0.166 F 
HETATM   34  F   UNK N   1      23.969  13.067   6.264  0.00  0.00    -0.166 F 
HETATM   35  F   UNK N   1      24.070  13.708   8.418  0.00  0.00    -0.166 F 
ENDBRANCH  28  32
ENDBRANCH   2  26
BRANCH   5  36
HETATM   36  C   UNK N   1      26.720  19.727   4.473  0.00  0.00     0.057 C 
HETATM   37  C   UNK N   1      26.865  20.996   5.324  0.00  0.00     0.031 C 
HETATM   38  C   UNK N   1      26.994  20.634   6.806  0.00  0.00     0.114 C 
HETATM   39  N   UNK N   1      28.143  19.754   7.012  0.00  0.00    -0.421 N 
HETATM   40  C   UNK N   1      27.885  18.490   6.329  0.00  0.00     0.114 C 
HETATM   41  H   UNK N   1      28.984  19.984   7.543  0.00  0.00     0.153 HD
HETATM   42  C   UNK N   1      27.824  18.726   4.824  0.00  0.00     0.031 C 
ENDBRANCH   5  36
TORSDOF 6
ENDMDL
MODEL 4
REMARK VINA RESULT:      -8.1     11.293     15.785
REMARK  6 active torsions:
REMARK  status: ('A' for Active; 'I' for Inactive)
REMARK    1  A    between atoms: C_2  and  N_3 
REMARK    2  A    between atoms: C_2  and  C_35 
REMARK       I    between atoms: N_3  and  C_4 
REMARK    3  A    between atoms: C_9  and  C_12 
REMARK    4  A    between atoms: C_13  and  C_25 
REMARK    5  A    between atoms: C_16  and  C_17 
REMARK    6  A    between atoms: C_27  and  C_31 
ROOT
HETATM    1  C   UNK N   1      34.932  14.481   9.557  0.00  0.00     0.091 A 
HETATM    2  C   UNK N   1      33.967  13.737   8.864  0.00  0.00     0.073 A 
HETATM    3  N   UNK N   1      32.978  14.575   8.474  0.00  0.00    -0.343 N 
ATOM      4  HN  UNK N   1      32.131  14.334   7.958  1.00  0.00     0.167 HD
HETATM    5  C   UNK N   1      33.351  15.802   8.911  0.00  0.00     0.088 A 
HETATM    6  N   UNK N   1      34.523  15.763   9.582  0.00  0.00    -0.337 N 
HETATM    7  C   UNK N   1      35.234  16.886  10.176  0.00  0.00     0.158 C 
ENDROOT
BRANCH   1   8
HETATM    8  C   UNK N   1      36.166  14.000  10.226  0.00  0.00     0.079 A 
HETATM    9  C   UNK N   1      37.314  13.664   9.506  0.00  0.00     0.050 A 
HETATM   10  C   UNK N   1      38.387  13.085  10.176  0.00  0.00     0.108 A 
HETATM   11  N   UNK N   1      38.295  12.828  11.505  0.00  0.00    -0.202 N 
HETATM   12  C   UNK N   1      37.187  13.182  12.205  0.00  0.00     0.679 A 
ATOM     13  HN  UNK N   1      39.067  12.365  11.984  1.00  0.00     0.183 HD
HETATM   14  N   UNK N   1      37.115  12.897  13.595  0.00  0.00    -0.218 N 
HETATM   15  N   UNK N   1      36.143  13.784  11.567  0.00  0.00    -0.190 N 
HETATM   16  H   UNK N   1      37.700  12.195  13.963  0.00  0.00     0.178 HD
ATOM     17  HN  UNK N   1      35.329  14.077  12.107  1.00  0.00     0.184 HD
BRANCH  14  18
HETATM   18  C   UNK N   1      36.219  13.597  14.497  0.00  0.00     0.128 C 
HETATM   19  C   UNK N   1      36.731  14.998  14.815  0.00  0.00     0.038 C 
BRANCH  18  20
HETATM   20  C   UNK N   1      35.954  12.772  15.734  0.00  0.00    -0.035 A 
HETATM   21  C   UNK N   1      36.344  11.428  15.782  0.00  0.00     0.009 A 
HETATM   22  C   UNK N   1      36.119  10.671  16.937  0.00  0.00     0.001 A 
HETATM   23  C   UNK N   1      35.520  11.257  18.056  0.00  0.00     0.000 A 
HETATM   24  C   UNK N   1      35.142  12.600  18.023  0.00  0.00     0.001 A 
HETATM   25  C   UNK N   1      35.356  13.352  16.869  0.00  0.00     0.009 A 
ENDBRANCH  18  20
ENDBRANCH  14  18
ENDBRANCH   1   8
BRANCH   2  26
HETATM   26  C   UNK N   1      33.932  12.269   8.608  0.00  0.00    -0.006 A 
HETATM   27  C   UNK N   1      33.494  11.394   9.596  0.00  0.00     0.030 A 
HETATM   28  C   UNK N   1      33.489  10.015   9.423  0.00  0.00     0.048 A 
HETATM   29  C   UNK N   1      33.906   9.485   8.196  0.00  0.00     0.016 A 
HETATM   30  C   UNK N   1      34.329  10.346   7.173  0.00  0.00     0.002 A 
HETATM   31  C   UNK N   1      34.357  11.734   7.383  0.00  0.00     0.014 A 
BRANCH  28  32
HETATM   32  C   UNK N   1      33.078   9.147  10.578  0.00  0.00     0.417 C 
HETATM   33  F   UNK N   1      33.105   9.882  11.750  0.00  0.00    -0.166 F 
HETATM   34  F   UNK N   1      31.807   8.632  10.398  0.00  0.00    -0.166 F 
HETATM   35  F   UNK N   1      33.971   8.095  10.694  0.00  0.00    -0.166 F 
ENDBRANCH  28  32
ENDBRANCH   2  26
BRANCH   5  36
HETATM   36  C   UNK N   1      32.578  17.073   8.626  0.00  0.00     0.057 C 
HETATM   37  C   UNK N   1      33.204  17.926   7.514  0.00  0.00     0.031 C 
HETATM   38  C   UNK N   1      32.873  17.339   6.139  0.00  0.00     0.114 C 
HETATM   39  N   UNK N   1      31.424  17.260   5.959  0.00  0.00    -0.421 N 
HETATM   40  C   UNK N   1      30.891  16.304   6.924  0.00  0.00     0.114 C 
HETATM   41  H   UNK N   1      30.878  17.786   5.275  0.00  0.00     0.153 HD
HETATM   42  C   UNK N   1      31.091  16.837   8.337  0.00  0.00     0.031 C 
ENDBRANCH   5  36
TORSDOF 6
ENDMDL
MODEL 5
REMARK VINA RESULT:      -8.1      4.345      6.861
REMARK  6 active torsions:
REMARK  status: ('A' for Active; 'I' for Inactive)
REMARK    1  A    between atoms: C_2  and  N_3 
REMARK    2  A    between atoms: C_2  and  C_35 
REMARK       I    between atoms: N_3  and  C_4 
REMARK    3  A    between atoms: C_9  and  C_12 
REMARK    4  A    between atoms: C_13  and  C_25 
REMARK    5  A    between atoms: C_16  and  C_17 
REMARK    6  A    between atoms: C_27  and  C_31 
ROOT
HETATM    1  C   UNK N   1      28.735  16.218   5.129  0.00  0.00     0.091 A 
HETATM    2  C   UNK N   1      28.940  17.491   5.676  0.00  0.00     0.073 A 
HETATM    3  N   UNK N   1      30.158  17.513   6.267  0.00  0.00    -0.343 N 
ATOM      4  HN  UNK N   1      30.592  18.293   6.760  1.00  0.00     0.167 HD
HETATM    5  C   UNK N   1      30.679  16.279   6.065  0.00  0.00     0.088 A 
HETATM    6  N   UNK N   1      29.826  15.476   5.390  0.00  0.00    -0.337 N 
HETATM    7  C   UNK N   1      30.054  14.097   4.982  0.00  0.00     0.158 C 
ENDROOT
BRANCH   1   8
HETATM    8  C   UNK N   1      27.532  15.691   4.437  0.00  0.00     0.079 A 
HETATM    9  C   UNK N   1      27.389  15.757   3.050  0.00  0.00     0.050 A 
HETATM   10  C   UNK N   1      26.180  15.379   2.475  0.00  0.00     0.108 A 
HETATM   11  N   UNK N   1      25.152  14.981   3.265  0.00  0.00    -0.202 N 
HETATM   12  C   UNK N   1      25.305  14.892   4.612  0.00  0.00     0.679 A 
ATOM     13  HN  UNK N   1      24.254  14.745   2.845  1.00  0.00     0.183 HD
HETATM   14  N   UNK N   1      24.210  14.476   5.417  0.00  0.00    -0.218 N 
HETATM   15  N   UNK N   1      26.497  15.226   5.184  0.00  0.00    -0.190 N 
HETATM   16  H   UNK N   1      23.299  14.559   5.050  0.00  0.00     0.178 HD
ATOM     17  HN  UNK N   1      26.614  15.124   6.192  1.00  0.00     0.184 HD
BRANCH  14  18
HETATM   18  C   UNK N   1      24.376  13.936   6.753  0.00  0.00     0.128 C 
HETATM   19  C   UNK N   1      24.754  12.458   6.713  0.00  0.00     0.038 C 
BRANCH  18  20
HETATM   20  C   UNK N   1      23.152  14.207   7.595  0.00  0.00    -0.035 A 
HETATM   21  C   UNK N   1      22.941  13.494   8.782  0.00  0.00     0.009 A 
HETATM   22  C   UNK N   1      21.818  13.761   9.573  0.00  0.00     0.001 A 
HETATM   23  C   UNK N   1      20.910  14.754   9.193  0.00  0.00     0.000 A 
HETATM   24  C   UNK N   1      21.120  15.480   8.020  0.00  0.00     0.001 A 
HETATM   25  C   UNK N   1      22.233  15.207   7.226  0.00  0.00     0.009 A 
ENDBRANCH  18  20
ENDBRANCH  14  18
ENDBRANCH   1   8
BRANCH   2  26
HETATM   26  C   UNK N   1      28.010  18.655   5.699  0.00  0.00    -0.006 A 
HETATM   27  C   UNK N   1      27.216  18.943   4.594  0.00  0.00     0.030 A 
HETATM   28  C   UNK N   1      26.370  20.044   4.549  0.00  0.00     0.048 A 
HETATM   29  C   UNK N   1      26.284  20.879   5.668  0.00  0.00     0.016 A 
HETATM   30  C   UNK N   1      27.055  20.600   6.807  0.00  0.00     0.002 A 
HETATM   31  C   UNK N   1      27.928  19.499   6.817  0.00  0.00     0.014 A 
BRANCH  28  32
HETATM   32  C   UNK N   1      25.615  20.318   3.279  0.00  0.00     0.417 C 
HETATM   33  F   UNK N   1      24.385  20.878   3.576  0.00  0.00    -0.166 F 
HETATM   34  F   UNK N   1      26.312  21.176   2.449  0.00  0.00    -0.166 F 
HETATM   35  F   UNK N   1      25.409  19.123   2.609  0.00  0.00    -0.166 F 
ENDBRANCH  28  32
ENDBRANCH   2  26
BRANCH   5  36
HETATM   36  C   UNK N   1      32.077  15.870   6.486  0.00  0.00     0.057 C 
HETATM   37  C   UNK N   1      33.032  17.060   6.651  0.00  0.00     0.031 C 
HETATM   38  C   UNK N   1      32.770  17.776   7.979  0.00  0.00     0.114 C 
HETATM   39  N   UNK N   1      32.928  16.844   9.094  0.00  0.00    -0.421 N 
HETATM   40  C   UNK N   1      31.888  15.825   8.995  0.00  0.00     0.114 C 
HETATM   41  H   UNK N   1      33.645  16.896   9.819  0.00  0.00     0.153 HD
HETATM   42  C   UNK N   1      32.107  14.990   7.739  0.00  0.00     0.031 C 
ENDBRANCH   5  36
TORSDOF 6
ENDMDL
MODEL 6
REMARK VINA RESULT:      -8.1      4.468      6.596
REMARK  6 active torsions:
REMARK  status: ('A' for Active; 'I' for Inactive)
REMARK    1  A    between atoms: C_2  and  N_3 
REMARK    2  A    between atoms: C_2  and  C_35 
REMARK       I    between atoms: N_3  and  C_4 
REMARK    3  A    between atoms: C_9  and  C_12 
REMARK    4  A    between atoms: C_13  and  C_25 
REMARK    5  A    between atoms: C_16  and  C_17 
REMARK    6  A    between atoms: C_27  and  C_31 
ROOT
HETATM    1  C   UNK N   1      25.481  15.876   4.433  0.00  0.00     0.091 A 
HETATM    2  C   UNK N   1      26.767  16.343   4.734  0.00  0.00     0.073 A 
HETATM    3  N   UNK N   1      27.654  15.696   3.943  0.00  0.00    -0.343 N 
ATOM      4  HN  UNK N   1      28.668  15.809   3.931  1.00  0.00     0.167 HD
HETATM    5  C   UNK N   1      26.912  14.866   3.171  0.00  0.00     0.088 A 
HETATM    6  N   UNK N   1      25.595  14.951   3.463  0.00  0.00    -0.337 N 
HETATM    7  C   UNK N   1      24.506  14.223   2.828  0.00  0.00     0.158 C 
ENDROOT
BRANCH   1   8
HETATM    8  C   UNK N   1      24.191  16.239   5.072  0.00  0.00     0.079 A 
HETATM    9  C   UNK N   1      23.577  17.472   4.849  0.00  0.00     0.050 A 
HETATM   10  C   UNK N   1      22.446  17.808   5.587  0.00  0.00     0.108 A 
HETATM   11  N   UNK N   1      21.975  16.953   6.528  0.00  0.00    -0.202 N 
HETATM   12  C   UNK N   1      22.560  15.743   6.722  0.00  0.00     0.679 A 
ATOM     13  HN  UNK N   1      21.172  17.220   7.097  1.00  0.00     0.183 HD
HETATM   14  N   UNK N   1      22.049  14.868   7.718  0.00  0.00    -0.218 N 
HETATM   15  N   UNK N   1      23.647  15.387   5.980  0.00  0.00    -0.190 N 
HETATM   16  H   UNK N   1      21.503  15.249   8.445  0.00  0.00     0.178 HD
ATOM     17  HN  UNK N   1      24.059  14.463   6.108  1.00  0.00     0.184 HD
BRANCH  14  18
HETATM   18  C   UNK N   1      22.294  13.438   7.711  0.00  0.00     0.128 C 
HETATM   19  C   UNK N   1      21.155  12.681   7.034  0.00  0.00     0.038 C 
BRANCH  18  20
HETATM   20  C   UNK N   1      22.585  12.938   9.106  0.00  0.00    -0.035 A 
HETATM   21  C   UNK N   1      21.536  12.696  10.001  0.00  0.00     0.009 A 
HETATM   22  C   UNK N   1      21.805  12.212  11.286  0.00  0.00     0.001 A 
HETATM   23  C   UNK N   1      23.122  11.949  11.677  0.00  0.00     0.000 A 
HETATM   24  C   UNK N   1      24.172  12.173  10.786  0.00  0.00     0.001 A 
HETATM   25  C   UNK N   1      23.906  12.666   9.510  0.00  0.00     0.009 A 
ENDBRANCH  18  20
ENDBRANCH  14  18
ENDBRANCH   1   8
BRANCH   2  26
HETATM   26  C   UNK N   1      27.178  17.334   5.769  0.00  0.00    -0.006 A 
HETATM   27  C   UNK N   1      26.968  18.694   5.563  0.00  0.00     0.030 A 
HETATM   28  C   UNK N   1      27.379  19.658   6.475  0.00  0.00     0.048 A 
HETATM   29  C   UNK N   1      27.994  19.249   7.664  0.00  0.00     0.016 A 
HETATM   30  C   UNK N   1      28.196  17.883   7.909  0.00  0.00     0.002 A 
HETATM   31  C   UNK N   1      27.802  16.928   6.957  0.00  0.00     0.014 A 
BRANCH  28  32
HETATM   32  C   UNK N   1      27.183  21.107   6.126  0.00  0.00     0.417 C 
HETATM   33  F   UNK N   1      26.085  21.609   6.802  0.00  0.00    -0.166 F 
HETATM   34  F   UNK N   1      28.296  21.861   6.449  0.00  0.00    -0.166 F 
HETATM   35  F   UNK N   1      26.953  21.216   4.764  0.00  0.00    -0.166 F 
ENDBRANCH  28  32
ENDBRANCH   2  26
BRANCH   5  36
HETATM   36  C   UNK N   1      27.484  13.998   2.069  0.00  0.00     0.057 C 
HETATM   37  C   UNK N   1      28.882  14.438   1.614  0.00  0.00     0.031 C 
HETATM   38  C   UNK N   1      29.942  13.975   2.618  0.00  0.00     0.114 C 
HETATM   39  N   UNK N   1      29.894  12.521   2.767  0.00  0.00    -0.421 N 
HETATM   40  C   UNK N   1      28.613  12.160   3.366  0.00  0.00     0.114 C 
HETATM   41  H   UNK N   1      30.631  11.869   2.497  0.00  0.00     0.153 HD
HETATM   42  C   UNK N   1      27.483  12.502   2.402  0.00  0.00     0.031 C 
ENDBRANCH   5  36
TORSDOF 6
ENDMDL
MODEL 7
REMARK VINA RESULT:      -7.7      3.382      5.833
REMARK  6 active torsions:
REMARK  status: ('A' for Active; 'I' for Inactive)
REMARK    1  A    between atoms: C_2  and  N_3 
REMARK    2  A    between atoms: C_2  and  C_35 
REMARK       I    between atoms: N_3  and  C_4 
REMARK    3  A    between atoms: C_9  and  C_12 
REMARK    4  A    between atoms: C_13  and  C_25 
REMARK    5  A    between atoms: C_16  and  C_17 
REMARK    6  A    between atoms: C_27  and  C_31 
ROOT
HETATM    1  C   UNK N   1      25.870  15.883   5.540  0.00  0.00     0.091 A 
HETATM    2  C   UNK N   1      24.864  16.837   5.337  0.00  0.00     0.073 A 
HETATM    3  N   UNK N   1      25.436  18.064   5.312  0.00  0.00    -0.343 N 
ATOM      4  HN  UNK N   1      24.967  18.962   5.191  1.00  0.00     0.167 HD
HETATM    5  C   UNK N   1      26.762  17.848   5.483  0.00  0.00     0.088 A 
HETATM    6  N   UNK N   1      27.042  16.534   5.637  0.00  0.00    -0.337 N 
HETATM    7  C   UNK N   1      28.355  15.932   5.824  0.00  0.00     0.158 C 
ENDROOT
BRANCH   1   8
HETATM    8  C   UNK N   1      25.732  14.413   5.699  0.00  0.00     0.079 A 
HETATM    9  C   UNK N   1      26.145  13.521   4.708  0.00  0.00     0.050 A 
HETATM   10  C   UNK N   1      25.858  12.168   4.854  0.00  0.00     0.108 A 
HETATM   11  N   UNK N   1      25.162  11.737   5.936  0.00  0.00    -0.202 N 
HETATM   12  C   UNK N   1      24.787  12.606   6.911  0.00  0.00     0.679 A 
ATOM     13  HN  UNK N   1      24.917  10.751   6.020  1.00  0.00     0.183 HD
HETATM   14  N   UNK N   1      24.055  12.129   8.031  0.00  0.00    -0.218 N 
HETATM   15  N   UNK N   1      25.094  13.930   6.796  0.00  0.00    -0.190 N 
HETATM   16  H   UNK N   1      23.568  11.277   7.947  0.00  0.00     0.178 HD
ATOM     17  HN  UNK N   1      24.838  14.569   7.549  1.00  0.00     0.184 HD
BRANCH  14  18
HETATM   18  C   UNK N   1      23.993  12.843   9.293  0.00  0.00     0.128 C 
HETATM   19  C   UNK N   1      24.906  12.207  10.338  0.00  0.00     0.038 C 
BRANCH  18  20
HETATM   20  C   UNK N   1      22.564  12.976   9.763  0.00  0.00    -0.035 A 
HETATM   21  C   UNK N   1      22.075  12.141  10.776  0.00  0.00     0.009 A 
HETATM   22  C   UNK N   1      20.758  12.279  11.227  0.00  0.00     0.001 A 
HETATM   23  C   UNK N   1      19.928  13.264  10.682  0.00  0.00     0.000 A 
HETATM   24  C   UNK N   1      20.411  14.110   9.683  0.00  0.00     0.001 A 
HETATM   25  C   UNK N   1      21.720  13.966   9.226  0.00  0.00     0.009 A 
ENDBRANCH  18  20
ENDBRANCH  14  18
ENDBRANCH   1   8
BRANCH   2  26
HETATM   26  C   UNK N   1      23.393  16.628   5.217  0.00  0.00    -0.006 A 
HETATM   27  C   UNK N   1      22.703  17.104   4.107  0.00  0.00     0.030 A 
HETATM   28  C   UNK N   1      21.326  16.976   3.974  0.00  0.00     0.048 A 
HETATM   29  C   UNK N   1      20.606  16.313   4.975  0.00  0.00     0.016 A 
HETATM   30  C   UNK N   1      21.280  15.800   6.093  0.00  0.00     0.002 A 
HETATM   31  C   UNK N   1      22.668  15.970   6.222  0.00  0.00     0.014 A 
BRANCH  28  32
HETATM   32  C   UNK N   1      20.660  17.597   2.779  0.00  0.00     0.417 C 
HETATM   33  F   UNK N   1      21.307  18.771   2.438  0.00  0.00    -0.166 F 
HETATM   34  F   UNK N   1      20.672  16.743   1.691  0.00  0.00    -0.166 F 
HETATM   35  F   UNK N   1      19.344  17.892   3.097  0.00  0.00    -0.166 F 
ENDBRANCH  28  32
ENDBRANCH   2  26
BRANCH   5  36
HETATM   36  C   UNK N   1      27.811  18.941   5.439  0.00  0.00     0.057 C 
HETATM   37  C   UNK N   1      27.567  19.970   4.328  0.00  0.00     0.031 C 
HETATM   38  C   UNK N   1      26.466  20.952   4.740  0.00  0.00     0.114 C 
HETATM   39  N   UNK N   1      26.834  21.629   5.983  0.00  0.00    -0.421 N 
HETATM   40  C   UNK N   1      26.884  20.636   7.052  0.00  0.00     0.114 C 
HETATM   41  H   UNK N   1      27.025  22.626   6.086  0.00  0.00     0.153 HD
HETATM   42  C   UNK N   1      28.014  19.650   6.782  0.00  0.00     0.031 C 
ENDBRANCH   5  36
TORSDOF 6
ENDMDL
MODEL 8
REMARK VINA RESULT:      -7.7     12.767     16.474
REMARK  6 active torsions:
REMARK  status: ('A' for Active; 'I' for Inactive)
REMARK    1  A    between atoms: C_2  and  N_3 
REMARK    2  A    between atoms: C_2  and  C_35 
REMARK       I    between atoms: N_3  and  C_4 
REMARK    3  A    between atoms: C_9  and  C_12 
REMARK    4  A    between atoms: C_13  and  C_25 
REMARK    5  A    between atoms: C_16  and  C_17 
REMARK    6  A    between atoms: C_27  and  C_31 
ROOT
HETATM    1  C   UNK N   1      26.614  25.113  -6.955  0.00  0.00     0.091 A 
HETATM    2  C   UNK N   1      26.737  26.404  -7.485  0.00  0.00     0.073 A 
HETATM    3  N   UNK N   1      26.315  26.382  -8.772  0.00  0.00    -0.343 N 
ATOM      4  HN  UNK N   1      26.291  27.163  -9.428  1.00  0.00     0.167 HD
HETATM    5  C   UNK N   1      25.933  25.103  -9.004  0.00  0.00     0.088 A 
HETATM    6  N   UNK N   1      26.120  24.317  -7.921  0.00  0.00    -0.337 N 
HETATM    7  C   UNK N   1      25.807  22.900  -7.799  0.00  0.00     0.158 C 
ENDROOT
BRANCH   1   8
HETATM    8  C   UNK N   1      27.003  24.624  -5.609  0.00  0.00     0.079 A 
HETATM    9  C   UNK N   1      26.198  24.832  -4.487  0.00  0.00     0.050 A 
HETATM   10  C   UNK N   1      26.683  24.478  -3.232  0.00  0.00     0.108 A 
HETATM   11  N   UNK N   1      27.933  23.966  -3.110  0.00  0.00    -0.202 N 
HETATM   12  C   UNK N   1      28.701  23.741  -4.208  0.00  0.00     0.679 A 
ATOM     13  HN  UNK N   1      28.302  23.748  -2.185  1.00  0.00     0.183 HD
HETATM   14  N   UNK N   1      30.009  23.208  -4.051  0.00  0.00    -0.218 N 
HETATM   15  N   UNK N   1      28.223  24.050  -5.447  0.00  0.00    -0.190 N 
HETATM   16  H   UNK N   1      30.453  23.300  -3.176  0.00  0.00     0.178 HD
ATOM     17  HN  UNK N   1      28.793  23.846  -6.268  1.00  0.00     0.184 HD
BRANCH  14  18
HETATM   18  C   UNK N   1      30.718  22.536  -5.124  0.00  0.00     0.128 C 
HETATM   19  C   UNK N   1      29.858  21.451  -5.765  0.00  0.00     0.038 C 
BRANCH  18  20
HETATM   20  C   UNK N   1      32.052  22.018  -4.640  0.00  0.00    -0.035 A 
HETATM   21  C   UNK N   1      32.177  21.485  -3.351  0.00  0.00     0.009 A 
HETATM   22  C   UNK N   1      33.408  20.985  -2.912  0.00  0.00     0.001 A 
HETATM   23  C   UNK N   1      34.516  20.999  -3.764  0.00  0.00     0.000 A 
HETATM   24  C   UNK N   1      34.398  21.514  -5.056  0.00  0.00     0.001 A 
HETATM   25  C   UNK N   1      33.175  22.022  -5.490  0.00  0.00     0.009 A 
ENDBRANCH  18  20
ENDBRANCH  14  18
ENDBRANCH   1   8
BRANCH   2  26
HETATM   26  C   UNK N   1      27.280  27.629  -6.833  0.00  0.00    -0.006 A 
HETATM   27  C   UNK N   1      26.770  28.063  -5.615  0.00  0.00     0.030 A 
HETATM   28  C   UNK N   1      27.210  29.225  -4.993  0.00  0.00     0.048 A 
HETATM   29  C   UNK N   1      28.230  29.972  -5.594  0.00  0.00     0.016 A 
HETATM   30  C   UNK N   1      28.781  29.544  -6.811  0.00  0.00     0.002 A 
HETATM   31  C   UNK N   1      28.297  28.384  -7.438  0.00  0.00     0.014 A 
BRANCH  28  32
HETATM   32  C   UNK N   1      26.538  29.656  -3.719  0.00  0.00     0.417 C 
HETATM   33  F   UNK N   1      27.461  29.682  -2.688  0.00  0.00    -0.166 F 
HETATM   34  F   UNK N   1      25.968  30.909  -3.846  0.00  0.00    -0.166 F 
HETATM   35  F   UNK N   1      25.544  28.746  -3.402  0.00  0.00    -0.166 F 
ENDBRANCH  28  32
ENDBRANCH   2  26
BRANCH   5  36
HETATM   36  C   UNK N   1      25.309  24.628 -10.301  0.00  0.00     0.057 C 
HETATM   37  C   UNK N   1      24.609  25.749 -11.082  0.00  0.00     0.031 C 
HETATM   38  C   UNK N   1      25.639  26.612 -11.818  0.00  0.00     0.114 C 
HETATM   39  N   UNK N   1      26.435  25.785 -12.724  0.00  0.00    -0.421 N 
HETATM   40  C   UNK N   1      27.218  24.848 -11.925  0.00  0.00     0.114 C 
HETATM   41  H   UNK N   1      26.441  25.852 -13.742  0.00  0.00     0.153 HD
HETATM   42  C   UNK N   1      26.284  23.877 -11.213  0.00  0.00     0.031 C 
ENDBRANCH   5  36
TORSDOF 6
ENDMDL
MODEL 9
REMARK VINA RESULT:      -7.5      4.438      6.947
REMARK  6 active torsions:
REMARK  status: ('A' for Active; 'I' for Inactive)
REMARK    1  A    between atoms: C_2  and  N_3 
REMARK    2  A    between atoms: C_2  and  C_35 
REMARK       I    between atoms: N_3  and  C_4 
REMARK    3  A    between atoms: C_9  and  C_12 
REMARK    4  A    between atoms: C_13  and  C_25 
REMARK    5  A    between atoms: C_16  and  C_17 
REMARK    6  A    between atoms: C_27  and  C_31 
ROOT
HETATM    1  C   UNK N   1      28.878  15.858   4.781  0.00  0.00     0.091 A 
HETATM    2  C   UNK N   1      28.987  17.225   5.070  0.00  0.00     0.073 A 
HETATM    3  N   UNK N   1      30.178  17.440   5.677  0.00  0.00    -0.343 N 
ATOM      4  HN  UNK N   1      30.546  18.329   6.018  1.00  0.00     0.167 HD
HETATM    5  C   UNK N   1      30.777  16.227   5.738  0.00  0.00     0.088 A 
HETATM    6  N   UNK N   1      29.999  15.254   5.213  0.00  0.00    -0.337 N 
HETATM    7  C   UNK N   1      30.323  13.840   5.094  0.00  0.00     0.158 C 
ENDROOT
BRANCH   1   8
HETATM    8  C   UNK N   1      27.736  15.129   4.174  0.00  0.00     0.079 A 
HETATM    9  C   UNK N   1      27.714  14.785   2.821  0.00  0.00     0.050 A 
HETATM   10  C   UNK N   1      26.556  14.232   2.283  0.00  0.00     0.108 A 
HETATM   11  N   UNK N   1      25.462  14.061   3.066  0.00  0.00    -0.202 N 
HETATM   12  C   UNK N   1      25.498  14.372   4.388  0.00  0.00     0.679 A 
ATOM     13  HN  UNK N   1      24.602  13.695   2.658  1.00  0.00     0.183 HD
HETATM   14  N   UNK N   1      24.335  14.187   5.183  0.00  0.00    -0.218 N 
HETATM   15  N   UNK N   1      26.638  14.881   4.935  0.00  0.00    -0.190 N 
HETATM   16  H   UNK N   1      23.460  14.141   4.734  0.00  0.00     0.178 HD
ATOM     17  HN  UNK N   1      26.667  15.079   5.935  1.00  0.00     0.184 HD
BRANCH  14  18
HETATM   18  C   UNK N   1      24.382  14.063   6.628  0.00  0.00     0.128 C 
HETATM   19  C   UNK N   1      24.719  12.637   7.054  0.00  0.00     0.038 C 
BRANCH  18  20
HETATM   20  C   UNK N   1      23.106  14.577   7.251  0.00  0.00    -0.035 A 
HETATM   21  C   UNK N   1      22.473  15.711   6.727  0.00  0.00     0.009 A 
HETATM   22  C   UNK N   1      21.278  16.174   7.290  0.00  0.00     0.001 A 
HETATM   23  C   UNK N   1      20.701  15.496   8.368  0.00  0.00     0.000 A 
HETATM   24  C   UNK N   1      21.317  14.356   8.887  0.00  0.00     0.001 A 
HETATM   25  C   UNK N   1      22.512  13.901   8.333  0.00  0.00     0.009 A 
ENDBRANCH  18  20
ENDBRANCH  14  18
ENDBRANCH   1   8
BRANCH   2  26
HETATM   26  C   UNK N   1      27.991  18.308   4.835  0.00  0.00    -0.006 A 
HETATM   27  C   UNK N   1      27.880  19.367   5.729  0.00  0.00     0.030 A 
HETATM   28  C   UNK N   1      26.934  20.374   5.580  0.00  0.00     0.048 A 
HETATM   29  C   UNK N   1      26.081  20.344   4.470  0.00  0.00     0.016 A 
HETATM   30  C   UNK N   1      26.187  19.300   3.538  0.00  0.00     0.002 A 
HETATM   31  C   UNK N   1      27.129  18.276   3.728  0.00  0.00     0.014 A 
BRANCH  28  32
HETATM   32  C   UNK N   1      26.837  21.432   6.643  0.00  0.00     0.417 C 
HETATM   33  F   UNK N   1      25.822  22.319   6.330  0.00  0.00    -0.166 F 
HETATM   34  F   UNK N   1      26.587  20.880   7.885  0.00  0.00    -0.166 F 
HETATM   35  F   UNK N   1      28.033  22.128   6.698  0.00  0.00    -0.166 F 
ENDBRANCH  28  32
ENDBRANCH   2  26
BRANCH   5  36
HETATM   36  C   UNK N   1      32.178  16.001   6.270  0.00  0.00     0.057 C 
HETATM   37  C   UNK N   1      32.934  17.304   6.560  0.00  0.00     0.031 C 
HETATM   38  C   UNK N   1      32.461  17.916   7.882  0.00  0.00     0.114 C 
HETATM   39  N   UNK N   1      32.656  16.965   8.976  0.00  0.00    -0.421 N 
HETATM   40  C   UNK N   1      31.785  15.816   8.749  0.00  0.00     0.114 C 
HETATM   41  H   UNK N   1      33.294  17.085   9.763  0.00  0.00     0.153 HD
HETATM   42  C   UNK N   1      32.229  15.078   7.492  0.00  0.00     0.031 C 
ENDBRANCH   5  36
TORSDOF 6
ENDMDL
