REMARK  12 active torsions:
REMARK  status: ('A' for Active; 'I' for Inactive)
REMARK    1  A    between atoms: C_4  and  C_2 
REMARK    2  A    between atoms: C_5  and  C_2 
REMARK    3  A    between atoms: C_6  and  C_3 
REMARK    4  A    between atoms: O_16  and  C_3 
REMARK    5  A    between atoms: C_7  and  C_4 
REMARK    6  A    between atoms: C_4  and  N_9 
REMARK    7  A    between atoms: C_5  and  O_11 
REMARK    8  A    between atoms: O_16  and  C_5 
REMARK    9  A    between atoms: C_8  and  C_6 
REMARK   10  A    between atoms: C_6  and  N_10 
REMARK   11  A    between atoms: O_13  and  C_7 
REMARK   12  A    between atoms: O_15  and  C_8 
ROOT
HETATM    1  C   UNK N   1       3.145  -1.037   0.045  0.00  0.00     0.259 C 
ENDROOT
BRANCH   1   2
HETATM    2  C   UNK N   1       1.973  -0.229  -0.507  0.00  0.00     0.096 C 
BRANCH   2   3
HETATM    3  C   UNK N   1       0.804  -0.061   0.459  0.00  0.00     0.177 C 
BRANCH   3   4
HETATM    4  C   UNK N   1      -0.293   0.703  -0.230  0.00  0.00     0.163 C 
HETATM    5  O   UNK N   1      -1.409   0.214  -0.357  0.00  0.00    -0.648 OA
BRANCH   4   6
HETATM    6  O   UNK N   1      -0.054   1.937  -0.712  0.00  0.00    -0.775 OA
HETATM    7  H   UNK N   1       0.774   2.222  -1.047  0.00  0.00     0.167 HD
ENDBRANCH   4   6
ENDBRANCH   3   4
BRANCH   3   8
HETATM    8  N   UNK N   1       0.328  -1.362   0.907  0.00  0.00    -0.417 N 
HETATM    9  H   UNK N   1      -0.629  -1.528   1.221  0.00  0.00     0.150 HD
HETATM   10  H   UNK N   1       0.982  -2.144   0.907  0.00  0.00     0.150 HD
ENDBRANCH   3   8
ENDBRANCH   2   3
ENDBRANCH   1   2
BRANCH   1  11
HETATM   11  O   UNK N   1       3.081  -2.323  -0.503  0.00  0.00    -0.371 OA
HETATM   12  H   UNK N   1       2.287  -2.730  -0.884  0.00  0.00     0.212 HD
ENDBRANCH   1  11
BRANCH   1  13
HETATM   13  O   UNK N   1       4.319  -0.353  -0.339  0.00  0.00    -0.354 OA
BRANCH  13  14
HETATM   14  C   UNK N   1       5.537  -1.088  -0.289  0.00  0.00     0.153 C 
HETATM   15  C   UNK N   1       5.602  -2.149   0.823  0.00  0.00     0.042 C 
BRANCH  14  16
HETATM   16  C   UNK N   1       6.668  -0.063  -0.052  0.00  0.00     0.202 C 
BRANCH  16  17
HETATM   17  C   UNK N   1       8.055  -0.607  -0.290  0.00  0.00     0.165 C 
HETATM   18  O   UNK N   1       9.024   0.110  -0.097  0.00  0.00    -0.648 OA
BRANCH  17  19
HETATM   19  O   UNK N   1       8.240  -1.859  -0.753  0.00  0.00    -0.775 OA
HETATM   20  H   UNK N   1       7.551  -2.406  -1.075  0.00  0.00     0.167 HD
ENDBRANCH  17  19
ENDBRANCH  16  17
BRANCH  16  21
HETATM   21  N   UNK N   1       6.481   1.085  -0.926  0.00  0.00    -0.416 N 
HETATM   22  H   UNK N   1       7.112   1.602  -1.539  0.00  0.00     0.150 HD
HETATM   23  H   UNK N   1       5.527   1.446  -0.926  0.00  0.00     0.150 HD
ENDBRANCH  16  21
ENDBRANCH  14  16
ENDBRANCH  13  14
ENDBRANCH   1  13
TORSDOF 12
