REMARK  3 active torsions:
REMARK  status: ('A' for Active; 'I' for Inactive)
REMARK    1  A    between atoms: O_1  and  C_2 
REMARK    2  A    between atoms: C_2  and  C_3 
REMARK    3  A    between atoms: C_7  and  O_8 
ROOT
HETATM    1  C   UNK N   1       0.784  -0.902  -0.000  0.00  0.00     0.080 A 
HETATM    2  C   UNK N   1      -0.452  -0.256   0.000  0.00  0.00     0.092 A 
HETATM    3  C   UNK N   1      -0.486   1.132  -0.000  0.00  0.00     0.209 A 
HETATM    4  O   UNK N   1      -1.557   1.713   0.000  0.00  0.00    -0.285 OA
HETATM    5  C   UNK N   1       0.714   1.847  -0.000  0.00  0.00     0.138 A 
HETATM    6  C   UNK N   1       1.918   1.138  -0.000  0.00  0.00     0.182 A 
HETATM    7  O   UNK N   1       1.916  -0.194  -0.000  0.00  0.00    -0.322 OA
ENDROOT
BRANCH   1   8
HETATM    8  C   UNK N   1       0.812  -2.393  -0.000  0.00  0.00     0.229 C 
BRANCH   8   9
HETATM    9  O   UNK N   1       2.124  -2.864   0.000  0.00  0.00    -0.394 OA
HETATM   10  H   UNK N   1       2.297  -3.819   0.000  0.00  0.00     0.209 HD
ENDBRANCH   8   9
ENDBRANCH   1   8
BRANCH   5  11
HETATM   11  O   UNK N   1       0.718   3.191  -0.000  0.00  0.00    -0.355 OA
HETATM   12  H   UNK N   1       1.531   3.657  -0.000  0.00  0.00     0.218 HD
ENDBRANCH   5  11
TORSDOF 3
