MODEL 1
REMARK VINA RESULT:      -7.5      0.000      0.000
REMARK WARNING: 32 MAX_TORS EXCEEDED!!!
REMARK  49 active torsions:
REMARK  status: ('A' for Active; 'I' for Inactive)
REMARK    1  A    between atoms: C_9  and  C_5 
REMARK    2  A    between atoms: C_16  and  C_5 
REMARK    3  A    between atoms: C_10  and  C_6 
REMARK    4  A    between atoms: C_18  and  C_6 
REMARK    5  A    between atoms: C_11  and  C_7 
REMARK    6  A    between atoms: C_19  and  C_7 
REMARK    7  A    between atoms: C_31  and  C_9 
REMARK    8  A    between atoms: C_32  and  C_10 
REMARK    9  A    between atoms: C_33  and  C_11 
REMARK   10  A    between atoms: C_13  and  C_12 
REMARK   11  A    between atoms: C_41  and  C_12 
REMARK   12  A    between atoms: C_42  and  C_13 
REMARK   13  A    between atoms: N_62  and  C_16 
REMARK   14  A    between atoms: N_80  and  C_18 
REMARK   15  A    between atoms: N_81  and  C_19 
REMARK   16  A    between atoms: C_35  and  C_23 
REMARK   17  A    between atoms: O_83  and  C_23 
REMARK   18  A    between atoms: C_36  and  C_24 
REMARK   19  A    between atoms: O_84  and  C_24 
REMARK   20  A    between atoms: N_80  and  C_25 
REMARK   21  A    between atoms: N_81  and  C_26 
REMARK   22  A    between atoms: C_43  and  C_27 
REMARK   23  A    between atoms: C_27  and  O_87 
REMARK   24  A    between atoms: C_44  and  C_28 
REMARK   25  A    between atoms: C_28  and  O_88 
REMARK   26  A    between atoms: C_30  and  N_64 
REMARK   27  A    between atoms: C_48  and  C_31 
REMARK   28  A    between atoms: C_31  and  N_68 
REMARK   29  A    between atoms: C_47  and  C_32 
REMARK   30  A    between atoms: C_32  and  N_70 
REMARK   31  A    between atoms: N_63  and  C_34 
REMARK   32  A    between atoms: C_50  and  C_35 
REMARK   33  A    between atoms: C_35  and  N_72 
REMARK   34  A    between atoms: C_51  and  C_36 
REMARK   35  A    between atoms: C_36  and  N_74 
REMARK   36  A    between atoms: C_52  and  C_37 
REMARK   37  A    between atoms: O_89  and  C_39 
REMARK   38  A    between atoms: O_90  and  C_40 
REMARK       I    between atoms: N_63  and  C_41 
REMARK   39  A    between atoms: O_93  and  C_42 
REMARK   40  A    between atoms: C_46  and  O_94 
REMARK   41  A    between atoms: C_47  and  O_95 
REMARK   42  A    between atoms: C_48  and  O_96 
REMARK   43  A    between atoms: C_50  and  O_98 
REMARK   44  A    between atoms: C_51  and  O_99 
REMARK   45  A    between atoms: C_52  and  O_100 
REMARK   46  A    between atoms: O_101  and  C_53 
REMARK   47  A    between atoms: C_54  and  O_102 
REMARK       I    between atoms: N_58  and  C_55 
REMARK       I    between atoms: N_62  and  C_55 
REMARK   48  A    between atoms: O_103  and  N_80 
REMARK   49  A    between atoms: O_104  and  N_81 
ROOT
HETATM    1  C   UNK N   1      31.987  11.022   5.797  0.00  0.00     0.004 C 
HETATM    2  C   UNK N   1      32.717   9.772   6.239  0.00  0.00     0.020 C 
HETATM    3  C   UNK N   1      32.983  11.981   5.168  0.00  0.00     0.033 C 
HETATM    4  C   UNK N   1      32.434   9.500   7.707  0.00  0.00     0.121 C 
HETATM    5  C   UNK N   1      32.616  13.444   5.435  0.00  0.00     0.158 C 
HETATM    6  C   UNK N   1      31.633  15.628   8.482  0.00  0.00     0.158 C 
HETATM    7  C   UNK N   1      34.400  11.421  10.333  0.00  0.00     0.186 C 
HETATM    8  C   UNK N   1      34.650  15.151   9.548  0.00  0.00     0.186 C 
HETATM    9  C   UNK N   1      32.530  13.808   6.915  0.00  0.00     0.135 C 
HETATM   10  C   UNK N   1      32.162  15.303   9.897  0.00  0.00     0.135 C 
HETATM   11  C   UNK N   1      33.263  10.849   9.503  0.00  0.00     0.137 C 
HETATM   12  C   UNK N   1      35.078  13.710   9.572  0.00  0.00     0.138 C 
HETATM   13  N   UNK N   1      33.495  10.035   8.530  0.00  0.00    -0.373 N 
ATOM     14  HN  UNK N   1      34.457   9.759   8.335  1.00  0.00     0.161 HD
HETATM   15  N   UNK N   1      31.900  14.884   7.245  0.00  0.00    -0.361 N 
ATOM     16  HN  UNK N   1      31.476  15.337   6.436  1.00  0.00     0.162 HD
HETATM   17  N   UNK N   1      33.398  15.204  10.285  0.00  0.00    -0.358 N 
ATOM     18  HN  UNK N   1      33.511  15.154  11.298  1.00  0.00     0.162 HD
HETATM   19  N   UNK N   1      34.326  12.862  10.206  0.00  0.00    -0.358 N 
ATOM     20  HN  UNK N   1      33.544  13.287  10.704  1.00  0.00     0.162 HD
HETATM   21  O   UNK N   1      31.223  15.197  10.860  0.00  0.00    -0.348 OA
HETATM   22  H   UNK N   1      30.604  14.981  11.528  0.00  0.00     0.219 HD
ENDROOT
BRANCH   6  23
HETATM   23  C   UNK N   1      31.892  17.088   8.189  0.00  0.00     0.035 C 
BRANCH  23  24
HETATM   24  C   UNK N   1      30.640  17.896   8.446  0.00  0.00     0.025 C 
BRANCH  24  25
HETATM   25  C   UNK N   1      29.649  17.672   7.350  0.00  0.00     0.158 C 
BRANCH  25  26
HETATM   26  N   UNK N   1      28.344  17.979   7.846  0.00  0.00    -0.236 N 
BRANCH  26  27
HETATM   27  C   UNK N   1      28.088  17.845   9.161  0.00  0.00     0.376 C 
HETATM   28  O   UNK N   1      27.502  16.860   9.578  0.00  0.00    -0.281 OA
ENDBRANCH  26  27
BRANCH  26  29
HETATM   29  O   UNK N   1      27.398  18.405   7.005  0.00  0.00    -0.285 OA
HETATM   30  H   UNK N   1      27.462  18.483   6.040  0.00  0.00     0.245 HD
ENDBRANCH  26  29
ENDBRANCH  25  26
ENDBRANCH  24  25
ENDBRANCH  23  24
ENDBRANCH   6  23
BRANCH   8  31
HETATM   31  C   UNK N   1      35.748  16.026  10.205  0.00  0.00     0.144 C 
HETATM   32  C   UNK N   1      35.983  15.649  11.663  0.00  0.00     0.042 C 
BRANCH  31  33
HETATM   33  O   UNK N   1      35.413  17.378  10.141  0.00  0.00    -0.393 OA
HETATM   34  H   UNK N   1      34.590  17.653   9.708  0.00  0.00     0.210 HD
ENDBRANCH  31  33
ENDBRANCH   8  31
BRANCH   9  35
HETATM   35  O   UNK N   1      33.109  13.036   7.830  0.00  0.00    -0.348 OA
HETATM   36  H   UNK N   1      33.994  12.746   7.731  0.00  0.00     0.219 HD
ENDBRANCH   9  35
BRANCH  12  37
HETATM   37  O   UNK N   1      36.160  13.327   8.867  0.00  0.00    -0.348 OA
HETATM   38  H   UNK N   1      36.633  12.748   8.302  0.00  0.00     0.219 HD
ENDBRANCH  12  37
BRANCH   5  39
HETATM   39  N   UNK N   1      31.399  13.909   4.801  0.00  0.00    -0.361 N 
HETATM   40  C   UNK N   1      31.094  14.292   3.613  0.00  0.00     0.135 C 
ATOM     41  HN  UNK N   1      30.607  13.939   5.442  1.00  0.00     0.162 HD
BRANCH  40  42
HETATM   42  C   UNK N   1      29.625  14.592   3.313  0.00  0.00     0.158 C 
BRANCH  42  43
HETATM   43  C   UNK N   1      29.358  14.381   1.824  0.00  0.00     0.035 C 
BRANCH  43  44
HETATM   44  C   UNK N   1      29.127  12.909   1.496  0.00  0.00     0.025 C 
BRANCH  44  45
HETATM   45  C   UNK N   1      27.648  12.558   1.543  0.00  0.00     0.158 C 
BRANCH  45  46
HETATM   46  N   UNK N   1      27.398  11.505   2.486  0.00  0.00    -0.236 N 
BRANCH  46  47
HETATM   47  C   UNK N   1      26.525  10.521   2.189  0.00  0.00     0.376 C 
HETATM   48  O   UNK N   1      26.455  10.061   1.062  0.00  0.00    -0.281 OA
ENDBRANCH  46  47
BRANCH  46  49
HETATM   49  O   UNK N   1      28.076  11.477   3.650  0.00  0.00    -0.285 OA
HETATM   50  H   UNK N   1      28.977  11.782   3.843  0.00  0.00     0.245 HD
ENDBRANCH  46  49
ENDBRANCH  45  46
ENDBRANCH  44  45
ENDBRANCH  43  44
ENDBRANCH  42  43
BRANCH  42  51
HETATM   51  N   UNK N   1      29.198  15.950   3.638  0.00  0.00    -0.361 N 
HETATM   52  C   UNK N   1      28.007  16.441   3.796  0.00  0.00     0.137 C 
ATOM     53  HN  UNK N   1      29.958  16.620   3.760  1.00  0.00     0.162 HD
BRANCH  52  54
HETATM   54  C   UNK N   1      26.732  15.620   3.731  0.00  0.00     0.181 C 
BRANCH  54  55
HETATM   55  C   UNK N   1      25.946  15.786   2.429  0.00  0.00     0.197 C 
BRANCH  55  56
HETATM   56  O   UNK N   1      24.859  14.920   2.327  0.00  0.00    -0.398 OA
HETATM   57  H   UNK N   1      23.895  15.034   2.308  0.00  0.00     0.209 HD
ENDBRANCH  55  56
ENDBRANCH  54  55
BRANCH  54  58
HETATM   58  N   UNK N   1      26.693  14.304   4.355  0.00  0.00    -0.359 N 
HETATM   59  C   UNK N   1      26.038  13.800   5.348  0.00  0.00     0.135 C 
ATOM     60  HN  UNK N   1      27.320  13.634   3.911  1.00  0.00     0.162 HD
BRANCH  59  61
HETATM   61  C   UNK N   1      25.008  14.534   6.153  0.00  0.00     0.158 C 
BRANCH  61  62
HETATM   62  C   UNK N   1      25.031  16.020   5.828  0.00  0.00     0.035 C 
BRANCH  62  63
HETATM   63  C   UNK N   1      23.670  16.567   5.409  0.00  0.00     0.023 C 
BRANCH  63  64
HETATM   64  C   UNK N   1      23.774  17.909   4.706  0.00  0.00     0.138 C 
BRANCH  64  65
HETATM   65  N   UNK N   1      24.978  18.578   5.120  0.00  0.00    -0.227 N 
HETATM   66  C   UNK N   1      25.381  19.807   4.538  0.00  0.00     0.665 C 
HETATM   67  N   UNK N   1      24.708  20.327   3.578  0.00  0.00    -0.235 N 
HETATM   68  N   UNK N   1      26.546  20.452   5.006  0.00  0.00    -0.235 N 
HETATM   69  H   UNK N   1      24.956  21.083   2.997  0.00  0.00     0.174 HD
ATOM     70  HN  UNK N   1      23.798  19.903   3.392  1.00  0.00     0.174 HD
HETATM   71  H   UNK N   1      27.247  19.948   5.479  0.00  0.00     0.174 HD
HETATM   72  H   UNK N   1      26.658  21.418   4.857  0.00  0.00     0.174 HD
HETATM   73  H   UNK N   1      25.536  18.174   5.824  0.00  0.00     0.177 HD
ENDBRANCH  64  65
ENDBRANCH  63  64
ENDBRANCH  62  63
ENDBRANCH  61  62
BRANCH  61  74
HETATM   74  N   UNK N   1      25.269  14.308   7.555  0.00  0.00    -0.361 N 
HETATM   75  C   UNK N   1      24.698  13.433   8.313  0.00  0.00     0.137 C 
ATOM     76  HN  UNK N   1      25.977  14.900   7.991  1.00  0.00     0.162 HD
BRANCH  75  77
HETATM   77  C   UNK N   1      23.548  12.555   7.877  0.00  0.00     0.181 C 
BRANCH  77  78
HETATM   78  C   UNK N   1      23.976  11.098   7.970  0.00  0.00     0.197 C 
BRANCH  78  79
HETATM   79  O   UNK N   1      23.921  10.486   6.715  0.00  0.00    -0.398 OA
HETATM   80  H   UNK N   1      23.597   9.788   6.126  0.00  0.00     0.209 HD
ENDBRANCH  78  79
ENDBRANCH  77  78
BRANCH  77  81
HETATM   81  N   UNK N   1      22.319  12.702   8.659  0.00  0.00    -0.359 N 
HETATM   82  C   UNK N   1      21.318  13.496   8.435  0.00  0.00     0.135 C 
ATOM     83  HN  UNK N   1      22.240  12.105   9.482  1.00  0.00     0.162 HD
BRANCH  82  84
HETATM   84  C   UNK N   1      21.382  14.616   7.426  0.00  0.00     0.163 C 
HETATM   85  C   UNK N   1      21.077  15.936   8.164  0.00  0.00     0.053 C 
HETATM   86  C   UNK N   1      19.606  16.337   7.978  0.00  0.00     0.118 C 
HETATM   87  N   UNK N   1      19.219  16.457   6.558  0.00  0.00    -0.397 N 
HETATM   88  C   UNK N   1      20.163  15.785   5.650  0.00  0.00     0.232 A 
HETATM   89  H   UNK N   1      18.387  16.952   6.240  0.00  0.00     0.155 HD
HETATM   90  C   UNK N   1      19.592  15.742   4.250  0.00  0.00     0.055 A 
HETATM   91  N   UNK N   1      20.544  14.503   6.232  0.00  0.00    -0.341 N 
HETATM   92  C   UNK N   1      19.454  14.584   3.591  0.00  0.00     0.043 A 
HETATM   93  C   UNK N   1      19.879  13.310   4.186  0.00  0.00    -0.005 A 
HETATM   94  C   UNK N   1      19.783  12.125   3.444  0.00  0.00     0.053 A 
HETATM   95  C   UNK N   1      20.390  13.282   5.493  0.00  0.00     0.046 A 
HETATM   96  C   UNK N   1      20.176  10.905   4.007  0.00  0.00     0.099 A 
HETATM   97  C   UNK N   1      20.642  10.865   5.321  0.00  0.00     0.101 A 
HETATM   98  C   UNK N   1      20.744  12.046   6.046  0.00  0.00     0.069 A 
BRANCH  90  99
HETATM   99  N   UNK N   1      19.120  16.950   3.655  0.00  0.00    -0.327 N 
HETATM  100  C   UNK N   1      19.894  17.802   2.922  0.00  0.00     0.222 C 
HETATM  101  O   UNK N   1      20.966  17.448   2.458  0.00  0.00    -0.273 OA
HETATM  102  H   UNK N   1      18.172  17.184   3.781  0.00  0.00     0.168 HD
BRANCH 100 103
HETATM  103  C   UNK N   1      19.448  19.206   2.717  0.00  0.00     0.113 C 
BRANCH 103 104
HETATM  104  C   UNK N   1      20.471  20.125   3.379  0.00  0.00     0.119 C 
BRANCH 104 105
HETATM  105  C   UNK N   1      21.232  20.943   2.380  0.00  0.00     0.139 C 
HETATM  106  O   UNK N   1      21.003  20.839   1.184  0.00  0.00    -0.650 OA
BRANCH 105 107
HETATM  107  O   UNK N   1      22.203  21.772   2.804  0.00  0.00    -0.776 OA
HETATM  108  H   UNK N   1      22.862  21.562   3.438  0.00  0.00     0.167 HD
ENDBRANCH 105 107
ENDBRANCH 104 105
ENDBRANCH 103 104
ENDBRANCH 100 103
ENDBRANCH  90  99
BRANCH  96 109
HETATM  109  O   UNK N   1      20.098   9.774   3.286  0.00  0.00    -0.358 OA
HETATM  110  H   UNK N   1      20.869   9.267   3.122  0.00  0.00     0.217 HD
ENDBRANCH  96 109
BRANCH  97 111
HETATM  111  O   UNK N   1      21.000   9.701   5.888  0.00  0.00    -0.358 OA
HETATM  112  H   UNK N   1      20.555   8.894   5.717  0.00  0.00     0.217 HD
ENDBRANCH  97 111
ENDBRANCH  82  84
BRANCH  82 113
HETATM  113  O   UNK N   1      20.206  13.359   9.185  0.00  0.00    -0.348 OA
HETATM  114  H   UNK N   1      19.338  13.399   9.535  0.00  0.00     0.219 HD
ENDBRANCH  82 113
ENDBRANCH  77  81
ENDBRANCH  75  77
BRANCH  75 115
HETATM  115  O   UNK N   1      25.129  13.311   9.584  0.00  0.00    -0.348 OA
HETATM  116  H   UNK N   1      25.189  13.251  10.517  0.00  0.00     0.219 HD
ENDBRANCH  75 115
ENDBRANCH  61  74
ENDBRANCH  59  61
BRANCH  59 117
HETATM  117  O   UNK N   1      26.310  12.527   5.695  0.00  0.00    -0.348 OA
HETATM  118  H   UNK N   1      26.489  11.632   5.482  0.00  0.00     0.219 HD
ENDBRANCH  59 117
ENDBRANCH  54  58
ENDBRANCH  52  54
BRANCH  52 119
HETATM  119  O   UNK N   1      27.902  17.752   4.089  0.00  0.00    -0.348 OA
HETATM  120  H   UNK N   1      27.461  18.453   3.651  0.00  0.00     0.219 HD
ENDBRANCH  52 119
ENDBRANCH  42  51
ENDBRANCH  40  42
BRANCH  40 121
HETATM  121  O   UNK N   1      32.027  14.343   2.640  0.00  0.00    -0.348 OA
HETATM  122  H   UNK N   1      32.749  13.748   2.597  0.00  0.00     0.219 HD
ENDBRANCH  40 121
ENDBRANCH   5  39
BRANCH   7 123
HETATM  123  C   UNK N   1      35.790  10.826  10.038  0.00  0.00     0.144 C 
HETATM  124  C   UNK N   1      35.809   9.340  10.347  0.00  0.00     0.042 C 
BRANCH 123 125
HETATM  125  O   UNK N   1      36.745  11.451  10.843  0.00  0.00    -0.393 OA
HETATM  126  H   UNK N   1      37.616  11.708  10.502  0.00  0.00     0.210 HD
ENDBRANCH 123 125
ENDBRANCH   7 123
BRANCH  11 127
HETATM  127  O   UNK N   1      31.998  11.246   9.771  0.00  0.00    -0.348 OA
HETATM  128  H   UNK N   1      31.174  10.976  10.128  0.00  0.00     0.219 HD
ENDBRANCH  11 127
TORSDOF 49
ENDMDL
MODEL 2
REMARK VINA RESULT:      -7.5      2.038      4.927
REMARK WARNING: 32 MAX_TORS EXCEEDED!!!
REMARK  49 active torsions:
REMARK  status: ('A' for Active; 'I' for Inactive)
REMARK    1  A    between atoms: C_9  and  C_5 
REMARK    2  A    between atoms: C_16  and  C_5 
REMARK    3  A    between atoms: C_10  and  C_6 
REMARK    4  A    between atoms: C_18  and  C_6 
REMARK    5  A    between atoms: C_11  and  C_7 
REMARK    6  A    between atoms: C_19  and  C_7 
REMARK    7  A    between atoms: C_31  and  C_9 
REMARK    8  A    between atoms: C_32  and  C_10 
REMARK    9  A    between atoms: C_33  and  C_11 
REMARK   10  A    between atoms: C_13  and  C_12 
REMARK   11  A    between atoms: C_41  and  C_12 
REMARK   12  A    between atoms: C_42  and  C_13 
REMARK   13  A    between atoms: N_62  and  C_16 
REMARK   14  A    between atoms: N_80  and  C_18 
REMARK   15  A    between atoms: N_81  and  C_19 
REMARK   16  A    between atoms: C_35  and  C_23 
REMARK   17  A    between atoms: O_83  and  C_23 
REMARK   18  A    between atoms: C_36  and  C_24 
REMARK   19  A    between atoms: O_84  and  C_24 
REMARK   20  A    between atoms: N_80  and  C_25 
REMARK   21  A    between atoms: N_81  and  C_26 
REMARK   22  A    between atoms: C_43  and  C_27 
REMARK   23  A    between atoms: C_27  and  O_87 
REMARK   24  A    between atoms: C_44  and  C_28 
REMARK   25  A    between atoms: C_28  and  O_88 
REMARK   26  A    between atoms: C_30  and  N_64 
REMARK   27  A    between atoms: C_48  and  C_31 
REMARK   28  A    between atoms: C_31  and  N_68 
REMARK   29  A    between atoms: C_47  and  C_32 
REMARK   30  A    between atoms: C_32  and  N_70 
REMARK   31  A    between atoms: N_63  and  C_34 
REMARK   32  A    between atoms: C_50  and  C_35 
REMARK   33  A    between atoms: C_35  and  N_72 
REMARK   34  A    between atoms: C_51  and  C_36 
REMARK   35  A    between atoms: C_36  and  N_74 
REMARK   36  A    between atoms: C_52  and  C_37 
REMARK   37  A    between atoms: O_89  and  C_39 
REMARK   38  A    between atoms: O_90  and  C_40 
REMARK       I    between atoms: N_63  and  C_41 
REMARK   39  A    between atoms: O_93  and  C_42 
REMARK   40  A    between atoms: C_46  and  O_94 
REMARK   41  A    between atoms: C_47  and  O_95 
REMARK   42  A    between atoms: C_48  and  O_96 
REMARK   43  A    between atoms: C_50  and  O_98 
REMARK   44  A    between atoms: C_51  and  O_99 
REMARK   45  A    between atoms: C_52  and  O_100 
REMARK   46  A    between atoms: O_101  and  C_53 
REMARK   47  A    between atoms: C_54  and  O_102 
REMARK       I    between atoms: N_58  and  C_55 
REMARK       I    between atoms: N_62  and  C_55 
REMARK   48  A    between atoms: O_103  and  N_80 
REMARK   49  A    between atoms: O_104  and  N_81 
ROOT
HETATM    1  C   UNK N   1      32.363  11.011   5.803  0.00  0.00     0.004 C 
HETATM    2  C   UNK N   1      33.071   9.766   6.291  0.00  0.00     0.020 C 
HETATM    3  C   UNK N   1      33.390  11.980   5.246  0.00  0.00     0.033 C 
HETATM    4  C   UNK N   1      32.692   9.487   7.736  0.00  0.00     0.121 C 
HETATM    5  C   UNK N   1      32.994  13.440   5.491  0.00  0.00     0.158 C 
HETATM    6  C   UNK N   1      31.787  15.606   8.469  0.00  0.00     0.158 C 
HETATM    7  C   UNK N   1      34.457  11.417  10.494  0.00  0.00     0.186 C 
HETATM    8  C   UNK N   1      34.729  15.151   9.736  0.00  0.00     0.186 C 
HETATM    9  C   UNK N   1      32.805  13.798   6.962  0.00  0.00     0.135 C 
HETATM   10  C   UNK N   1      32.222  15.281   9.915  0.00  0.00     0.135 C 
HETATM   11  C   UNK N   1      33.385  10.838   9.587  0.00  0.00     0.137 C 
HETATM   12  C   UNK N   1      35.166  13.714   9.786  0.00  0.00     0.138 C 
HETATM   13  N   UNK N   1      33.689  10.029   8.630  0.00  0.00    -0.373 N 
ATOM     14  HN  UNK N   1      34.665   9.761   8.501  1.00  0.00     0.161 HD
HETATM   15  N   UNK N   1      32.145  14.868   7.252  0.00  0.00    -0.361 N 
ATOM     16  HN  UNK N   1      31.773  15.319   6.416  1.00  0.00     0.162 HD
HETATM   17  N   UNK N   1      33.429  15.192  10.387  0.00  0.00    -0.358 N 
ATOM     18  HN  UNK N   1      33.473  15.140  11.405  1.00  0.00     0.162 HD
HETATM   19  N   UNK N   1      34.381  12.857  10.366  0.00  0.00    -0.358 N 
ATOM     20  HN  UNK N   1      33.562  13.274  10.810  1.00  0.00     0.162 HD
HETATM   21  O   UNK N   1      31.220  15.164  10.812  0.00  0.00    -0.348 OA
HETATM   22  H   UNK N   1      30.559  14.941  11.437  0.00  0.00     0.219 HD
ENDROOT
BRANCH   6  23
HETATM   23  C   UNK N   1      32.053  17.069   8.198  0.00  0.00     0.035 C 
BRANCH  23  24
HETATM   24  C   UNK N   1      30.777  17.754   7.766  0.00  0.00     0.025 C 
BRANCH  24  25
HETATM   25  C   UNK N   1      29.877  17.956   8.943  0.00  0.00     0.158 C 
BRANCH  25  26
HETATM   26  N   UNK N   1      28.536  17.657   8.549  0.00  0.00    -0.236 N 
BRANCH  26  27
HETATM   27  C   UNK N   1      28.322  16.893   7.461  0.00  0.00     0.376 C 
HETATM   28  O   UNK N   1      27.193  16.752   7.020  0.00  0.00    -0.281 OA
ENDBRANCH  26  27
BRANCH  26  29
HETATM   29  O   UNK N   1      27.513  18.127   9.267  0.00  0.00    -0.285 OA
HETATM   30  H   UNK N   1      27.114  17.724  10.054  0.00  0.00     0.245 HD
ENDBRANCH  26  29
ENDBRANCH  25  26
ENDBRANCH  24  25
ENDBRANCH  23  24
ENDBRANCH   6  23
BRANCH   8  31
HETATM   31  C   UNK N   1      35.772  16.033  10.469  0.00  0.00     0.144 C 
HETATM   32  C   UNK N   1      35.860  15.702  11.954  0.00  0.00     0.042 C 
BRANCH  31  33
HETATM   33  O   UNK N   1      35.466  17.386  10.330  0.00  0.00    -0.393 OA
HETATM   34  H   UNK N   1      36.044  17.963   9.806  0.00  0.00     0.210 HD
ENDBRANCH  31  33
ENDBRANCH   8  31
BRANCH   9  35
HETATM   35  O   UNK N   1      33.326  13.029   7.913  0.00  0.00    -0.348 OA
HETATM   36  H   UNK N   1      34.041  13.326   8.440  0.00  0.00     0.219 HD
ENDBRANCH   9  35
BRANCH  12  37
HETATM   37  O   UNK N   1      36.297  13.342   9.155  0.00  0.00    -0.348 OA
HETATM   38  H   UNK N   1      36.807  12.778   8.607  0.00  0.00     0.219 HD
ENDBRANCH  12  37
BRANCH   5  39
HETATM   39  N   UNK N   1      31.819  13.895   4.777  0.00  0.00    -0.361 N 
HETATM   40  C   UNK N   1      31.457  13.888   3.543  0.00  0.00     0.135 C 
ATOM     41  HN  UNK N   1      31.123  14.318   5.391  1.00  0.00     0.162 HD
BRANCH  40  42
HETATM   42  C   UNK N   1      30.044  14.366   3.210  0.00  0.00     0.158 C 
BRANCH  42  43
HETATM   43  C   UNK N   1      30.108  15.788   2.654  0.00  0.00     0.035 C 
BRANCH  43  44
HETATM   44  C   UNK N   1      30.617  16.778   3.697  0.00  0.00     0.025 C 
BRANCH  44  45
HETATM   45  C   UNK N   1      31.858  17.507   3.207  0.00  0.00     0.158 C 
BRANCH  45  46
HETATM   46  N   UNK N   1      33.047  16.944   3.780  0.00  0.00    -0.236 N 
BRANCH  46  47
HETATM   47  C   UNK N   1      33.477  17.357   4.991  0.00  0.00     0.376 C 
HETATM   48  O   UNK N   1      34.311  16.720   5.612  0.00  0.00    -0.281 OA
ENDBRANCH  46  47
BRANCH  46  49
HETATM   49  O   UNK N   1      33.706  15.968   3.126  0.00  0.00    -0.285 OA
HETATM   50  H   UNK N   1      33.351  15.234   2.600  0.00  0.00     0.245 HD
ENDBRANCH  46  49
ENDBRANCH  45  46
ENDBRANCH  44  45
ENDBRANCH  43  44
ENDBRANCH  42  43
BRANCH  42  51
HETATM   51  N   UNK N   1      29.121  14.387   4.341  0.00  0.00    -0.361 N 
HETATM   52  C   UNK N   1      27.869  14.052   4.410  0.00  0.00     0.137 C 
ATOM     53  HN  UNK N   1      29.525  14.718   5.217  1.00  0.00     0.162 HD
BRANCH  52  54
HETATM   54  C   UNK N   1      27.078  13.469   3.253  0.00  0.00     0.181 C 
BRANCH  54  55
HETATM   55  C   UNK N   1      26.748  14.476   2.150  0.00  0.00     0.197 C 
BRANCH  55  56
HETATM   56  O   UNK N   1      25.482  14.291   1.596  0.00  0.00    -0.398 OA
HETATM   57  H   UNK N   1      25.038  13.559   1.139  0.00  0.00     0.209 HD
ENDBRANCH  55  56
ENDBRANCH  54  55
BRANCH  54  58
HETATM   58  N   UNK N   1      27.328  12.096   2.833  0.00  0.00    -0.359 N 
HETATM   59  C   UNK N   1      26.679  10.987   2.958  0.00  0.00     0.135 C 
ATOM     60  HN  UNK N   1      28.207  11.989   2.329  1.00  0.00     0.162 HD
BRANCH  59  61
HETATM   61  C   UNK N   1      25.333  10.852   3.605  0.00  0.00     0.158 C 
BRANCH  61  62
HETATM   62  C   UNK N   1      25.442  10.095   4.920  0.00  0.00     0.035 C 
BRANCH  62  63
HETATM   63  C   UNK N   1      24.091   9.825   5.575  0.00  0.00     0.023 C 
BRANCH  63  64
HETATM   64  C   UNK N   1      24.025  10.336   7.003  0.00  0.00     0.138 C 
BRANCH  64  65
HETATM   65  N   UNK N   1      22.866  11.173   7.163  0.00  0.00    -0.227 N 
HETATM   66  C   UNK N   1      22.567  11.797   8.400  0.00  0.00     0.665 C 
HETATM   67  N   UNK N   1      23.294  11.581   9.434  0.00  0.00    -0.235 N 
HETATM   68  N   UNK N   1      21.444  12.647   8.500  0.00  0.00    -0.235 N 
HETATM   69  H   UNK N   1      23.114  11.827  10.370  0.00  0.00     0.174 HD
ATOM     70  HN  UNK N   1      24.173  11.090   9.264  1.00  0.00     0.174 HD
HETATM   71  H   UNK N   1      20.698  12.576   7.861  0.00  0.00     0.174 HD
HETATM   72  H   UNK N   1      21.407  13.318   9.218  0.00  0.00     0.174 HD
HETATM   73  H   UNK N   1      22.266  11.316   6.395  0.00  0.00     0.177 HD
ENDBRANCH  64  65
ENDBRANCH  63  64
ENDBRANCH  62  63
ENDBRANCH  61  62
BRANCH  61  74
HETATM   74  N   UNK N   1      24.445  10.173   2.691  0.00  0.00    -0.361 N 
HETATM   75  C   UNK N   1      23.430  10.685   2.080  0.00  0.00     0.137 C 
ATOM     76  HN  UNK N   1      24.641   9.188   2.508  1.00  0.00     0.162 HD
BRANCH  75  77
HETATM   77  C   UNK N   1      22.918  12.088   2.316  0.00  0.00     0.181 C 
BRANCH  77  78
HETATM   78  C   UNK N   1      21.988  12.473   1.176  0.00  0.00     0.197 C 
BRANCH  78  79
HETATM   79  O   UNK N   1      22.490  13.574   0.479  0.00  0.00    -0.398 OA
HETATM   80  H   UNK N   1      23.077  14.344   0.419  0.00  0.00     0.209 HD
ENDBRANCH  78  79
ENDBRANCH  77  78
BRANCH  77  81
HETATM   81  N   UNK N   1      22.182  12.280   3.568  0.00  0.00    -0.359 N 
HETATM   82  C   UNK N   1      22.318  13.234   4.437  0.00  0.00     0.135 C 
ATOM     83  HN  UNK N   1      21.475  11.578   3.782  1.00  0.00     0.162 HD
BRANCH  82  84
HETATM   84  C   UNK N   1      23.479  14.198   4.409  0.00  0.00     0.163 C 
HETATM   85  C   UNK N   1      24.435  13.820   5.560  0.00  0.00     0.053 C 
HETATM   86  C   UNK N   1      24.191  14.712   6.786  0.00  0.00     0.118 C 
HETATM   87  N   UNK N   1      24.317  16.152   6.482  0.00  0.00    -0.397 N 
HETATM   88  C   UNK N   1      24.236  16.441   5.042  0.00  0.00     0.232 A 
HETATM   89  H   UNK N   1      24.448  16.869   7.194  0.00  0.00     0.155 HD
HETATM   90  C   UNK N   1      24.136  17.934   4.819  0.00  0.00     0.055 A 
HETATM   91  N   UNK N   1      23.175  15.628   4.458  0.00  0.00    -0.341 N 
HETATM   92  C   UNK N   1      23.126  18.465   4.118  0.00  0.00     0.043 A 
HETATM   93  C   UNK N   1      22.089  17.622   3.510  0.00  0.00    -0.005 A 
HETATM   94  C   UNK N   1      21.083  18.204   2.727  0.00  0.00     0.053 A 
HETATM   95  C   UNK N   1      22.112  16.231   3.705  0.00  0.00     0.046 A 
HETATM   96  C   UNK N   1      20.085  17.408   2.152  0.00  0.00     0.099 A 
HETATM   97  C   UNK N   1      20.078  16.032   2.379  0.00  0.00     0.101 A 
HETATM   98  C   UNK N   1      21.085  15.461   3.149  0.00  0.00     0.069 A 
BRANCH  90  99
HETATM   99  N   UNK N   1      25.093  18.794   5.435  0.00  0.00    -0.327 N 
HETATM  100  C   UNK N   1      26.161  19.345   4.790  0.00  0.00     0.222 C 
HETATM  101  O   UNK N   1      26.210  19.399   3.571  0.00  0.00    -0.273 OA
HETATM  102  H   UNK N   1      24.975  19.004   6.390  0.00  0.00     0.168 HD
BRANCH 100 103
HETATM  103  C   UNK N   1      27.313  19.855   5.581  0.00  0.00     0.113 C 
BRANCH 103 104
HETATM  104  C   UNK N   1      27.034  21.315   5.927  0.00  0.00     0.119 C 
BRANCH 104 105
HETATM  105  C   UNK N   1      26.286  21.461   7.219  0.00  0.00     0.139 C 
HETATM  106  O   UNK N   1      25.626  22.463   7.448  0.00  0.00    -0.650 OA
BRANCH 105 107
HETATM  107  O   UNK N   1      26.375  20.493   8.149  0.00  0.00    -0.776 OA
HETATM  108  H   UNK N   1      27.153  20.253   8.615  0.00  0.00     0.167 HD
ENDBRANCH 105 107
ENDBRANCH 104 105
ENDBRANCH 103 104
ENDBRANCH 100 103
ENDBRANCH  90  99
BRANCH  96 109
HETATM  109  O   UNK N   1      19.133  17.969   1.387  0.00  0.00    -0.358 OA
HETATM  110  H   UNK N   1      18.929  17.605   0.548  0.00  0.00     0.217 HD
ENDBRANCH  96 109
BRANCH  97 111
HETATM  111  O   UNK N   1      19.114  15.254   1.858  0.00  0.00    -0.358 OA
HETATM  112  H   UNK N   1      18.201  15.422   1.984  0.00  0.00     0.217 HD
ENDBRANCH  97 111
ENDBRANCH  82  84
BRANCH  82 113
HETATM  113  O   UNK N   1      21.425  13.320   5.444  0.00  0.00    -0.348 OA
HETATM  114  H   UNK N   1      20.649  13.373   5.965  0.00  0.00     0.219 HD
ENDBRANCH  82 113
ENDBRANCH  77  81
ENDBRANCH  75  77
BRANCH  75 115
HETATM  115  O   UNK N   1      22.762   9.917   1.197  0.00  0.00    -0.348 OA
HETATM  116  H   UNK N   1      22.403   9.534   0.421  0.00  0.00     0.219 HD
ENDBRANCH  75 115
ENDBRANCH  61  74
ENDBRANCH  59  61
BRANCH  59 117
HETATM  117  O   UNK N   1      27.259   9.867   2.486  0.00  0.00    -0.348 OA
HETATM  118  H   UNK N   1      27.240   9.069   1.994  0.00  0.00     0.219 HD
ENDBRANCH  59 117
ENDBRANCH  54  58
ENDBRANCH  52  54
BRANCH  52 119
HETATM  119  O   UNK N   1      27.249  14.183   5.599  0.00  0.00    -0.348 OA
HETATM  120  H   UNK N   1      26.475  14.648   5.849  0.00  0.00     0.219 HD
ENDBRANCH  52 119
ENDBRANCH  42  51
ENDBRANCH  40  42
BRANCH  40 121
HETATM  121  O   UNK N   1      32.268  13.393   2.586  0.00  0.00    -0.348 OA
HETATM  122  H   UNK N   1      33.196  13.521   2.590  0.00  0.00     0.219 HD
ENDBRANCH  40 121
ENDBRANCH   5  39
BRANCH   7 123
HETATM  123  C   UNK N   1      35.870  10.834  10.292  0.00  0.00     0.144 C 
HETATM  124  C   UNK N   1      35.877   9.345  10.584  0.00  0.00     0.042 C 
BRANCH 123 125
HETATM  125  O   UNK N   1      36.760  11.455  11.172  0.00  0.00    -0.393 OA
HETATM  126  H   UNK N   1      37.298  12.217  10.907  0.00  0.00     0.210 HD
ENDBRANCH 123 125
ENDBRANCH   7 123
BRANCH  11 127
HETATM  127  O   UNK N   1      32.101  11.224   9.770  0.00  0.00    -0.348 OA
HETATM  128  H   UNK N   1      31.230  11.155   9.431  0.00  0.00     0.219 HD
ENDBRANCH  11 127
TORSDOF 49
ENDMDL
MODEL 3
REMARK VINA RESULT:      -7.2      2.730     12.241
REMARK WARNING: 32 MAX_TORS EXCEEDED!!!
REMARK  49 active torsions:
REMARK  status: ('A' for Active; 'I' for Inactive)
REMARK    1  A    between atoms: C_9  and  C_5 
REMARK    2  A    between atoms: C_16  and  C_5 
REMARK    3  A    between atoms: C_10  and  C_6 
REMARK    4  A    between atoms: C_18  and  C_6 
REMARK    5  A    between atoms: C_11  and  C_7 
REMARK    6  A    between atoms: C_19  and  C_7 
REMARK    7  A    between atoms: C_31  and  C_9 
REMARK    8  A    between atoms: C_32  and  C_10 
REMARK    9  A    between atoms: C_33  and  C_11 
REMARK   10  A    between atoms: C_13  and  C_12 
REMARK   11  A    between atoms: C_41  and  C_12 
REMARK   12  A    between atoms: C_42  and  C_13 
REMARK   13  A    between atoms: N_62  and  C_16 
REMARK   14  A    between atoms: N_80  and  C_18 
REMARK   15  A    between atoms: N_81  and  C_19 
REMARK   16  A    between atoms: C_35  and  C_23 
REMARK   17  A    between atoms: O_83  and  C_23 
REMARK   18  A    between atoms: C_36  and  C_24 
REMARK   19  A    between atoms: O_84  and  C_24 
REMARK   20  A    between atoms: N_80  and  C_25 
REMARK   21  A    between atoms: N_81  and  C_26 
REMARK   22  A    between atoms: C_43  and  C_27 
REMARK   23  A    between atoms: C_27  and  O_87 
REMARK   24  A    between atoms: C_44  and  C_28 
REMARK   25  A    between atoms: C_28  and  O_88 
REMARK   26  A    between atoms: C_30  and  N_64 
REMARK   27  A    between atoms: C_48  and  C_31 
REMARK   28  A    between atoms: C_31  and  N_68 
REMARK   29  A    between atoms: C_47  and  C_32 
REMARK   30  A    between atoms: C_32  and  N_70 
REMARK   31  A    between atoms: N_63  and  C_34 
REMARK   32  A    between atoms: C_50  and  C_35 
REMARK   33  A    between atoms: C_35  and  N_72 
REMARK   34  A    between atoms: C_51  and  C_36 
REMARK   35  A    between atoms: C_36  and  N_74 
REMARK   36  A    between atoms: C_52  and  C_37 
REMARK   37  A    between atoms: O_89  and  C_39 
REMARK   38  A    between atoms: O_90  and  C_40 
REMARK       I    between atoms: N_63  and  C_41 
REMARK   39  A    between atoms: O_93  and  C_42 
REMARK   40  A    between atoms: C_46  and  O_94 
REMARK   41  A    between atoms: C_47  and  O_95 
REMARK   42  A    between atoms: C_48  and  O_96 
REMARK   43  A    between atoms: C_50  and  O_98 
REMARK   44  A    between atoms: C_51  and  O_99 
REMARK   45  A    between atoms: C_52  and  O_100 
REMARK   46  A    between atoms: O_101  and  C_53 
REMARK   47  A    between atoms: C_54  and  O_102 
REMARK       I    between atoms: N_58  and  C_55 
REMARK       I    between atoms: N_62  and  C_55 
REMARK   48  A    between atoms: O_103  and  N_80 
REMARK   49  A    between atoms: O_104  and  N_81 
ROOT
HETATM    1  C   UNK N   1      24.171  14.158   1.742  0.00  0.00     0.004 C 
HETATM    2  C   UNK N   1      23.647  13.564   0.453  0.00  0.00     0.020 C 
HETATM    3  C   UNK N   1      25.392  13.374   2.189  0.00  0.00     0.033 C 
HETATM    4  C   UNK N   1      22.174  13.222   0.602  0.00  0.00     0.121 C 
HETATM    5  C   UNK N   1      25.499  13.299   3.715  0.00  0.00     0.158 C 
HETATM    6  C   UNK N   1      23.185  12.410   6.694  0.00  0.00     0.158 C 
HETATM    7  C   UNK N   1      21.217   9.977   2.336  0.00  0.00     0.186 C 
HETATM    8  C   UNK N   1      23.200   9.385   5.548  0.00  0.00     0.186 C 
HETATM    9  C   UNK N   1      24.292  12.657   4.395  0.00  0.00     0.135 C 
HETATM   10  C   UNK N   1      22.037  11.388   6.532  0.00  0.00     0.135 C 
HETATM   11  C   UNK N   1      21.343  11.449   1.981  0.00  0.00     0.137 C 
HETATM   12  C   UNK N   1      22.869   9.275   4.085  0.00  0.00     0.138 C 
HETATM   13  N   UNK N   1      22.014  11.827   0.946  0.00  0.00    -0.373 N 
ATOM     14  HN  UNK N   1      22.446  11.120   0.351  1.00  0.00     0.161 HD
HETATM   15  N   UNK N   1      24.122  12.859   5.658  0.00  0.00    -0.361 N 
ATOM     16  HN  UNK N   1      24.821  13.499   6.035  1.00  0.00     0.162 HD
HETATM   17  N   UNK N   1      22.117  10.152   6.141  0.00  0.00    -0.358 N 
ATOM     18  HN  UNK N   1      21.257   9.619   6.277  1.00  0.00     0.162 HD
HETATM   19  N   UNK N   1      21.767   9.821   3.667  0.00  0.00    -0.358 N 
ATOM     20  HN  UNK N   1      21.184  10.209   4.409  1.00  0.00     0.162 HD
HETATM   21  O   UNK N   1      20.820  11.812   6.930  0.00  0.00    -0.348 OA
HETATM   22  H   UNK N   1      19.940  12.105   7.064  0.00  0.00     0.219 HD
ENDROOT
BRANCH   6  23
HETATM   23  C   UNK N   1      24.007  12.030   7.905  0.00  0.00     0.035 C 
BRANCH  23  24
HETATM   24  C   UNK N   1      23.503  12.769   9.123  0.00  0.00     0.025 C 
BRANCH  24  25
HETATM   25  C   UNK N   1      23.051  11.796  10.165  0.00  0.00     0.158 C 
BRANCH  25  26
HETATM   26  N   UNK N   1      23.775  12.050  11.371  0.00  0.00    -0.236 N 
BRANCH  26  27
HETATM   27  C   UNK N   1      23.167  11.868  12.558  0.00  0.00     0.376 C 
HETATM   28  O   UNK N   1      23.742  12.153  13.595  0.00  0.00    -0.281 OA
ENDBRANCH  26  27
BRANCH  26  29
HETATM   29  O   UNK N   1      25.046  12.454  11.308  0.00  0.00    -0.285 OA
HETATM   30  H   UNK N   1      25.828  11.983  11.636  0.00  0.00     0.245 HD
ENDBRANCH  26  29
ENDBRANCH  25  26
ENDBRANCH  24  25
ENDBRANCH  23  24
ENDBRANCH   6  23
BRANCH   8  31
HETATM   31  C   UNK N   1      23.308   7.964   6.159  0.00  0.00     0.144 C 
HETATM   32  C   UNK N   1      21.994   7.199   6.066  0.00  0.00     0.042 C 
BRANCH  31  33
HETATM   33  O   UNK N   1      23.696   8.026   7.497  0.00  0.00    -0.393 OA
HETATM   34  H   UNK N   1      24.342   8.691   7.784  0.00  0.00     0.210 HD
ENDBRANCH  31  33
ENDBRANCH   8  31
BRANCH   9  35
HETATM   35  O   UNK N   1      23.455  11.896   3.697  0.00  0.00    -0.348 OA
HETATM   36  H   UNK N   1      23.553  11.789   2.771  0.00  0.00     0.219 HD
ENDBRANCH   9  35
BRANCH  12  37
HETATM   37  O   UNK N   1      23.755   8.706   3.245  0.00  0.00    -0.348 OA
HETATM   38  H   UNK N   1      24.132   8.551   2.401  0.00  0.00     0.219 HD
ENDBRANCH  12  37
BRANCH   5  39
HETATM   39  N   UNK N   1      25.759  14.556   4.386  0.00  0.00    -0.361 N 
HETATM   40  C   UNK N   1      26.763  15.044   5.024  0.00  0.00     0.135 C 
ATOM     41  HN  UNK N   1      24.967  15.198   4.343  1.00  0.00     0.162 HD
BRANCH  40  42
HETATM   42  C   UNK N   1      26.678  16.499   5.485  0.00  0.00     0.158 C 
BRANCH  42  43
HETATM   43  C   UNK N   1      25.255  17.016   5.273  0.00  0.00     0.035 C 
BRANCH  43  44
HETATM   44  C   UNK N   1      25.199  18.073   4.174  0.00  0.00     0.025 C 
BRANCH  44  45
HETATM   45  C   UNK N   1      23.771  18.536   3.927  0.00  0.00     0.158 C 
BRANCH  45  46
HETATM   46  N   UNK N   1      23.748  19.864   3.381  0.00  0.00    -0.236 N 
BRANCH  46  47
HETATM   47  C   UNK N   1      24.898  20.467   3.015  0.00  0.00     0.376 C 
HETATM   48  O   UNK N   1      25.095  20.796   1.858  0.00  0.00    -0.281 OA
ENDBRANCH  46  47
BRANCH  46  49
HETATM   49  O   UNK N   1      22.569  20.486   3.190  0.00  0.00    -0.285 OA
HETATM   50  H   UNK N   1      21.669  20.155   3.339  0.00  0.00     0.245 HD
ENDBRANCH  46  49
ENDBRANCH  45  46
ENDBRANCH  44  45
ENDBRANCH  43  44
ENDBRANCH  42  43
BRANCH  42  51
HETATM   51  N   UNK N   1      27.576  17.416   4.790  0.00  0.00    -0.361 N 
HETATM   52  C   UNK N   1      28.693  17.953   5.177  0.00  0.00     0.137 C 
ATOM     53  HN  UNK N   1      27.279  17.676   3.849  1.00  0.00     0.162 HD
BRANCH  52  54
HETATM   54  C   UNK N   1      29.363  17.661   6.507  0.00  0.00     0.181 C 
BRANCH  54  55
HETATM   55  C   UNK N   1      28.688  18.325   7.708  0.00  0.00     0.197 C 
BRANCH  55  56
HETATM   56  O   UNK N   1      27.667  19.205   7.349  0.00  0.00    -0.398 OA
HETATM   57  H   UNK N   1      26.894  19.150   6.766  0.00  0.00     0.209 HD
ENDBRANCH  55  56
ENDBRANCH  54  55
BRANCH  54  58
HETATM   58  N   UNK N   1      29.964  16.352   6.735  0.00  0.00    -0.359 N 
HETATM   59  C   UNK N   1      31.152  15.870   6.579  0.00  0.00     0.135 C 
ATOM     60  HN  UNK N   1      29.300  15.668   7.097  1.00  0.00     0.162 HD
BRANCH  59  61
HETATM   61  C   UNK N   1      32.340  16.658   6.115  0.00  0.00     0.158 C 
BRANCH  61  62
HETATM   62  C   UNK N   1      32.675  17.761   7.108  0.00  0.00     0.035 C 
BRANCH  62  63
HETATM   63  C   UNK N   1      34.163  17.849   7.432  0.00  0.00     0.023 C 
BRANCH  63  64
HETATM   64  C   UNK N   1      34.556  16.970   8.607  0.00  0.00     0.138 C 
BRANCH  64  65
HETATM   65  N   UNK N   1      33.395  16.693   9.410  0.00  0.00    -0.227 N 
HETATM   66  C   UNK N   1      32.974  15.364   9.670  0.00  0.00     0.665 C 
HETATM   67  N   UNK N   1      33.586  14.369   9.143  0.00  0.00    -0.235 N 
HETATM   68  N   UNK N   1      31.855  15.137  10.501  0.00  0.00    -0.235 N 
HETATM   69  H   UNK N   1      33.312  13.423   9.121  0.00  0.00     0.174 HD
ATOM     70  HN  UNK N   1      34.474  14.585   8.685  1.00  0.00     0.174 HD
HETATM   71  H   UNK N   1      31.180  15.839  10.643  0.00  0.00     0.174 HD
HETATM   72  H   UNK N   1      31.750  14.264  10.943  0.00  0.00     0.174 HD
HETATM   73  H   UNK N   1      32.881  17.443   9.788  0.00  0.00     0.177 HD
ENDBRANCH  64  65
ENDBRANCH  63  64
ENDBRANCH  62  63
ENDBRANCH  61  62
BRANCH  61  74
HETATM   74  N   UNK N   1      32.050  17.208   4.812  0.00  0.00    -0.361 N 
HETATM   75  C   UNK N   1      31.900  16.548   3.713  0.00  0.00     0.137 C 
ATOM     76  HN  UNK N   1      31.952  18.222   4.754  1.00  0.00     0.162 HD
BRANCH  75  77
HETATM   77  C   UNK N   1      32.124  15.059   3.582  0.00  0.00     0.181 C 
BRANCH  77  78
HETATM   78  C   UNK N   1      31.034  14.470   2.700  0.00  0.00     0.197 C 
BRANCH  78  79
HETATM   79  O   UNK N   1      29.789  15.014   3.025  0.00  0.00    -0.398 OA
HETATM   80  H   UNK N   1      29.211  15.777   3.178  0.00  0.00     0.209 HD
ENDBRANCH  78  79
ENDBRANCH  77  78
BRANCH  77  81
HETATM   81  N   UNK N   1      33.413  14.670   3.004  0.00  0.00    -0.359 N 
HETATM   82  C   UNK N   1      34.413  14.093   3.596  0.00  0.00     0.135 C 
ATOM     83  HN  UNK N   1      33.539  14.880   2.015  1.00  0.00     0.162 HD
BRANCH  82  84
HETATM   84  C   UNK N   1      34.497  13.951   5.096  0.00  0.00     0.163 C 
HETATM   85  C   UNK N   1      35.585  14.920   5.602  0.00  0.00     0.053 C 
HETATM   86  C   UNK N   1      36.914  14.180   5.820  0.00  0.00     0.118 C 
HETATM   87  N   UNK N   1      36.790  13.037   6.747  0.00  0.00    -0.397 N 
HETATM   88  C   UNK N   1      35.396  12.602   6.933  0.00  0.00     0.232 A 
HETATM   89  H   UNK N   1      37.584  12.597   7.210  0.00  0.00     0.155 HD
HETATM   90  C   UNK N   1      35.360  11.297   7.697  0.00  0.00     0.055 A 
HETATM   91  N   UNK N   1      34.724  12.612   5.639  0.00  0.00    -0.341 N 
HETATM   92  C   UNK N   1      34.737  10.219   7.202  0.00  0.00     0.043 A 
HETATM   93  C   UNK N   1      34.036  10.265   5.913  0.00  0.00    -0.005 A 
HETATM   94  C   UNK N   1      33.338   9.140   5.455  0.00  0.00     0.053 A 
HETATM   95  C   UNK N   1      34.058  11.440   5.144  0.00  0.00     0.046 A 
HETATM   96  C   UNK N   1      32.676   9.172   4.222  0.00  0.00     0.099 A 
HETATM   97  C   UNK N   1      32.732  10.322   3.434  0.00  0.00     0.101 A 
HETATM   98  C   UNK N   1      33.418  11.437   3.899  0.00  0.00     0.069 A 
BRANCH  90  99
HETATM   99  N   UNK N   1      36.071  11.193   8.930  0.00  0.00    -0.327 N 
HETATM  100  C   UNK N   1      35.555  11.528  10.148  0.00  0.00     0.222 C 
HETATM  101  O   UNK N   1      34.352  11.646  10.318  0.00  0.00    -0.273 OA
HETATM  102  H   UNK N   1      36.996  10.858   8.900  0.00  0.00     0.168 HD
BRANCH 100 103
HETATM  103  C   UNK N   1      36.474  11.797  11.286  0.00  0.00     0.113 C 
BRANCH 103 104
HETATM  104  C   UNK N   1      36.650  13.309  11.399  0.00  0.00     0.119 C 
BRANCH 104 105
HETATM  105  C   UNK N   1      35.744  13.912  12.430  0.00  0.00     0.139 C 
HETATM  106  O   UNK N   1      36.199  14.391  13.457  0.00  0.00    -0.650 OA
BRANCH 105 107
HETATM  107  O   UNK N   1      34.413  13.888  12.237  0.00  0.00    -0.776 OA
HETATM  108  H   UNK N   1      33.981  13.664  11.435  0.00  0.00     0.167 HD
ENDBRANCH 105 107
ENDBRANCH 104 105
ENDBRANCH 103 104
ENDBRANCH 100 103
ENDBRANCH  90  99
BRANCH  96 109
HETATM  109  O   UNK N   1      31.993   8.096   3.796  0.00  0.00    -0.358 OA
HETATM  110  H   UNK N   1      32.334   7.235   3.940  0.00  0.00     0.217 HD
ENDBRANCH  96 109
BRANCH  97 111
HETATM  111  O   UNK N   1      32.125  10.364   2.236  0.00  0.00    -0.358 OA
HETATM  112  H   UNK N   1      32.262  11.057   1.620  0.00  0.00     0.217 HD
ENDBRANCH  97 111
ENDBRANCH  82  84
BRANCH  82 113
HETATM  113  O   UNK N   1      35.449  13.670   2.843  0.00  0.00    -0.348 OA
HETATM  114  H   UNK N   1      36.164  13.192   2.472  0.00  0.00     0.219 HD
ENDBRANCH  82 113
ENDBRANCH  77  81
ENDBRANCH  75  77
BRANCH  75 115
HETATM  115  O   UNK N   1      31.551  17.226   2.602  0.00  0.00    -0.348 OA
HETATM  116  H   UNK N   1      31.199  17.485   1.774  0.00  0.00     0.219 HD
ENDBRANCH  75 115
ENDBRANCH  61  74
ENDBRANCH  59  61
BRANCH  59 117
HETATM  117  O   UNK N   1      31.335  14.562   6.840  0.00  0.00    -0.348 OA
HETATM  118  H   UNK N   1      31.763  13.741   6.693  0.00  0.00     0.219 HD
ENDBRANCH  59 117
ENDBRANCH  54  58
ENDBRANCH  52  54
BRANCH  52 119
HETATM  119  O   UNK N   1      29.320  18.784   4.320  0.00  0.00    -0.348 OA
HETATM  120  H   UNK N   1      30.198  18.792   3.993  0.00  0.00     0.219 HD
ENDBRANCH  52 119
ENDBRANCH  42  51
ENDBRANCH  40  42
BRANCH  40 121
HETATM  121  O   UNK N   1      27.887  14.322   5.203  0.00  0.00    -0.348 OA
HETATM  122  H   UNK N   1      28.095  13.568   4.687  0.00  0.00     0.219 HD
ENDBRANCH  40 121
ENDBRANCH   5  39
BRANCH   7 123
HETATM  123  C   UNK N   1      21.789   9.000   1.292  0.00  0.00     0.144 C 
HETATM  124  C   UNK N   1      21.066   9.153  -0.033  0.00  0.00     0.042 C 
BRANCH 123 125
HETATM  125  O   UNK N   1      21.611   7.687   1.736  0.00  0.00    -0.393 OA
HETATM  126  H   UNK N   1      21.423   7.479   2.665  0.00  0.00     0.210 HD
ENDBRANCH 123 125
ENDBRANCH   7 123
BRANCH  11 127
HETATM  127  O   UNK N   1      20.776  12.366   2.797  0.00  0.00    -0.348 OA
HETATM  128  H   UNK N   1      20.793  13.266   3.059  0.00  0.00     0.219 HD
ENDBRANCH  11 127
TORSDOF 49
ENDMDL
MODEL 4
REMARK VINA RESULT:      -7.1      2.798     13.242
REMARK WARNING: 32 MAX_TORS EXCEEDED!!!
REMARK  49 active torsions:
REMARK  status: ('A' for Active; 'I' for Inactive)
REMARK    1  A    between atoms: C_9  and  C_5 
REMARK    2  A    between atoms: C_16  and  C_5 
REMARK    3  A    between atoms: C_10  and  C_6 
REMARK    4  A    between atoms: C_18  and  C_6 
REMARK    5  A    between atoms: C_11  and  C_7 
REMARK    6  A    between atoms: C_19  and  C_7 
REMARK    7  A    between atoms: C_31  and  C_9 
REMARK    8  A    between atoms: C_32  and  C_10 
REMARK    9  A    between atoms: C_33  and  C_11 
REMARK   10  A    between atoms: C_13  and  C_12 
REMARK   11  A    between atoms: C_41  and  C_12 
REMARK   12  A    between atoms: C_42  and  C_13 
REMARK   13  A    between atoms: N_62  and  C_16 
REMARK   14  A    between atoms: N_80  and  C_18 
REMARK   15  A    between atoms: N_81  and  C_19 
REMARK   16  A    between atoms: C_35  and  C_23 
REMARK   17  A    between atoms: O_83  and  C_23 
REMARK   18  A    between atoms: C_36  and  C_24 
REMARK   19  A    between atoms: O_84  and  C_24 
REMARK   20  A    between atoms: N_80  and  C_25 
REMARK   21  A    between atoms: N_81  and  C_26 
REMARK   22  A    between atoms: C_43  and  C_27 
REMARK   23  A    between atoms: C_27  and  O_87 
REMARK   24  A    between atoms: C_44  and  C_28 
REMARK   25  A    between atoms: C_28  and  O_88 
REMARK   26  A    between atoms: C_30  and  N_64 
REMARK   27  A    between atoms: C_48  and  C_31 
REMARK   28  A    between atoms: C_31  and  N_68 
REMARK   29  A    between atoms: C_47  and  C_32 
REMARK   30  A    between atoms: C_32  and  N_70 
REMARK   31  A    between atoms: N_63  and  C_34 
REMARK   32  A    between atoms: C_50  and  C_35 
REMARK   33  A    between atoms: C_35  and  N_72 
REMARK   34  A    between atoms: C_51  and  C_36 
REMARK   35  A    between atoms: C_36  and  N_74 
REMARK   36  A    between atoms: C_52  and  C_37 
REMARK   37  A    between atoms: O_89  and  C_39 
REMARK   38  A    between atoms: O_90  and  C_40 
REMARK       I    between atoms: N_63  and  C_41 
REMARK   39  A    between atoms: O_93  and  C_42 
REMARK   40  A    between atoms: C_46  and  O_94 
REMARK   41  A    between atoms: C_47  and  O_95 
REMARK   42  A    between atoms: C_48  and  O_96 
REMARK   43  A    between atoms: C_50  and  O_98 
REMARK   44  A    between atoms: C_51  and  O_99 
REMARK   45  A    between atoms: C_52  and  O_100 
REMARK   46  A    between atoms: O_101  and  C_53 
REMARK   47  A    between atoms: C_54  and  O_102 
REMARK       I    between atoms: N_58  and  C_55 
REMARK       I    between atoms: N_62  and  C_55 
REMARK   48  A    between atoms: O_103  and  N_80 
REMARK   49  A    between atoms: O_104  and  N_81 
ROOT
HETATM    1  C   UNK N   1      25.657  12.554   5.418  0.00  0.00     0.004 C 
HETATM    2  C   UNK N   1      25.179  11.118   5.441  0.00  0.00     0.020 C 
HETATM    3  C   UNK N   1      25.183  13.254   6.680  0.00  0.00     0.033 C 
HETATM    4  C   UNK N   1      24.414  10.807   4.165  0.00  0.00     0.121 C 
HETATM    5  C   UNK N   1      24.869  14.733   6.431  0.00  0.00     0.158 C 
HETATM    6  C   UNK N   1      22.845  16.827   3.875  0.00  0.00     0.158 C 
HETATM    7  C   UNK N   1      20.776  11.878   3.909  0.00  0.00     0.186 C 
HETATM    8  C   UNK N   1      20.203  15.450   5.136  0.00  0.00     0.186 C 
HETATM    9  C   UNK N   1      23.802  14.975   5.368  0.00  0.00     0.135 C 
HETATM   10  C   UNK N   1      21.587  16.248   3.191  0.00  0.00     0.135 C 
HETATM   11  C   UNK N   1      22.262  11.715   3.639  0.00  0.00     0.137 C 
HETATM   12  C   UNK N   1      20.268  13.950   5.223  0.00  0.00     0.138 C 
HETATM   13  N   UNK N   1      22.993  10.957   4.383  0.00  0.00    -0.373 N 
ATOM     14  HN  UNK N   1      22.555  10.445   5.149  1.00  0.00     0.161 HD
HETATM   15  N   UNK N   1      23.718  16.150   4.841  0.00  0.00    -0.361 N 
ATOM     16  HN  UNK N   1      24.451  16.770   5.184  1.00  0.00     0.162 HD
HETATM   17  N   UNK N   1      20.514  15.780   3.755  0.00  0.00    -0.358 N 
ATOM     18  HN  UNK N   1      19.745  15.613   3.106  1.00  0.00     0.162 HD
HETATM   19  N   UNK N   1      20.546  13.289   4.140  0.00  0.00    -0.358 N 
ATOM     20  HN  UNK N   1      20.614  13.867   3.302  1.00  0.00     0.162 HD
HETATM   21  O   UNK N   1      21.571  16.319   1.844  0.00  0.00    -0.348 OA
HETATM   22  H   UNK N   1      21.575  16.224   0.912  0.00  0.00     0.219 HD
ENDROOT
BRANCH   6  23
HETATM   23  C   UNK N   1      22.502  18.181   4.457  0.00  0.00     0.035 C 
BRANCH  23  24
HETATM   24  C   UNK N   1      22.385  19.203   3.350  0.00  0.00     0.025 C 
BRANCH  24  25
HETATM   25  C   UNK N   1      21.005  19.780   3.326  0.00  0.00     0.158 C 
BRANCH  25  26
HETATM   26  N   UNK N   1      20.531  19.772   1.977  0.00  0.00    -0.236 N 
BRANCH  26  27
HETATM   27  C   UNK N   1      20.750  20.844   1.193  0.00  0.00     0.376 C 
HETATM   28  O   UNK N   1      21.097  20.698   0.033  0.00  0.00    -0.281 OA
ENDBRANCH  26  27
BRANCH  26  29
HETATM   29  O   UNK N   1      19.888  18.700   1.507  0.00  0.00    -0.285 OA
HETATM   30  H   UNK N   1      20.054  17.771   1.730  0.00  0.00     0.245 HD
ENDBRANCH  26  29
ENDBRANCH  25  26
ENDBRANCH  24  25
ENDBRANCH  23  24
ENDBRANCH   6  23
BRANCH   8  31
HETATM   31  C   UNK N   1      18.786  15.929   5.542  0.00  0.00     0.144 C 
HETATM   32  C   UNK N   1      18.726  16.370   7.000  0.00  0.00     0.042 C 
BRANCH  31  33
HETATM   33  O   UNK N   1      17.843  14.922   5.341  0.00  0.00    -0.393 OA
HETATM   34  H   UNK N   1      16.900  15.108   5.473  0.00  0.00     0.210 HD
ENDBRANCH  31  33
ENDBRANCH   8  31
BRANCH   9  35
HETATM   35  O   UNK N   1      22.973  13.998   5.013  0.00  0.00    -0.348 OA
HETATM   36  H   UNK N   1      23.165  13.103   5.213  0.00  0.00     0.219 HD
ENDBRANCH   9  35
BRANCH  12  37
HETATM   37  O   UNK N   1      20.132  13.348   6.420  0.00  0.00    -0.348 OA
HETATM   38  H   UNK N   1      19.656  13.110   7.191  0.00  0.00     0.219 HD
ENDBRANCH  12  37
BRANCH   5  39
HETATM   39  N   UNK N   1      26.007  15.567   6.104  0.00  0.00    -0.361 N 
HETATM   40  C   UNK N   1      26.860  16.236   6.795  0.00  0.00     0.135 C 
ATOM     41  HN  UNK N   1      26.167  15.640   5.100  1.00  0.00     0.162 HD
BRANCH  40  42
HETATM   42  C   UNK N   1      28.018  16.901   6.052  0.00  0.00     0.158 C 
BRANCH  42  43
HETATM   43  C   UNK N   1      27.480  17.625   4.818  0.00  0.00     0.035 C 
BRANCH  43  44
HETATM   44  C   UNK N   1      28.294  18.875   4.500  0.00  0.00     0.025 C 
BRANCH  44  45
HETATM   45  C   UNK N   1      27.417  19.973   3.919  0.00  0.00     0.158 C 
BRANCH  45  46
HETATM   46  N   UNK N   1      26.495  20.470   4.901  0.00  0.00    -0.236 N 
BRANCH  46  47
HETATM   47  C   UNK N   1      26.945  20.892   6.101  0.00  0.00     0.376 C 
HETATM   48  O   UNK N   1      27.343  22.034   6.257  0.00  0.00    -0.281 OA
ENDBRANCH  46  47
BRANCH  46  49
HETATM   49  O   UNK N   1      25.184  20.558   4.601  0.00  0.00    -0.285 OA
HETATM   50  H   UNK N   1      24.427  20.132   5.031  0.00  0.00     0.245 HD
ENDBRANCH  46  49
ENDBRANCH  45  46
ENDBRANCH  44  45
ENDBRANCH  43  44
ENDBRANCH  42  43
BRANCH  42  51
HETATM   51  N   UNK N   1      29.059  15.985   5.592  0.00  0.00    -0.361 N 
HETATM   52  C   UNK N   1      30.321  15.932   5.888  0.00  0.00     0.137 C 
ATOM     53  HN  UNK N   1      28.742  15.273   4.933  1.00  0.00     0.162 HD
BRANCH  52  54
HETATM   54  C   UNK N   1      31.000  16.842   6.894  0.00  0.00     0.181 C 
BRANCH  54  55
HETATM   55  C   UNK N   1      30.799  16.424   8.352  0.00  0.00     0.197 C 
BRANCH  55  56
HETATM   56  O   UNK N   1      31.070  17.446   9.261  0.00  0.00    -0.398 OA
HETATM   57  H   UNK N   1      30.528  17.996   9.849  0.00  0.00     0.209 HD
ENDBRANCH  55  56
ENDBRANCH  54  55
BRANCH  54  58
HETATM   58  N   UNK N   1      32.280  17.455   6.560  0.00  0.00    -0.359 N 
HETATM   59  C   UNK N   1      33.491  17.013   6.472  0.00  0.00     0.135 C 
ATOM     60  HN  UNK N   1      32.202  18.449   6.348  1.00  0.00     0.162 HD
BRANCH  59  61
HETATM   61  C   UNK N   1      33.896  15.584   6.675  0.00  0.00     0.158 C 
BRANCH  61  62
HETATM   62  C   UNK N   1      34.501  15.389   8.058  0.00  0.00     0.035 C 
BRANCH  62  63
HETATM   63  C   UNK N   1      33.750  14.366   8.905  0.00  0.00     0.023 C 
BRANCH  63  64
HETATM   64  C   UNK N   1      33.413  14.892  10.290  0.00  0.00     0.138 C 
BRANCH  64  65
HETATM   65  N   UNK N   1      34.497  14.606  11.191  0.00  0.00    -0.227 N 
HETATM   66  C   UNK N   1      35.380  15.622  11.635  0.00  0.00     0.665 C 
HETATM   67  N   UNK N   1      35.272  16.821  11.193  0.00  0.00    -0.235 N 
HETATM   68  N   UNK N   1      36.403  15.305  12.555  0.00  0.00    -0.235 N 
HETATM   69  H   UNK N   1      35.900  17.572  11.302  0.00  0.00     0.174 HD
ATOM     70  HN  UNK N   1      34.426  17.023  10.659  1.00  0.00     0.174 HD
HETATM   71  H   UNK N   1      36.725  14.380  12.653  0.00  0.00     0.174 HD
HETATM   72  H   UNK N   1      36.799  16.019  13.104  0.00  0.00     0.174 HD
HETATM   73  H   UNK N   1      34.629  13.682  11.507  0.00  0.00     0.177 HD
ENDBRANCH  64  65
ENDBRANCH  63  64
ENDBRANCH  62  63
ENDBRANCH  61  62
BRANCH  61  74
HETATM   74  N   UNK N   1      34.838  15.219   5.644  0.00  0.00    -0.361 N 
HETATM   75  C   UNK N   1      35.115  14.024   5.244  0.00  0.00     0.137 C 
ATOM     76  HN  UNK N   1      35.334  15.983   5.184  1.00  0.00     0.162 HD
BRANCH  75  77
HETATM   77  C   UNK N   1      34.572  12.767   5.885  0.00  0.00     0.181 C 
BRANCH  77  78
HETATM   78  C   UNK N   1      33.328  12.325   5.130  0.00  0.00     0.197 C 
BRANCH  78  79
HETATM   79  O   UNK N   1      33.018  13.232   4.114  0.00  0.00    -0.398 OA
HETATM   80  H   UNK N   1      32.627  13.437   3.251  0.00  0.00     0.209 HD
ENDBRANCH  78  79
ENDBRANCH  77  78
BRANCH  77  81
HETATM   81  N   UNK N   1      35.496  11.631   5.912  0.00  0.00    -0.359 N 
HETATM   82  C   UNK N   1      36.063  11.086   6.943  0.00  0.00     0.135 C 
ATOM     83  HN  UNK N   1      35.720  11.217   5.007  1.00  0.00     0.162 HD
BRANCH  82  84
HETATM   84  C   UNK N   1      36.049  11.725   8.310  0.00  0.00     0.163 C 
HETATM   85  C   UNK N   1      37.503  12.086   8.678  0.00  0.00     0.053 C 
HETATM   86  C   UNK N   1      38.118  11.011   9.585  0.00  0.00     0.118 C 
HETATM   87  N   UNK N   1      37.334  10.778  10.814  0.00  0.00    -0.397 N 
HETATM   88  C   UNK N   1      35.959  11.297  10.721  0.00  0.00     0.232 A 
HETATM   89  H   UNK N   1      37.703  10.309  11.640  0.00  0.00     0.155 HD
HETATM   90  C   UNK N   1      35.147  10.824  11.906  0.00  0.00     0.055 A 
HETATM   91  N   UNK N   1      35.425  10.978   9.402  0.00  0.00    -0.341 N 
HETATM   92  C   UNK N   1      33.999  10.154  11.738  0.00  0.00     0.043 A 
HETATM   93  C   UNK N   1      33.463   9.877  10.399  0.00  0.00    -0.005 A 
HETATM   94  C   UNK N   1      32.226   9.233  10.258  0.00  0.00     0.053 A 
HETATM   95  C   UNK N   1      34.186  10.267   9.260  0.00  0.00     0.046 A 
HETATM   96  C   UNK N   1      31.714   8.956   8.986  0.00  0.00     0.099 A 
HETATM   97  C   UNK N   1      32.449   9.301   7.852  0.00  0.00     0.101 A 
HETATM   98  C   UNK N   1      33.670   9.948   7.998  0.00  0.00     0.069 A 
BRANCH  90  99
HETATM   99  N   UNK N   1      35.655  11.027  13.223  0.00  0.00    -0.327 N 
HETATM  100  C   UNK N   1      35.450  12.155  13.963  0.00  0.00     0.222 C 
HETATM  101  O   UNK N   1      34.562  12.945  13.685  0.00  0.00    -0.273 OA
HETATM  102  H   UNK N   1      36.190  10.305  13.625  0.00  0.00     0.168 HD
BRANCH 100 103
HETATM  103  C   UNK N   1      36.349  12.455  15.109  0.00  0.00     0.113 C 
BRANCH 103 104
HETATM  104  C   UNK N   1      35.582  13.339  16.088  0.00  0.00     0.119 C 
BRANCH 104 105
HETATM  105  C   UNK N   1      35.281  12.634  17.377  0.00  0.00     0.139 C 
HETATM  106  O   UNK N   1      35.255  11.413  17.429  0.00  0.00    -0.650 OA
BRANCH 105 107
HETATM  107  O   UNK N   1      34.999  13.355  18.476  0.00  0.00    -0.776 OA
HETATM  108  H   UNK N   1      35.618  13.624  19.127  0.00  0.00     0.167 HD
ENDBRANCH 105 107
ENDBRANCH 104 105
ENDBRANCH 103 104
ENDBRANCH 100 103
ENDBRANCH  90  99
BRANCH  96 109
HETATM  109  O   UNK N   1      30.519   8.354   8.857  0.00  0.00    -0.358 OA
HETATM  110  H   UNK N   1      30.466   7.419   8.811  0.00  0.00     0.217 HD
ENDBRANCH  96 109
BRANCH  97 111
HETATM  111  O   UNK N   1      31.986   9.020   6.622  0.00  0.00    -0.358 OA
HETATM  112  H   UNK N   1      31.079   9.079   6.393  0.00  0.00     0.217 HD
ENDBRANCH  97 111
ENDBRANCH  82  84
BRANCH  82 113
HETATM  113  O   UNK N   1      36.753   9.940   6.768  0.00  0.00    -0.348 OA
HETATM  114  H   UNK N   1      37.270   9.166   6.880  0.00  0.00     0.219 HD
ENDBRANCH  82 113
ENDBRANCH  77  81
ENDBRANCH  75  77
BRANCH  75 115
HETATM  115  O   UNK N   1      35.966  13.878   4.209  0.00  0.00    -0.348 OA
HETATM  116  H   UNK N   1      36.529  13.538   3.542  0.00  0.00     0.219 HD
ENDBRANCH  75 115
ENDBRANCH  61  74
ENDBRANCH  59  61
BRANCH  59 117
HETATM  117  O   UNK N   1      34.462  17.903   6.192  0.00  0.00    -0.348 OA
HETATM  118  H   UNK N   1      34.921  18.468   5.602  0.00  0.00     0.219 HD
ENDBRANCH  59 117
ENDBRANCH  54  58
ENDBRANCH  52  54
BRANCH  52 119
HETATM  119  O   UNK N   1      31.063  14.972   5.300  0.00  0.00    -0.348 OA
HETATM  120  H   UNK N   1      30.997  14.561   4.461  0.00  0.00     0.219 HD
ENDBRANCH  52 119
ENDBRANCH  42  51
ENDBRANCH  40  42
BRANCH  40 121
HETATM  121  O   UNK N   1      26.783  16.276   8.141  0.00  0.00    -0.348 OA
HETATM  122  H   UNK N   1      26.274  15.667   8.639  0.00  0.00     0.219 HD
ENDBRANCH  40 121
ENDBRANCH   5  39
BRANCH   7 123
HETATM  123  C   UNK N   1      20.203  10.952   4.999  0.00  0.00     0.144 C 
HETATM  124  C   UNK N   1      20.507   9.500   4.678  0.00  0.00     0.042 C 
BRANCH 123 125
HETATM  125  O   UNK N   1      18.816  11.104   5.057  0.00  0.00    -0.393 OA
HETATM  126  H   UNK N   1      18.216  10.342   5.088  0.00  0.00     0.210 HD
ENDBRANCH 123 125
ENDBRANCH   7 123
BRANCH  11 127
HETATM  127  O   UNK N   1      22.820  12.419   2.628  0.00  0.00    -0.348 OA
HETATM  128  H   UNK N   1      23.488  12.408   1.970  0.00  0.00     0.219 HD
ENDBRANCH  11 127
TORSDOF 49
ENDMDL
MODEL 5
REMARK VINA RESULT:      -6.9      2.795     13.973
REMARK WARNING: 32 MAX_TORS EXCEEDED!!!
REMARK  49 active torsions:
REMARK  status: ('A' for Active; 'I' for Inactive)
REMARK    1  A    between atoms: C_9  and  C_5 
REMARK    2  A    between atoms: C_16  and  C_5 
REMARK    3  A    between atoms: C_10  and  C_6 
REMARK    4  A    between atoms: C_18  and  C_6 
REMARK    5  A    between atoms: C_11  and  C_7 
REMARK    6  A    between atoms: C_19  and  C_7 
REMARK    7  A    between atoms: C_31  and  C_9 
REMARK    8  A    between atoms: C_32  and  C_10 
REMARK    9  A    between atoms: C_33  and  C_11 
REMARK   10  A    between atoms: C_13  and  C_12 
REMARK   11  A    between atoms: C_41  and  C_12 
REMARK   12  A    between atoms: C_42  and  C_13 
REMARK   13  A    between atoms: N_62  and  C_16 
REMARK   14  A    between atoms: N_80  and  C_18 
REMARK   15  A    between atoms: N_81  and  C_19 
REMARK   16  A    between atoms: C_35  and  C_23 
REMARK   17  A    between atoms: O_83  and  C_23 
REMARK   18  A    between atoms: C_36  and  C_24 
REMARK   19  A    between atoms: O_84  and  C_24 
REMARK   20  A    between atoms: N_80  and  C_25 
REMARK   21  A    between atoms: N_81  and  C_26 
REMARK   22  A    between atoms: C_43  and  C_27 
REMARK   23  A    between atoms: C_27  and  O_87 
REMARK   24  A    between atoms: C_44  and  C_28 
REMARK   25  A    between atoms: C_28  and  O_88 
REMARK   26  A    between atoms: C_30  and  N_64 
REMARK   27  A    between atoms: C_48  and  C_31 
REMARK   28  A    between atoms: C_31  and  N_68 
REMARK   29  A    between atoms: C_47  and  C_32 
REMARK   30  A    between atoms: C_32  and  N_70 
REMARK   31  A    between atoms: N_63  and  C_34 
REMARK   32  A    between atoms: C_50  and  C_35 
REMARK   33  A    between atoms: C_35  and  N_72 
REMARK   34  A    between atoms: C_51  and  C_36 
REMARK   35  A    between atoms: C_36  and  N_74 
REMARK   36  A    between atoms: C_52  and  C_37 
REMARK   37  A    between atoms: O_89  and  C_39 
REMARK   38  A    between atoms: O_90  and  C_40 
REMARK       I    between atoms: N_63  and  C_41 
REMARK   39  A    between atoms: O_93  and  C_42 
REMARK   40  A    between atoms: C_46  and  O_94 
REMARK   41  A    between atoms: C_47  and  O_95 
REMARK   42  A    between atoms: C_48  and  O_96 
REMARK   43  A    between atoms: C_50  and  O_98 
REMARK   44  A    between atoms: C_51  and  O_99 
REMARK   45  A    between atoms: C_52  and  O_100 
REMARK   46  A    between atoms: O_101  and  C_53 
REMARK   47  A    between atoms: C_54  and  O_102 
REMARK       I    between atoms: N_58  and  C_55 
REMARK       I    between atoms: N_62  and  C_55 
REMARK   48  A    between atoms: O_103  and  N_80 
REMARK   49  A    between atoms: O_104  and  N_81 
ROOT
HETATM    1  C   UNK N   1      25.080  18.345   4.293  0.00  0.00     0.004 C 
HETATM    2  C   UNK N   1      23.980  19.277   3.834  0.00  0.00     0.020 C 
HETATM    3  C   UNK N   1      25.746  17.726   3.077  0.00  0.00     0.033 C 
HETATM    4  C   UNK N   1      22.671  18.906   4.510  0.00  0.00     0.121 C 
HETATM    5  C   UNK N   1      26.217  16.293   3.347  0.00  0.00     0.158 C 
HETATM    6  C   UNK N   1      24.739  13.041   4.850  0.00  0.00     0.158 C 
HETATM    7  C   UNK N   1      20.637  16.022   3.098  0.00  0.00     0.186 C 
HETATM    8  C   UNK N   1      22.785  12.972   2.272  0.00  0.00     0.186 C 
HETATM    9  C   UNK N   1      25.104  15.339   3.772  0.00  0.00     0.135 C 
HETATM   10  C   UNK N   1      23.231  12.727   4.738  0.00  0.00     0.135 C 
HETATM   11  C   UNK N   1      21.437  16.910   4.036  0.00  0.00     0.137 C 
HETATM   12  C   UNK N   1      22.053  14.260   2.015  0.00  0.00     0.138 C 
HETATM   13  N   UNK N   1      21.884  18.056   3.647  0.00  0.00    -0.373 N 
ATOM     14  HN  UNK N   1      21.673  18.373   2.700  1.00  0.00     0.161 HD
HETATM   15  N   UNK N   1      25.434  14.234   4.352  0.00  0.00    -0.361 N 
ATOM     16  HN  UNK N   1      26.440  14.174   4.505  1.00  0.00     0.162 HD
HETATM   17  N   UNK N   1      22.512  12.632   3.660  0.00  0.00    -0.358 N 
ATOM     18  HN  UNK N   1      21.580  12.247   3.816  1.00  0.00     0.162 HD
HETATM   19  N   UNK N   1      21.361  14.772   2.988  0.00  0.00    -0.358 N 
ATOM     20  HN  UNK N   1      21.319  14.189   3.824  1.00  0.00     0.162 HD
HETATM   21  O   UNK N   1      22.609  12.431   5.898  0.00  0.00    -0.348 OA
HETATM   22  H   UNK N   1      22.110  12.354   6.687  0.00  0.00     0.219 HD
ENDROOT
BRANCH   6  23
HETATM   23  C   UNK N   1      25.523  11.838   4.376  0.00  0.00     0.035 C 
BRANCH  23  24
HETATM   24  C   UNK N   1      27.005  12.128   4.445  0.00  0.00     0.025 C 
BRANCH  24  25
HETATM   25  C   UNK N   1      27.669  11.723   3.168  0.00  0.00     0.158 C 
BRANCH  25  26
HETATM   26  N   UNK N   1      27.676  12.845   2.282  0.00  0.00    -0.236 N 
BRANCH  26  27
HETATM   27  C   UNK N   1      28.797  13.578   2.152  0.00  0.00     0.376 C 
HETATM   28  O   UNK N   1      28.746  14.707   1.692  0.00  0.00    -0.281 OA
ENDBRANCH  26  27
BRANCH  26  29
HETATM   29  O   UNK N   1      26.576  13.146   1.586  0.00  0.00    -0.285 OA
HETATM   30  H   UNK N   1      26.346  12.844   0.693  0.00  0.00     0.245 HD
ENDBRANCH  26  29
ENDBRANCH  25  26
ENDBRANCH  24  25
ENDBRANCH  23  24
ENDBRANCH   6  23
BRANCH   8  31
HETATM   31  C   UNK N   1      22.271  11.883   1.296  0.00  0.00     0.144 C 
HETATM   32  C   UNK N   1      23.253  11.622   0.161  0.00  0.00     0.042 C 
BRANCH  31  33
HETATM   33  O   UNK N   1      21.041  12.246   0.748  0.00  0.00    -0.393 OA
HETATM   34  H   UNK N   1      20.218  11.932   1.155  0.00  0.00     0.210 HD
ENDBRANCH  31  33
ENDBRANCH   8  31
BRANCH   9  35
HETATM   35  O   UNK N   1      23.832  15.640   3.530  0.00  0.00    -0.348 OA
HETATM   36  H   UNK N   1      23.163  15.463   4.162  0.00  0.00     0.219 HD
ENDBRANCH   9  35
BRANCH  12  37
HETATM   37  O   UNK N   1      22.210  14.888   0.834  0.00  0.00    -0.348 OA
HETATM   38  H   UNK N   1      21.986  15.528   0.187  0.00  0.00     0.219 HD
ENDBRANCH  12  37
BRANCH   5  39
HETATM   39  N   UNK N   1      27.294  16.161   4.307  0.00  0.00    -0.361 N 
HETATM   40  C   UNK N   1      28.496  16.612   4.377  0.00  0.00     0.135 C 
ATOM     41  HN  UNK N   1      27.043  15.579   5.105  1.00  0.00     0.162 HD
BRANCH  40  42
HETATM   42  C   UNK N   1      29.289  16.336   5.654  0.00  0.00     0.158 C 
BRANCH  42  43
HETATM   43  C   UNK N   1      28.467  16.773   6.866  0.00  0.00     0.035 C 
BRANCH  43  44
HETATM   44  C   UNK N   1      28.644  18.258   7.161  0.00  0.00     0.025 C 
BRANCH  44  45
HETATM   45  C   UNK N   1      28.814  18.510   8.651  0.00  0.00     0.158 C 
BRANCH  45  46
HETATM   46  N   UNK N   1      30.082  18.023   9.115  0.00  0.00    -0.236 N 
BRANCH  46  47
HETATM   47  C   UNK N   1      31.219  18.674   8.791  0.00  0.00     0.376 C 
HETATM   48  O   UNK N   1      32.193  18.071   8.374  0.00  0.00    -0.281 OA
ENDBRANCH  46  47
BRANCH  46  49
HETATM   49  O   UNK N   1      30.129  16.940   9.915  0.00  0.00    -0.285 OA
HETATM   50  H   UNK N   1      29.400  16.431  10.302  0.00  0.00     0.245 HD
ENDBRANCH  46  49
ENDBRANCH  45  46
ENDBRANCH  44  45
ENDBRANCH  43  44
ENDBRANCH  42  43
BRANCH  42  51
HETATM   51  N   UNK N   1      30.575  17.023   5.737  0.00  0.00    -0.361 N 
HETATM   52  C   UNK N   1      31.715  16.743   5.182  0.00  0.00     0.137 C 
ATOM     53  HN  UNK N   1      30.579  17.856   6.326  1.00  0.00     0.162 HD
BRANCH  52  54
HETATM   54  C   UNK N   1      31.932  15.594   4.214  0.00  0.00     0.181 C 
BRANCH  54  55
HETATM   55  C   UNK N   1      33.311  15.585   3.552  0.00  0.00     0.197 C 
BRANCH  55  56
HETATM   56  O   UNK N   1      33.411  16.463   2.474  0.00  0.00    -0.398 OA
HETATM   57  H   UNK N   1      32.857  17.179   2.125  0.00  0.00     0.209 HD
ENDBRANCH  55  56
ENDBRANCH  54  55
BRANCH  54  58
HETATM   58  N   UNK N   1      31.332  14.296   4.495  0.00  0.00    -0.359 N 
HETATM   59  C   UNK N   1      31.645  13.311   5.271  0.00  0.00     0.135 C 
ATOM     60  HN  UNK N   1      30.479  14.128   3.963  1.00  0.00     0.162 HD
BRANCH  59  61
HETATM   61  C   UNK N   1      32.815  13.300   6.208  0.00  0.00     0.158 C 
BRANCH  61  62
HETATM   62  C   UNK N   1      33.217  11.872   6.549  0.00  0.00     0.035 C 
BRANCH  62  63
HETATM   63  C   UNK N   1      34.719  11.627   6.443  0.00  0.00     0.023 C 
BRANCH  63  64
HETATM   64  C   UNK N   1      35.307  11.059   7.722  0.00  0.00     0.138 C 
BRANCH  64  65
HETATM   65  N   UNK N   1      34.363  11.214   8.797  0.00  0.00    -0.227 N 
HETATM   66  C   UNK N   1      34.231  10.235   9.814  0.00  0.00     0.665 C 
HETATM   67  N   UNK N   1      34.911   9.149   9.769  0.00  0.00    -0.235 N 
HETATM   68  N   UNK N   1      33.324  10.448  10.874  0.00  0.00    -0.235 N 
HETATM   69  H   UNK N   1      34.807   8.338  10.318  0.00  0.00     0.174 HD
ATOM     70  HN  UNK N   1      35.658   9.121   9.073  1.00  0.00     0.174 HD
HETATM   71  H   UNK N   1      32.569  11.073  10.776  0.00  0.00     0.174 HD
HETATM   72  H   UNK N   1      33.448   9.966  11.723  0.00  0.00     0.174 HD
HETATM   73  H   UNK N   1      33.796  12.018   8.827  0.00  0.00     0.177 HD
ENDBRANCH  64  65
ENDBRANCH  63  64
ENDBRANCH  62  63
ENDBRANCH  61  62
BRANCH  61  74
HETATM   74  N   UNK N   1      32.462  14.035   7.399  0.00  0.00    -0.361 N 
HETATM   75  C   UNK N   1      33.257  14.740   8.132  0.00  0.00     0.137 C 
ATOM     76  HN  UNK N   1      31.485  13.995   7.690  1.00  0.00     0.162 HD
BRANCH  75  77
HETATM   77  C   UNK N   1      34.752  14.820   7.926  0.00  0.00     0.181 C 
BRANCH  77  78
HETATM   78  C   UNK N   1      35.032  15.411   6.553  0.00  0.00     0.197 C 
BRANCH  78  79
HETATM   79  O   UNK N   1      36.232  14.916   6.037  0.00  0.00    -0.398 OA
HETATM   80  H   UNK N   1      37.062  14.426   6.143  0.00  0.00     0.209 HD
ENDBRANCH  78  79
ENDBRANCH  77  78
BRANCH  77  81
HETATM   81  N   UNK N   1      35.474  15.633   8.908  0.00  0.00    -0.359 N 
HETATM   82  C   UNK N   1      35.928  15.269  10.068  0.00  0.00     0.135 C 
ATOM     83  HN  UNK N   1      35.640  16.604   8.647  1.00  0.00     0.162 HD
BRANCH  82  84
HETATM   84  C   UNK N   1      35.548  13.960  10.715  0.00  0.00     0.163 C 
HETATM   85  C   UNK N   1      34.861  14.279  12.059  0.00  0.00     0.053 C 
HETATM   86  C   UNK N   1      35.856  14.149  13.222  0.00  0.00     0.118 C 
HETATM   87  N   UNK N   1      36.492  12.819  13.288  0.00  0.00    -0.397 N 
HETATM   88  C   UNK N   1      36.368  12.063  12.031  0.00  0.00     0.232 A 
HETATM   89  H   UNK N   1      36.967  12.461  14.116  0.00  0.00     0.155 HD
HETATM   90  C   UNK N   1      37.232  10.823  12.085  0.00  0.00     0.055 A 
HETATM   91  N   UNK N   1      36.605  12.968  10.913  0.00  0.00    -0.341 N 
HETATM   92  C   UNK N   1      38.158  10.581  11.148  0.00  0.00     0.043 A 
HETATM   93  C   UNK N   1      38.353  11.491  10.012  0.00  0.00    -0.005 A 
HETATM   94  C   UNK N   1      39.284  11.174   9.012  0.00  0.00     0.053 A 
HETATM   95  C   UNK N   1      37.600  12.672   9.921  0.00  0.00     0.046 A 
HETATM   96  C   UNK N   1      39.483  12.040   7.931  0.00  0.00     0.099 A 
HETATM   97  C   UNK N   1      38.769  13.236   7.860  0.00  0.00     0.101 A 
HETATM   98  C   UNK N   1      37.841  13.539   8.849  0.00  0.00     0.069 A 
BRANCH  90  99
HETATM   99  N   UNK N   1      37.112   9.940  13.199  0.00  0.00    -0.327 N 
HETATM  100  C   UNK N   1      35.933   9.416  13.643  0.00  0.00     0.222 C 
HETATM  101  O   UNK N   1      34.934   9.412  12.941  0.00  0.00    -0.273 OA
HETATM  102  H   UNK N   1      37.935   9.691  13.679  0.00  0.00     0.168 HD
BRANCH 100 103
HETATM  103  C   UNK N   1      35.844   8.876  15.026  0.00  0.00     0.113 C 
BRANCH 103 104
HETATM  104  C   UNK N   1      34.893   9.768  15.818  0.00  0.00     0.119 C 
BRANCH 104 105
HETATM  105  C   UNK N   1      35.548  11.037  16.272  0.00  0.00     0.139 C 
HETATM  106  O   UNK N   1      34.922  11.869  16.912  0.00  0.00    -0.650 OA
BRANCH 105 107
HETATM  107  O   UNK N   1      36.829  11.278  15.938  0.00  0.00    -0.776 OA
HETATM  108  H   UNK N   1      37.323  12.039  16.177  0.00  0.00     0.167 HD
ENDBRANCH 105 107
ENDBRANCH 104 105
ENDBRANCH 103 104
ENDBRANCH 100 103
ENDBRANCH  90  99
BRANCH  96 109
HETATM  109  O   UNK N   1      40.364  11.723   6.967  0.00  0.00    -0.358 OA
HETATM  110  H   UNK N   1      41.029  11.083   7.130  0.00  0.00     0.217 HD
ENDBRANCH  96 109
BRANCH  97 111
HETATM  111  O   UNK N   1      38.965  14.094   6.844  0.00  0.00    -0.358 OA
HETATM  112  H   UNK N   1      39.665  14.716   6.832  0.00  0.00     0.217 HD
ENDBRANCH  97 111
ENDBRANCH  82  84
BRANCH  82 113
HETATM  113  O   UNK N   1      36.713  16.128  10.751  0.00  0.00    -0.348 OA
HETATM  114  H   UNK N   1      37.097  16.883  11.150  0.00  0.00     0.219 HD
ENDBRANCH  82 113
ENDBRANCH  77  81
ENDBRANCH  75  77
BRANCH  75 115
HETATM  115  O   UNK N   1      32.732  15.426   9.166  0.00  0.00    -0.348 OA
HETATM  116  H   UNK N   1      32.414  16.096   9.740  0.00  0.00     0.219 HD
ENDBRANCH  75 115
ENDBRANCH  61  74
ENDBRANCH  59  61
BRANCH  59 117
HETATM  117  O   UNK N   1      30.872  12.210   5.224  0.00  0.00    -0.348 OA
HETATM  118  H   UNK N   1      30.719  11.315   4.988  0.00  0.00     0.219 HD
ENDBRANCH  59 117
ENDBRANCH  54  58
ENDBRANCH  52  54
BRANCH  52 119
HETATM  119  O   UNK N   1      32.757  17.556   5.444  0.00  0.00    -0.348 OA
HETATM  120  H   UNK N   1      33.231  18.154   4.900  0.00  0.00     0.219 HD
ENDBRANCH  52 119
ENDBRANCH  42  51
ENDBRANCH  40  42
BRANCH  40 121
HETATM  121  O   UNK N   1      29.008  17.378   3.392  0.00  0.00    -0.348 OA
HETATM  122  H   UNK N   1      28.822  18.293   3.311  0.00  0.00     0.219 HD
ENDBRANCH  40 121
ENDBRANCH   5  39
BRANCH   7 123
HETATM  123  C   UNK N   1      20.266  16.663   1.747  0.00  0.00     0.144 C 
HETATM  124  C   UNK N   1      19.601  18.011   1.963  0.00  0.00     0.042 C 
BRANCH 123 125
HETATM  125  O   UNK N   1      19.365  15.837   1.071  0.00  0.00    -0.393 OA
HETATM  126  H   UNK N   1      19.533  15.523   0.168  0.00  0.00     0.210 HD
ENDBRANCH 123 125
ENDBRANCH   7 123
BRANCH  11 127
HETATM  127  O   UNK N   1      21.716  16.457   5.279  0.00  0.00    -0.348 OA
HETATM  128  H   UNK N   1      22.408  16.262   5.882  0.00  0.00     0.219 HD
ENDBRANCH  11 127
TORSDOF 49
ENDMDL
MODEL 6
REMARK VINA RESULT:      -6.9      2.033      5.537
REMARK WARNING: 32 MAX_TORS EXCEEDED!!!
REMARK  49 active torsions:
REMARK  status: ('A' for Active; 'I' for Inactive)
REMARK    1  A    between atoms: C_9  and  C_5 
REMARK    2  A    between atoms: C_16  and  C_5 
REMARK    3  A    between atoms: C_10  and  C_6 
REMARK    4  A    between atoms: C_18  and  C_6 
REMARK    5  A    between atoms: C_11  and  C_7 
REMARK    6  A    between atoms: C_19  and  C_7 
REMARK    7  A    between atoms: C_31  and  C_9 
REMARK    8  A    between atoms: C_32  and  C_10 
REMARK    9  A    between atoms: C_33  and  C_11 
REMARK   10  A    between atoms: C_13  and  C_12 
REMARK   11  A    between atoms: C_41  and  C_12 
REMARK   12  A    between atoms: C_42  and  C_13 
REMARK   13  A    between atoms: N_62  and  C_16 
REMARK   14  A    between atoms: N_80  and  C_18 
REMARK   15  A    between atoms: N_81  and  C_19 
REMARK   16  A    between atoms: C_35  and  C_23 
REMARK   17  A    between atoms: O_83  and  C_23 
REMARK   18  A    between atoms: C_36  and  C_24 
REMARK   19  A    between atoms: O_84  and  C_24 
REMARK   20  A    between atoms: N_80  and  C_25 
REMARK   21  A    between atoms: N_81  and  C_26 
REMARK   22  A    between atoms: C_43  and  C_27 
REMARK   23  A    between atoms: C_27  and  O_87 
REMARK   24  A    between atoms: C_44  and  C_28 
REMARK   25  A    between atoms: C_28  and  O_88 
REMARK   26  A    between atoms: C_30  and  N_64 
REMARK   27  A    between atoms: C_48  and  C_31 
REMARK   28  A    between atoms: C_31  and  N_68 
REMARK   29  A    between atoms: C_47  and  C_32 
REMARK   30  A    between atoms: C_32  and  N_70 
REMARK   31  A    between atoms: N_63  and  C_34 
REMARK   32  A    between atoms: C_50  and  C_35 
REMARK   33  A    between atoms: C_35  and  N_72 
REMARK   34  A    between atoms: C_51  and  C_36 
REMARK   35  A    between atoms: C_36  and  N_74 
REMARK   36  A    between atoms: C_52  and  C_37 
REMARK   37  A    between atoms: O_89  and  C_39 
REMARK   38  A    between atoms: O_90  and  C_40 
REMARK       I    between atoms: N_63  and  C_41 
REMARK   39  A    between atoms: O_93  and  C_42 
REMARK   40  A    between atoms: C_46  and  O_94 
REMARK   41  A    between atoms: C_47  and  O_95 
REMARK   42  A    between atoms: C_48  and  O_96 
REMARK   43  A    between atoms: C_50  and  O_98 
REMARK   44  A    between atoms: C_51  and  O_99 
REMARK   45  A    between atoms: C_52  and  O_100 
REMARK   46  A    between atoms: O_101  and  C_53 
REMARK   47  A    between atoms: C_54  and  O_102 
REMARK       I    between atoms: N_58  and  C_55 
REMARK       I    between atoms: N_62  and  C_55 
REMARK   48  A    between atoms: O_103  and  N_80 
REMARK   49  A    between atoms: O_104  and  N_81 
ROOT
HETATM    1  C   UNK N   1      31.985  11.631   5.407  0.00  0.00     0.004 C 
HETATM    2  C   UNK N   1      32.715  10.341   5.709  0.00  0.00     0.020 C 
HETATM    3  C   UNK N   1      32.981  12.656   4.895  0.00  0.00     0.033 C 
HETATM    4  C   UNK N   1      32.426   9.905   7.136  0.00  0.00     0.121 C 
HETATM    5  C   UNK N   1      32.610  14.080   5.323  0.00  0.00     0.158 C 
HETATM    6  C   UNK N   1      31.606  15.905   8.590  0.00  0.00     0.158 C 
HETATM    7  C   UNK N   1      34.373  11.522   9.972  0.00  0.00     0.186 C 
HETATM    8  C   UNK N   1      34.619  15.318   9.612  0.00  0.00     0.186 C 
HETATM    9  C   UNK N   1      32.516  14.274   6.833  0.00  0.00     0.135 C 
HETATM   10  C   UNK N   1      32.128  15.425   9.962  0.00  0.00     0.135 C 
HETATM   11  C   UNK N   1      33.242  11.046   9.077  0.00  0.00     0.137 C 
HETATM   12  C   UNK N   1      35.050  13.884   9.476  0.00  0.00     0.138 C 
HETATM   13  N   UNK N   1      33.480  10.346   8.020  0.00  0.00    -0.373 N 
ATOM     14  HN  UNK N   1      34.445  10.095   7.801  1.00  0.00     0.161 HD
HETATM   15  N   UNK N   1      31.881  15.306   7.279  0.00  0.00    -0.361 N 
ATOM     16  HN  UNK N   1      31.460  15.846   6.523  1.00  0.00     0.162 HD
HETATM   17  N   UNK N   1      33.363  15.285  10.344  0.00  0.00    -0.358 N 
ATOM     18  HN  UNK N   1      33.470  15.122  11.345  1.00  0.00     0.162 HD
HETATM   19  N   UNK N   1      34.297  12.968  10.007  0.00  0.00    -0.358 N 
ATOM     20  HN  UNK N   1      33.511  13.333  10.545  1.00  0.00     0.162 HD
HETATM   21  O   UNK N   1      31.185  15.209  10.902  0.00  0.00    -0.348 OA
HETATM   22  H   UNK N   1      30.563  14.918  11.539  0.00  0.00     0.219 HD
ENDROOT
BRANCH   6  23
HETATM   23  C   UNK N   1      31.863  17.390   8.464  0.00  0.00     0.035 C 
BRANCH  23  24
HETATM   24  C   UNK N   1      30.625  18.163   8.858  0.00  0.00     0.025 C 
BRANCH  24  25
HETATM   25  C   UNK N   1      29.434  17.638   8.122  0.00  0.00     0.158 C 
BRANCH  25  26
HETATM   26  N   UNK N   1      28.319  18.491   8.391  0.00  0.00    -0.236 N 
BRANCH  26  27
HETATM   27  C   UNK N   1      28.135  19.595   7.643  0.00  0.00     0.376 C 
HETATM   28  O   UNK N   1      27.397  19.566   6.673  0.00  0.00    -0.281 OA
ENDBRANCH  26  27
BRANCH  26  29
HETATM   29  O   UNK N   1      27.468  18.180   9.372  0.00  0.00    -0.285 OA
HETATM   30  H   UNK N   1      27.046  18.788   9.998  0.00  0.00     0.245 HD
ENDBRANCH  26  29
ENDBRANCH  25  26
ENDBRANCH  24  25
ENDBRANCH  23  24
ENDBRANCH   6  23
BRANCH   8  31
HETATM   31  C   UNK N   1      35.711  16.115  10.369  0.00  0.00     0.144 C 
HETATM   32  C   UNK N   1      35.749  15.767  11.852  0.00  0.00     0.042 C 
BRANCH  31  33
HETATM   33  O   UNK N   1      35.508  17.488  10.237  0.00  0.00    -0.393 OA
HETATM   34  H   UNK N   1      34.657  17.879  10.490  0.00  0.00     0.210 HD
ENDBRANCH  31  33
ENDBRANCH   8  31
BRANCH   9  35
HETATM   35  O   UNK N   1      33.091  13.406   7.659  0.00  0.00    -0.348 OA
HETATM   36  H   UNK N   1      32.744  13.247   8.515  0.00  0.00     0.219 HD
ENDBRANCH   9  35
BRANCH  12  37
HETATM   37  O   UNK N   1      36.136  13.584   8.738  0.00  0.00    -0.348 OA
HETATM   38  H   UNK N   1      36.772  12.997   8.379  0.00  0.00     0.219 HD
ENDBRANCH  12  37
BRANCH   5  39
HETATM   39  N   UNK N   1      31.395  14.610   4.739  0.00  0.00    -0.361 N 
HETATM   40  C   UNK N   1      31.029  14.912   3.544  0.00  0.00     0.135 C 
ATOM     41  HN  UNK N   1      30.667  14.784   5.431  1.00  0.00     0.162 HD
BRANCH  40  42
HETATM   42  C   UNK N   1      29.577  15.337   3.327  0.00  0.00     0.158 C 
BRANCH  42  43
HETATM   43  C   UNK N   1      29.118  14.885   1.941  0.00  0.00     0.035 C 
BRANCH  43  44
HETATM   44  C   UNK N   1      28.608  13.448   1.958  0.00  0.00     0.025 C 
BRANCH  44  45
HETATM   45  C   UNK N   1      29.391  12.573   0.990  0.00  0.00     0.158 C 
BRANCH  45  46
HETATM   46  N   UNK N   1      30.211  11.630   1.696  0.00  0.00    -0.236 N 
BRANCH  46  47
HETATM   47  C   UNK N   1      29.680  10.475   2.149  0.00  0.00     0.376 C 
HETATM   48  O   UNK N   1      29.401  10.330   3.327  0.00  0.00    -0.281 OA
ENDBRANCH  46  47
BRANCH  46  49
HETATM   49  O   UNK N   1      31.524  11.880   1.862  0.00  0.00    -0.285 OA
HETATM   50  H   UNK N   1      32.168  11.427   2.428  0.00  0.00     0.245 HD
ENDBRANCH  46  49
ENDBRANCH  45  46
ENDBRANCH  44  45
ENDBRANCH  43  44
ENDBRANCH  42  43
BRANCH  42  51
HETATM   51  N   UNK N   1      29.340  16.776   3.410  0.00  0.00    -0.361 N 
HETATM   52  C   UNK N   1      28.376  17.437   3.973  0.00  0.00     0.137 C 
ATOM     53  HN  UNK N   1      30.046  17.353   2.952  1.00  0.00     0.162 HD
BRANCH  52  54
HETATM   54  C   UNK N   1      27.254  16.796   4.770  0.00  0.00     0.181 C 
BRANCH  54  55
HETATM   55  C   UNK N   1      27.723  15.745   5.777  0.00  0.00     0.197 C 
BRANCH  55  56
HETATM   56  O   UNK N   1      26.836  15.563   6.837  0.00  0.00    -0.398 OA
HETATM   57  H   UNK N   1      25.870  15.587   6.930  0.00  0.00     0.209 HD
ENDBRANCH  55  56
ENDBRANCH  54  55
BRANCH  54  58
HETATM   58  N   UNK N   1      26.096  17.595   5.150  0.00  0.00    -0.359 N 
HETATM   59  C   UNK N   1      24.830  17.514   4.907  0.00  0.00     0.135 C 
ATOM     60  HN  UNK N   1      26.339  18.393   5.737  1.00  0.00     0.162 HD
BRANCH  59  61
HETATM   61  C   UNK N   1      24.180  16.417   4.119  0.00  0.00     0.158 C 
BRANCH  61  62
HETATM   62  C   UNK N   1      24.986  16.105   2.866  0.00  0.00     0.035 C 
BRANCH  62  63
HETATM   63  C   UNK N   1      24.657  14.744   2.261  0.00  0.00     0.023 C 
BRANCH  63  64
HETATM   64  C   UNK N   1      24.479  13.666   3.316  0.00  0.00     0.138 C 
BRANCH  64  65
HETATM   65  N   UNK N   1      25.729  12.984   3.523  0.00  0.00    -0.227 N 
HETATM   66  C   UNK N   1      26.167  12.619   4.821  0.00  0.00     0.665 C 
HETATM   67  N   UNK N   1      25.485  12.944   5.857  0.00  0.00    -0.235 N 
HETATM   68  N   UNK N   1      27.379  11.911   4.975  0.00  0.00    -0.235 N 
HETATM   69  H   UNK N   1      25.747  12.885   6.805  0.00  0.00     0.174 HD
ATOM     70  HN  UNK N   1      24.550  13.311   5.676  1.00  0.00     0.174 HD
HETATM   71  H   UNK N   1      28.073  11.939   4.277  0.00  0.00     0.174 HD
HETATM   72  H   UNK N   1      27.531  11.383   5.791  0.00  0.00     0.174 HD
HETATM   73  H   UNK N   1      26.293  12.766   2.746  0.00  0.00     0.177 HD
ENDBRANCH  64  65
ENDBRANCH  63  64
ENDBRANCH  62  63
ENDBRANCH  61  62
BRANCH  61  74
HETATM   74  N   UNK N   1      22.837  16.823   3.780  0.00  0.00    -0.361 N 
HETATM   75  C   UNK N   1      21.754  16.497   4.403  0.00  0.00     0.137 C 
ATOM     76  HN  UNK N   1      22.732  17.430   2.967  1.00  0.00     0.162 HD
BRANCH  75  77
HETATM   77  C   UNK N   1      21.699  15.515   5.551  0.00  0.00     0.181 C 
BRANCH  77  78
HETATM   78  C   UNK N   1      21.738  16.285   6.862  0.00  0.00     0.197 C 
BRANCH  78  79
HETATM   79  O   UNK N   1      21.662  17.661   6.630  0.00  0.00    -0.398 OA
HETATM   80  H   UNK N   1      21.271  18.423   6.178  0.00  0.00     0.209 HD
ENDBRANCH  78  79
ENDBRANCH  77  78
BRANCH  77  81
HETATM   81  N   UNK N   1      20.514  14.657   5.582  0.00  0.00    -0.359 N 
HETATM   82  C   UNK N   1      20.457  13.367   5.453  0.00  0.00     0.135 C 
ATOM     83  HN  UNK N   1      19.622  15.132   5.722  1.00  0.00     0.162 HD
BRANCH  82  84
HETATM   84  C   UNK N   1      21.632  12.545   4.985  0.00  0.00     0.163 C 
HETATM   85  C   UNK N   1      21.236  11.866   3.657  0.00  0.00     0.053 C 
HETATM   86  C   UNK N   1      20.784  10.418   3.901  0.00  0.00     0.118 C 
HETATM   87  N   UNK N   1      21.804   9.606   4.594  0.00  0.00    -0.397 N 
HETATM   88  C   UNK N   1      22.831  10.425   5.257  0.00  0.00     0.232 A 
HETATM   89  H   UNK N   1      21.799   8.588   4.610  0.00  0.00     0.155 HD
HETATM   90  C   UNK N   1      23.701   9.553   6.135  0.00  0.00     0.055 A 
HETATM   91  N   UNK N   1      22.181  11.555   5.911  0.00  0.00    -0.341 N 
HETATM   92  C   UNK N   1      23.860   9.818   7.438  0.00  0.00     0.043 A 
HETATM   93  C   UNK N   1      23.223  10.983   8.065  0.00  0.00    -0.005 A 
HETATM   94  C   UNK N   1      23.464  11.270   9.416  0.00  0.00     0.053 A 
HETATM   95  C   UNK N   1      22.382  11.815   7.309  0.00  0.00     0.046 A 
HETATM   96  C   UNK N   1      22.853  12.373  10.025  0.00  0.00     0.099 A 
HETATM   97  C   UNK N   1      21.981  13.176   9.289  0.00  0.00     0.101 A 
HETATM   98  C   UNK N   1      21.756  12.891   7.948  0.00  0.00     0.069 A 
BRANCH  90  99
HETATM   99  N   UNK N   1      24.297   8.382   5.578  0.00  0.00    -0.327 N 
HETATM  100  C   UNK N   1      25.464   8.373   4.872  0.00  0.00     0.222 C 
HETATM  101  O   UNK N   1      26.247   9.307   4.926  0.00  0.00    -0.273 OA
HETATM  102  H   UNK N   1      23.834   7.523   5.712  0.00  0.00     0.168 HD
BRANCH 100 103
HETATM  103  C   UNK N   1      25.775   7.221   3.983  0.00  0.00     0.113 C 
BRANCH 103 104
HETATM  104  C   UNK N   1      27.097   7.516   3.280  0.00  0.00     0.119 C 
BRANCH 104 105
HETATM  105  C   UNK N   1      28.224   6.682   3.813  0.00  0.00     0.139 C 
HETATM  106  O   UNK N   1      28.049   5.929   4.760  0.00  0.00    -0.650 OA
BRANCH 105 107
HETATM  107  O   UNK N   1      29.448   6.795   3.266  0.00  0.00    -0.776 OA
HETATM  108  H   UNK N   1      30.228   6.383   3.584  0.00  0.00     0.167 HD
ENDBRANCH 105 107
ENDBRANCH 104 105
ENDBRANCH 103 104
ENDBRANCH 100 103
ENDBRANCH  90  99
BRANCH  96 109
HETATM  109  O   UNK N   1      23.101  12.653  11.315  0.00  0.00    -0.358 OA
HETATM  110  H   UNK N   1      23.609  12.062  11.835  0.00  0.00     0.217 HD
ENDBRANCH  96 109
BRANCH  97 111
HETATM  111  O   UNK N   1      21.365  14.224   9.861  0.00  0.00    -0.358 OA
HETATM  112  H   UNK N   1      21.822  14.993  10.140  0.00  0.00     0.217 HD
ENDBRANCH  97 111
ENDBRANCH  82  84
BRANCH  82 113
HETATM  113  O   UNK N   1      19.279  12.748   5.678  0.00  0.00    -0.348 OA
HETATM  114  H   UNK N   1      18.383  12.541   5.856  0.00  0.00     0.219 HD
ENDBRANCH  82 113
ENDBRANCH  77  81
ENDBRANCH  75  77
BRANCH  75 115
HETATM  115  O   UNK N   1      20.591  17.038   3.989  0.00  0.00    -0.348 OA
HETATM  116  H   UNK N   1      19.882  17.619   3.796  0.00  0.00     0.219 HD
ENDBRANCH  75 115
ENDBRANCH  61  74
ENDBRANCH  59  61
BRANCH  59 117
HETATM  117  O   UNK N   1      24.038  18.493   5.383  0.00  0.00    -0.348 OA
HETATM  118  H   UNK N   1      23.197  18.843   5.605  0.00  0.00     0.219 HD
ENDBRANCH  59 117
ENDBRANCH  54  58
ENDBRANCH  52  54
BRANCH  52 119
HETATM  119  O   UNK N   1      28.404  18.782   3.887  0.00  0.00    -0.348 OA
HETATM  120  H   UNK N   1      28.770  19.356   3.245  0.00  0.00     0.219 HD
ENDBRANCH  52 119
ENDBRANCH  42  51
ENDBRANCH  40  42
BRANCH  40 121
HETATM  121  O   UNK N   1      31.876  14.773   2.503  0.00  0.00    -0.348 OA
HETATM  122  H   UNK N   1      32.189  15.500   2.003  0.00  0.00     0.219 HD
ENDBRANCH  40 121
ENDBRANCH   5  39
BRANCH   7 123
HETATM  123  C   UNK N   1      35.766  10.967   9.619  0.00  0.00     0.144 C 
HETATM  124  C   UNK N   1      35.783   9.454   9.745  0.00  0.00     0.042 C 
BRANCH 123 125
HETATM  125  O   UNK N   1      36.713  11.488  10.504  0.00  0.00    -0.393 OA
HETATM  126  H   UNK N   1      37.083  12.379  10.395  0.00  0.00     0.210 HD
ENDBRANCH 123 125
ENDBRANCH   7 123
BRANCH  11 127
HETATM  127  O   UNK N   1      31.975  11.408   9.381  0.00  0.00    -0.348 OA
HETATM  128  H   UNK N   1      31.081  11.357   9.104  0.00  0.00     0.219 HD
ENDBRANCH  11 127
TORSDOF 49
ENDMDL
MODEL 7
REMARK VINA RESULT:      -6.8      2.725     12.521
REMARK WARNING: 32 MAX_TORS EXCEEDED!!!
REMARK  49 active torsions:
REMARK  status: ('A' for Active; 'I' for Inactive)
REMARK    1  A    between atoms: C_9  and  C_5 
REMARK    2  A    between atoms: C_16  and  C_5 
REMARK    3  A    between atoms: C_10  and  C_6 
REMARK    4  A    between atoms: C_18  and  C_6 
REMARK    5  A    between atoms: C_11  and  C_7 
REMARK    6  A    between atoms: C_19  and  C_7 
REMARK    7  A    between atoms: C_31  and  C_9 
REMARK    8  A    between atoms: C_32  and  C_10 
REMARK    9  A    between atoms: C_33  and  C_11 
REMARK   10  A    between atoms: C_13  and  C_12 
REMARK   11  A    between atoms: C_41  and  C_12 
REMARK   12  A    between atoms: C_42  and  C_13 
REMARK   13  A    between atoms: N_62  and  C_16 
REMARK   14  A    between atoms: N_80  and  C_18 
REMARK   15  A    between atoms: N_81  and  C_19 
REMARK   16  A    between atoms: C_35  and  C_23 
REMARK   17  A    between atoms: O_83  and  C_23 
REMARK   18  A    between atoms: C_36  and  C_24 
REMARK   19  A    between atoms: O_84  and  C_24 
REMARK   20  A    between atoms: N_80  and  C_25 
REMARK   21  A    between atoms: N_81  and  C_26 
REMARK   22  A    between atoms: C_43  and  C_27 
REMARK   23  A    between atoms: C_27  and  O_87 
REMARK   24  A    between atoms: C_44  and  C_28 
REMARK   25  A    between atoms: C_28  and  O_88 
REMARK   26  A    between atoms: C_30  and  N_64 
REMARK   27  A    between atoms: C_48  and  C_31 
REMARK   28  A    between atoms: C_31  and  N_68 
REMARK   29  A    between atoms: C_47  and  C_32 
REMARK   30  A    between atoms: C_32  and  N_70 
REMARK   31  A    between atoms: N_63  and  C_34 
REMARK   32  A    between atoms: C_50  and  C_35 
REMARK   33  A    between atoms: C_35  and  N_72 
REMARK   34  A    between atoms: C_51  and  C_36 
REMARK   35  A    between atoms: C_36  and  N_74 
REMARK   36  A    between atoms: C_52  and  C_37 
REMARK   37  A    between atoms: O_89  and  C_39 
REMARK   38  A    between atoms: O_90  and  C_40 
REMARK       I    between atoms: N_63  and  C_41 
REMARK   39  A    between atoms: O_93  and  C_42 
REMARK   40  A    between atoms: C_46  and  O_94 
REMARK   41  A    between atoms: C_47  and  O_95 
REMARK   42  A    between atoms: C_48  and  O_96 
REMARK   43  A    between atoms: C_50  and  O_98 
REMARK   44  A    between atoms: C_51  and  O_99 
REMARK   45  A    between atoms: C_52  and  O_100 
REMARK   46  A    between atoms: O_101  and  C_53 
REMARK   47  A    between atoms: C_54  and  O_102 
REMARK       I    between atoms: N_58  and  C_55 
REMARK       I    between atoms: N_62  and  C_55 
REMARK   48  A    between atoms: O_103  and  N_80 
REMARK   49  A    between atoms: O_104  and  N_81 
ROOT
HETATM    1  C   UNK N   1      27.879  13.236   3.157  0.00  0.00     0.004 C 
HETATM    2  C   UNK N   1      27.945  11.846   2.565  0.00  0.00     0.020 C 
HETATM    3  C   UNK N   1      27.805  13.128   4.670  0.00  0.00     0.033 C 
HETATM    4  C   UNK N   1      26.845  11.672   1.530  0.00  0.00     0.121 C 
HETATM    5  C   UNK N   1      26.960  14.249   5.284  0.00  0.00     0.158 C 
HETATM    6  C   UNK N   1      23.477  15.844   4.698  0.00  0.00     0.158 C 
HETATM    7  C   UNK N   1      23.327  10.860   2.719  0.00  0.00     0.186 C 
HETATM    8  C   UNK N   1      22.238  13.020   5.676  0.00  0.00     0.186 C 
HETATM    9  C   UNK N   1      25.522  14.299   4.776  0.00  0.00     0.135 C 
HETATM   10  C   UNK N   1      22.305  15.009   4.136  0.00  0.00     0.135 C 
HETATM   11  C   UNK N   1      24.514  11.543   2.060  0.00  0.00     0.137 C 
HETATM   12  C   UNK N   1      22.809  11.818   4.976  0.00  0.00     0.138 C 
HETATM   13  N   UNK N   1      25.695  11.029   2.122  0.00  0.00    -0.373 N 
ATOM     14  HN  UNK N   1      25.822  10.138   2.604  1.00  0.00     0.161 HD
HETATM   15  N   UNK N   1      24.848  15.385   4.952  0.00  0.00    -0.361 N 
ATOM     16  HN  UNK N   1      25.417  16.118   5.376  1.00  0.00     0.162 HD
HETATM   17  N   UNK N   1      21.795  13.918   4.622  0.00  0.00    -0.358 N 
ATOM     18  HN  UNK N   1      20.919  13.639   4.181  1.00  0.00     0.162 HD
HETATM   19  N   UNK N   1      22.784  11.800   3.677  0.00  0.00    -0.358 N 
ATOM     20  HN  UNK N   1      22.293  12.590   3.257  1.00  0.00     0.162 HD
HETATM   21  O   UNK N   1      21.684  15.530   3.057  0.00  0.00    -0.348 OA
HETATM   22  H   UNK N   1      21.313  15.781   2.235  0.00  0.00     0.219 HD
ENDROOT
BRANCH   6  23
HETATM   23  C   UNK N   1      23.009  16.561   5.945  0.00  0.00     0.035 C 
BRANCH  23  24
HETATM   24  C   UNK N   1      21.633  17.142   5.720  0.00  0.00     0.025 C 
BRANCH  24  25
HETATM   25  C   UNK N   1      20.857  17.140   6.998  0.00  0.00     0.158 C 
BRANCH  25  26
HETATM   26  N   UNK N   1      19.807  16.177   6.892  0.00  0.00    -0.236 N 
BRANCH  26  27
HETATM   27  C   UNK N   1      19.161  16.029   5.720  0.00  0.00     0.376 C 
HETATM   28  O   UNK N   1      17.954  15.852   5.700  0.00  0.00    -0.281 OA
ENDBRANCH  26  27
BRANCH  26  29
HETATM   29  O   UNK N   1      19.485  15.427   7.950  0.00  0.00    -0.285 OA
HETATM   30  H   UNK N   1      18.595  15.220   8.273  0.00  0.00     0.245 HD
ENDBRANCH  26  29
ENDBRANCH  25  26
ENDBRANCH  24  25
ENDBRANCH  23  24
ENDBRANCH   6  23
BRANCH   8  31
HETATM   31  C   UNK N   1      21.068  12.576   6.590  0.00  0.00     0.144 C 
HETATM   32  C   UNK N   1      21.477  12.522   8.057  0.00  0.00     0.042 C 
BRANCH  31  33
HETATM   33  O   UNK N   1      20.588  11.323   6.213  0.00  0.00    -0.393 OA
HETATM   34  H   UNK N   1      21.204  10.581   6.103  0.00  0.00     0.210 HD
ENDBRANCH  31  33
ENDBRANCH   8  31
BRANCH   9  35
HETATM   35  O   UNK N   1      24.982  13.238   4.185  0.00  0.00    -0.348 OA
HETATM   36  H   UNK N   1      24.671  13.280   3.302  0.00  0.00     0.219 HD
ENDBRANCH   9  35
BRANCH  12  37
HETATM   37  O   UNK N   1      23.407  10.851   5.698  0.00  0.00    -0.348 OA
HETATM   38  H   UNK N   1      23.768  10.492   6.485  0.00  0.00     0.219 HD
ENDBRANCH  12  37
BRANCH   5  39
HETATM   39  N   UNK N   1      27.511  15.584   5.163  0.00  0.00    -0.361 N 
HETATM   40  C   UNK N   1      27.522  16.624   5.919  0.00  0.00     0.135 C 
ATOM     41  HN  UNK N   1      27.999  15.732   4.280  1.00  0.00     0.162 HD
BRANCH  40  42
HETATM   42  C   UNK N   1      28.344  17.829   5.464  0.00  0.00     0.158 C 
BRANCH  42  43
HETATM   43  C   UNK N   1      27.422  19.036   5.291  0.00  0.00     0.035 C 
BRANCH  43  44
HETATM   44  C   UNK N   1      26.915  19.155   3.858  0.00  0.00     0.025 C 
BRANCH  44  45
HETATM   45  C   UNK N   1      25.404  18.993   3.792  0.00  0.00     0.158 C 
BRANCH  45  46
HETATM   46  N   UNK N   1      24.803  20.061   3.044  0.00  0.00    -0.236 N 
BRANCH  46  47
HETATM   47  C   UNK N   1      23.479  20.297   3.143  0.00  0.00     0.376 C 
HETATM   48  O   UNK N   1      23.013  21.390   2.870  0.00  0.00    -0.281 OA
ENDBRANCH  46  47
BRANCH  46  49
HETATM   49  O   UNK N   1      25.576  20.857   2.280  0.00  0.00    -0.285 OA
HETATM   50  H   UNK N   1      26.543  20.904   2.226  0.00  0.00     0.245 HD
ENDBRANCH  46  49
ENDBRANCH  45  46
ENDBRANCH  44  45
ENDBRANCH  43  44
ENDBRANCH  42  43
BRANCH  42  51
HETATM   51  N   UNK N   1      29.054  17.646   4.202  0.00  0.00    -0.361 N 
HETATM   52  C   UNK N   1      30.221  17.131   3.961  0.00  0.00     0.137 C 
ATOM     53  HN  UNK N   1      28.552  17.976   3.377  1.00  0.00     0.162 HD
BRANCH  52  54
HETATM   54  C   UNK N   1      31.115  16.514   5.020  0.00  0.00     0.181 C 
BRANCH  54  55
HETATM   55  C   UNK N   1      31.184  14.986   4.968  0.00  0.00     0.197 C 
BRANCH  55  56
HETATM   56  O   UNK N   1      30.532  14.369   6.035  0.00  0.00    -0.398 OA
HETATM   57  H   UNK N   1      29.909  14.666   6.717  0.00  0.00     0.209 HD
ENDBRANCH  55  56
ENDBRANCH  54  55
BRANCH  54  58
HETATM   58  N   UNK N   1      32.328  17.210   5.430  0.00  0.00    -0.359 N 
HETATM   59  C   UNK N   1      33.456  16.829   5.932  0.00  0.00     0.135 C 
ATOM     60  HN  UNK N   1      32.274  18.218   5.289  1.00  0.00     0.162 HD
BRANCH  59  61
HETATM   61  C   UNK N   1      33.836  15.404   6.197  0.00  0.00     0.158 C 
BRANCH  61  62
HETATM   62  C   UNK N   1      34.422  15.254   7.593  0.00  0.00     0.035 C 
BRANCH  62  63
HETATM   63  C   UNK N   1      33.556  14.411   8.523  0.00  0.00     0.023 C 
BRANCH  63  64
HETATM   64  C   UNK N   1      33.329  15.077   9.869  0.00  0.00     0.138 C 
BRANCH  64  65
HETATM   65  N   UNK N   1      34.468  14.850  10.718  0.00  0.00    -0.227 N 
HETATM   66  C   UNK N   1      35.310  15.915  11.129  0.00  0.00     0.665 C 
HETATM   67  N   UNK N   1      35.111  17.107  10.702  0.00  0.00    -0.235 N 
HETATM   68  N   UNK N   1      36.391  15.653  11.998  0.00  0.00    -0.235 N 
HETATM   69  H   UNK N   1      35.699  17.893  10.788  0.00  0.00     0.174 HD
ATOM     70  HN  UNK N   1      34.231  17.262  10.209  1.00  0.00     0.174 HD
HETATM   71  H   UNK N   1      36.771  14.748  12.074  0.00  0.00     0.174 HD
HETATM   72  H   UNK N   1      36.769  16.386  12.534  0.00  0.00     0.174 HD
HETATM   73  H   UNK N   1      34.668  13.935  11.020  0.00  0.00     0.177 HD
ENDBRANCH  64  65
ENDBRANCH  63  64
ENDBRANCH  62  63
ENDBRANCH  61  62
BRANCH  61  74
HETATM   74  N   UNK N   1      34.782  14.982   5.192  0.00  0.00    -0.361 N 
HETATM   75  C   UNK N   1      35.029  13.769   4.827  0.00  0.00     0.137 C 
ATOM     76  HN  UNK N   1      35.309  15.719   4.720  1.00  0.00     0.162 HD
BRANCH  75  77
HETATM   77  C   UNK N   1      34.437  12.547   5.492  0.00  0.00     0.181 C 
BRANCH  77  78
HETATM   78  C   UNK N   1      33.219  12.095   4.701  0.00  0.00     0.197 C 
BRANCH  78  79
HETATM   79  O   UNK N   1      32.185  11.716   5.561  0.00  0.00    -0.398 OA
HETATM   80  H   UNK N   1      31.754  11.736   6.429  0.00  0.00     0.209 HD
ENDBRANCH  78  79
ENDBRANCH  77  78
BRANCH  77  81
HETATM   81  N   UNK N   1      35.339  11.399   5.602  0.00  0.00    -0.359 N 
HETATM   82  C   UNK N   1      35.897  10.919   6.671  0.00  0.00     0.135 C 
ATOM     83  HN  UNK N   1      35.555  10.916   4.730  1.00  0.00     0.162 HD
BRANCH  82  84
HETATM   84  C   UNK N   1      35.896  11.656   7.988  0.00  0.00     0.163 C 
HETATM   85  C   UNK N   1      37.346  12.084   8.292  0.00  0.00     0.053 C 
HETATM   86  C   UNK N   1      38.013  11.095   9.259  0.00  0.00     0.118 C 
HETATM   87  N   UNK N   1      37.264  10.932  10.521  0.00  0.00    -0.397 N 
HETATM   88  C   UNK N   1      35.874  11.405  10.425  0.00  0.00     0.232 A 
HETATM   89  H   UNK N   1      37.667  10.535  11.369  0.00  0.00     0.155 HD
HETATM   90  C   UNK N   1      35.103  10.998  11.661  0.00  0.00     0.055 A 
HETATM   91  N   UNK N   1      35.319  10.976   9.146  0.00  0.00    -0.341 N 
HETATM   92  C   UNK N   1      33.971  10.287  11.571  0.00  0.00     0.043 A 
HETATM   93  C   UNK N   1      33.413   9.898  10.269  0.00  0.00    -0.005 A 
HETATM   94  C   UNK N   1      32.193   9.212  10.208  0.00  0.00     0.053 A 
HETATM   95  C   UNK N   1      34.098  10.222   9.087  0.00  0.00     0.046 A 
HETATM   96  C   UNK N   1      31.659   8.827   8.972  0.00  0.00     0.099 A 
HETATM   97  C   UNK N   1      32.358   9.108   7.797  0.00  0.00     0.101 A 
HETATM   98  C   UNK N   1      33.562   9.797   7.866  0.00  0.00     0.069 A 
BRANCH  90  99
HETATM   99  N   UNK N   1      35.636  11.311  12.947  0.00  0.00    -0.327 N 
HETATM  100  C   UNK N   1      35.492  12.518  13.567  0.00  0.00     0.222 C 
HETATM  101  O   UNK N   1      34.640  13.317  13.214  0.00  0.00    -0.273 OA
HETATM  102  H   UNK N   1      36.140  10.609  13.418  0.00  0.00     0.168 HD
BRANCH 100 103
HETATM  103  C   UNK N   1      36.418  12.891  14.670  0.00  0.00     0.113 C 
BRANCH 103 104
HETATM  104  C   UNK N   1      35.932  12.203  15.943  0.00  0.00     0.119 C 
BRANCH 104 105
HETATM  105  C   UNK N   1      34.991  13.063  16.731  0.00  0.00     0.139 C 
HETATM  106  O   UNK N   1      33.902  13.379  16.274  0.00  0.00    -0.650 OA
BRANCH 105 107
HETATM  107  O   UNK N   1      35.367  13.522  17.938  0.00  0.00    -0.776 OA
HETATM  108  H   UNK N   1      34.856  13.478  18.723  0.00  0.00     0.167 HD
ENDBRANCH 105 107
ENDBRANCH 104 105
ENDBRANCH 103 104
ENDBRANCH 100 103
ENDBRANCH  90  99
BRANCH  96 109
HETATM  109  O   UNK N   1      30.480   8.186   8.917  0.00  0.00    -0.358 OA
HETATM  110  H   UNK N   1      29.706   8.646   8.656  0.00  0.00     0.217 HD
ENDBRANCH  96 109
BRANCH  97 111
HETATM  111  O   UNK N   1      31.875   8.725   6.603  0.00  0.00    -0.358 OA
HETATM  112  H   UNK N   1      31.126   8.169   6.512  0.00  0.00     0.217 HD
ENDBRANCH  97 111
ENDBRANCH  82  84
BRANCH  82 113
HETATM  113  O   UNK N   1      36.565   9.751   6.581  0.00  0.00    -0.348 OA
HETATM  114  H   UNK N   1      37.070   9.015   6.297  0.00  0.00     0.219 HD
ENDBRANCH  82 113
ENDBRANCH  77  81
ENDBRANCH  75  77
BRANCH  75 115
HETATM  115  O   UNK N   1      35.891  13.570   3.811  0.00  0.00    -0.348 OA
HETATM  116  H   UNK N   1      36.314  13.545   2.975  0.00  0.00     0.219 HD
ENDBRANCH  75 115
ENDBRANCH  61  74
ENDBRANCH  59  61
BRANCH  59 117
HETATM  117  O   UNK N   1      34.349  17.784   6.255  0.00  0.00    -0.348 OA
HETATM  118  H   UNK N   1      34.599  18.563   6.712  0.00  0.00     0.219 HD
ENDBRANCH  59 117
ENDBRANCH  54  58
ENDBRANCH  52  54
BRANCH  52 119
HETATM  119  O   UNK N   1      30.639  17.096   2.680  0.00  0.00    -0.348 OA
HETATM  120  H   UNK N   1      31.049  17.744   2.142  0.00  0.00     0.219 HD
ENDBRANCH  52 119
ENDBRANCH  42  51
ENDBRANCH  40  42
BRANCH  40 121
HETATM  121  O   UNK N   1      26.899  16.618   7.115  0.00  0.00    -0.348 OA
HETATM  122  H   UNK N   1      27.007  17.301   7.748  0.00  0.00     0.219 HD
ENDBRANCH  40 121
ENDBRANCH   5  39
BRANCH   7 123
HETATM  123  C   UNK N   1      23.614   9.459   3.293  0.00  0.00     0.144 C 
HETATM  124  C   UNK N   1      24.026   8.505   2.187  0.00  0.00     0.042 C 
BRANCH 123 125
HETATM  125  O   UNK N   1      22.456   8.957   3.893  0.00  0.00    -0.393 OA
HETATM  126  H   UNK N   1      22.327   8.007   4.046  0.00  0.00     0.210 HD
ENDBRANCH 123 125
ENDBRANCH   7 123
BRANCH  11 127
HETATM  127  O   UNK N   1      24.321  12.731   1.444  0.00  0.00    -0.348 OA
HETATM  128  H   UNK N   1      24.716  13.557   1.241  0.00  0.00     0.219 HD
ENDBRANCH  11 127
TORSDOF 49
ENDMDL
MODEL 8
REMARK VINA RESULT:      -6.8      2.615     13.119
REMARK WARNING: 32 MAX_TORS EXCEEDED!!!
REMARK  49 active torsions:
REMARK  status: ('A' for Active; 'I' for Inactive)
REMARK    1  A    between atoms: C_9  and  C_5 
REMARK    2  A    between atoms: C_16  and  C_5 
REMARK    3  A    between atoms: C_10  and  C_6 
REMARK    4  A    between atoms: C_18  and  C_6 
REMARK    5  A    between atoms: C_11  and  C_7 
REMARK    6  A    between atoms: C_19  and  C_7 
REMARK    7  A    between atoms: C_31  and  C_9 
REMARK    8  A    between atoms: C_32  and  C_10 
REMARK    9  A    between atoms: C_33  and  C_11 
REMARK   10  A    between atoms: C_13  and  C_12 
REMARK   11  A    between atoms: C_41  and  C_12 
REMARK   12  A    between atoms: C_42  and  C_13 
REMARK   13  A    between atoms: N_62  and  C_16 
REMARK   14  A    between atoms: N_80  and  C_18 
REMARK   15  A    between atoms: N_81  and  C_19 
REMARK   16  A    between atoms: C_35  and  C_23 
REMARK   17  A    between atoms: O_83  and  C_23 
REMARK   18  A    between atoms: C_36  and  C_24 
REMARK   19  A    between atoms: O_84  and  C_24 
REMARK   20  A    between atoms: N_80  and  C_25 
REMARK   21  A    between atoms: N_81  and  C_26 
REMARK   22  A    between atoms: C_43  and  C_27 
REMARK   23  A    between atoms: C_27  and  O_87 
REMARK   24  A    between atoms: C_44  and  C_28 
REMARK   25  A    between atoms: C_28  and  O_88 
REMARK   26  A    between atoms: C_30  and  N_64 
REMARK   27  A    between atoms: C_48  and  C_31 
REMARK   28  A    between atoms: C_31  and  N_68 
REMARK   29  A    between atoms: C_47  and  C_32 
REMARK   30  A    between atoms: C_32  and  N_70 
REMARK   31  A    between atoms: N_63  and  C_34 
REMARK   32  A    between atoms: C_50  and  C_35 
REMARK   33  A    between atoms: C_35  and  N_72 
REMARK   34  A    between atoms: C_51  and  C_36 
REMARK   35  A    between atoms: C_36  and  N_74 
REMARK   36  A    between atoms: C_52  and  C_37 
REMARK   37  A    between atoms: O_89  and  C_39 
REMARK   38  A    between atoms: O_90  and  C_40 
REMARK       I    between atoms: N_63  and  C_41 
REMARK   39  A    between atoms: O_93  and  C_42 
REMARK   40  A    between atoms: C_46  and  O_94 
REMARK   41  A    between atoms: C_47  and  O_95 
REMARK   42  A    between atoms: C_48  and  O_96 
REMARK   43  A    between atoms: C_50  and  O_98 
REMARK   44  A    between atoms: C_51  and  O_99 
REMARK   45  A    between atoms: C_52  and  O_100 
REMARK   46  A    between atoms: O_101  and  C_53 
REMARK   47  A    between atoms: C_54  and  O_102 
REMARK       I    between atoms: N_58  and  C_55 
REMARK       I    between atoms: N_62  and  C_55 
REMARK   48  A    between atoms: O_103  and  N_80 
REMARK   49  A    between atoms: O_104  and  N_81 
ROOT
HETATM    1  C   UNK N   1      23.728  17.934   4.810  0.00  0.00     0.004 C 
HETATM    2  C   UNK N   1      22.295  18.420   4.827  0.00  0.00     0.020 C 
HETATM    3  C   UNK N   1      23.997  17.230   3.491  0.00  0.00     0.033 C 
HETATM    4  C   UNK N   1      21.588  17.903   6.069  0.00  0.00     0.121 C 
HETATM    5  C   UNK N   1      24.987  16.071   3.652  0.00  0.00     0.158 C 
HETATM    6  C   UNK N   1      25.442  13.011   5.985  0.00  0.00     0.158 C 
HETATM    7  C   UNK N   1      20.247  14.347   6.065  0.00  0.00     0.186 C 
HETATM    8  C   UNK N   1      22.745  11.833   4.640  0.00  0.00     0.186 C 
HETATM    9  C   UNK N   1      24.538  14.998   4.639  0.00  0.00     0.135 C 
HETATM   10  C   UNK N   1      24.222  12.309   6.622  0.00  0.00     0.135 C 
HETATM   11  C   UNK N   1      21.015  15.607   6.427  0.00  0.00     0.137 C 
HETATM   12  C   UNK N   1      21.589  12.794   4.628  0.00  0.00     0.138 C 
HETATM   13  N   UNK N   1      20.850  16.700   5.763  0.00  0.00    -0.373 N 
ATOM     14  HN  UNK N   1      20.175  16.716   4.998  1.00  0.00     0.161 HD
HETATM   15  N   UNK N   1      25.426  14.185   5.104  0.00  0.00    -0.361 N 
ATOM     16  HN  UNK N   1      26.362  14.420   4.775  1.00  0.00     0.162 HD
HETATM   17  N   UNK N   1      23.200  11.779   6.020  0.00  0.00    -0.358 N 
ATOM     18  HN  UNK N   1      22.604  11.220   6.631  1.00  0.00     0.162 HD
HETATM   19  N   UNK N   1      21.232  13.332   5.754  0.00  0.00    -0.358 N 
ATOM     20  HN  UNK N   1      21.736  12.976   6.567  1.00  0.00     0.162 HD
HETATM   21  O   UNK N   1      24.273  12.153   7.961  0.00  0.00    -0.348 OA
HETATM   22  H   UNK N   1      24.202  12.144   8.895  0.00  0.00     0.219 HD
ENDROOT
BRANCH   6  23
HETATM   23  C   UNK N   1      26.312  11.968   5.322  0.00  0.00     0.035 C 
BRANCH  23  24
HETATM   24  C   UNK N   1      27.448  12.638   4.584  0.00  0.00     0.025 C 
BRANCH  24  25
HETATM   25  C   UNK N   1      28.010  11.711   3.554  0.00  0.00     0.158 C 
BRANCH  25  26
HETATM   26  N   UNK N   1      28.220  12.445   2.346  0.00  0.00    -0.236 N 
BRANCH  26  27
HETATM   27  C   UNK N   1      29.475  12.761   1.973  0.00  0.00     0.376 C 
HETATM   28  O   UNK N   1      29.871  13.912   2.056  0.00  0.00    -0.281 OA
ENDBRANCH  26  27
BRANCH  26  29
HETATM   29  O   UNK N   1      27.174  12.800   1.595  0.00  0.00    -0.285 OA
HETATM   30  H   UNK N   1      26.397  13.309   1.875  0.00  0.00     0.245 HD
ENDBRANCH  26  29
ENDBRANCH  25  26
ENDBRANCH  24  25
ENDBRANCH  23  24
ENDBRANCH   6  23
BRANCH   8  31
HETATM   31  C   UNK N   1      22.271  10.448   4.130  0.00  0.00     0.144 C 
HETATM   32  C   UNK N   1      21.414   9.722   5.161  0.00  0.00     0.042 C 
BRANCH  31  33
HETATM   33  O   UNK N   1      23.357   9.639   3.802  0.00  0.00    -0.393 OA
HETATM   34  H   UNK N   1      24.111  10.012   3.319  0.00  0.00     0.210 HD
ENDBRANCH  31  33
ENDBRANCH   8  31
BRANCH   9  35
HETATM   35  O   UNK N   1      23.260  14.901   4.991  0.00  0.00    -0.348 OA
HETATM   36  H   UNK N   1      22.575  14.986   4.358  0.00  0.00     0.219 HD
ENDBRANCH   9  35
BRANCH  12  37
HETATM   37  O   UNK N   1      21.024  13.137   3.454  0.00  0.00    -0.348 OA
HETATM   38  H   UNK N   1      20.505  13.688   2.901  0.00  0.00     0.219 HD
ENDBRANCH  12  37
BRANCH   5  39
HETATM   39  N   UNK N   1      26.340  16.450   4.005  0.00  0.00    -0.361 N 
HETATM   40  C   UNK N   1      27.486  16.321   3.438  0.00  0.00     0.135 C 
ATOM     41  HN  UNK N   1      26.395  16.925   4.905  1.00  0.00     0.162 HD
BRANCH  40  42
HETATM   42  C   UNK N   1      28.691  16.989   4.101  0.00  0.00     0.158 C 
BRANCH  42  43
HETATM   43  C   UNK N   1      28.398  18.475   4.304  0.00  0.00     0.035 C 
BRANCH  43  44
HETATM   44  C   UNK N   1      28.180  18.810   5.776  0.00  0.00     0.025 C 
BRANCH  44  45
HETATM   45  C   UNK N   1      28.763  17.734   6.680  0.00  0.00     0.158 C 
BRANCH  45  46
HETATM   46  N   UNK N   1      27.770  17.229   7.585  0.00  0.00    -0.236 N 
BRANCH  46  47
HETATM   47  C   UNK N   1      27.812  17.561   8.892  0.00  0.00     0.376 C 
HETATM   48  O   UNK N   1      27.443  16.779   9.752  0.00  0.00    -0.281 OA
ENDBRANCH  46  47
BRANCH  46  49
HETATM   49  O   UNK N   1      26.768  16.461   7.115  0.00  0.00    -0.285 OA
HETATM   50  H   UNK N   1      26.272  16.539   6.285  0.00  0.00     0.245 HD
ENDBRANCH  46  49
ENDBRANCH  45  46
ENDBRANCH  44  45
ENDBRANCH  43  44
ENDBRANCH  42  43
BRANCH  42  51
HETATM   51  N   UNK N   1      29.937  16.896   3.346  0.00  0.00    -0.361 N 
HETATM   52  C   UNK N   1      31.156  16.714   3.755  0.00  0.00     0.137 C 
ATOM     53  HN  UNK N   1      29.833  16.989   2.336  1.00  0.00     0.162 HD
BRANCH  52  54
HETATM   54  C   UNK N   1      31.542  16.482   5.204  0.00  0.00     0.181 C 
BRANCH  54  55
HETATM   55  C   UNK N   1      31.360  15.039   5.678  0.00  0.00     0.197 C 
BRANCH  55  56
HETATM   56  O   UNK N   1      30.998  14.165   4.654  0.00  0.00    -0.398 OA
HETATM   57  H   UNK N   1      30.817  13.213   4.602  0.00  0.00     0.209 HD
ENDBRANCH  55  56
ENDBRANCH  54  55
BRANCH  54  58
HETATM   58  N   UNK N   1      32.660  17.222   5.776  0.00  0.00    -0.359 N 
HETATM   59  C   UNK N   1      33.777  16.878   6.326  0.00  0.00     0.135 C 
ATOM     60  HN  UNK N   1      32.533  18.232   5.731  1.00  0.00     0.162 HD
BRANCH  59  61
HETATM   61  C   UNK N   1      34.256  15.465   6.478  0.00  0.00     0.158 C 
BRANCH  61  62
HETATM   62  C   UNK N   1      34.689  15.196   7.912  0.00  0.00     0.035 C 
BRANCH  62  63
HETATM   63  C   UNK N   1      33.704  14.324   8.685  0.00  0.00     0.023 C 
BRANCH  63  64
HETATM   64  C   UNK N   1      33.279  14.954  10.000  0.00  0.00     0.138 C 
BRANCH  64  65
HETATM   65  N   UNK N   1      34.253  14.653  11.016  0.00  0.00    -0.227 N 
HETATM   66  C   UNK N   1      35.155  15.637  11.493  0.00  0.00     0.665 C 
HETATM   67  N   UNK N   1      35.167  16.814  10.984  0.00  0.00    -0.235 N 
HETATM   68  N   UNK N   1      36.064  15.310  12.522  0.00  0.00    -0.235 N 
HETATM   69  H   UNK N   1      35.830  17.531  11.116  0.00  0.00     0.174 HD
ATOM     70  HN  UNK N   1      34.390  17.037  10.361  1.00  0.00     0.174 HD
HETATM   71  H   UNK N   1      36.315  14.374  12.697  0.00  0.00     0.174 HD
HETATM   72  H   UNK N   1      36.452  16.028  13.071  0.00  0.00     0.174 HD
HETATM   73  H   UNK N   1      34.294  13.742  11.389  0.00  0.00     0.177 HD
ENDBRANCH  64  65
ENDBRANCH  63  64
ENDBRANCH  62  63
ENDBRANCH  61  62
BRANCH  61  74
HETATM   74  N   UNK N   1      35.346  15.243   5.559  0.00  0.00    -0.361 N 
HETATM   75  C   UNK N   1      35.684  14.120   5.021  0.00  0.00     0.137 C 
ATOM     76  HN  UNK N   1      35.907  16.058   5.308  1.00  0.00     0.162 HD
BRANCH  75  77
HETATM   77  C   UNK N   1      35.048  12.792   5.363  0.00  0.00     0.181 C 
BRANCH  77  78
HETATM   78  C   UNK N   1      34.026  12.443   4.292  0.00  0.00     0.197 C 
BRANCH  78  79
HETATM   79  O   UNK N   1      32.875  11.897   4.867  0.00  0.00    -0.398 OA
HETATM   80  H   UNK N   1      31.945  11.629   4.812  0.00  0.00     0.209 HD
ENDBRANCH  78  79
ENDBRANCH  77  78
BRANCH  77  81
HETATM   81  N   UNK N   1      35.977  11.664   5.466  0.00  0.00    -0.359 N 
HETATM   82  C   UNK N   1      36.615  11.247   6.516  0.00  0.00     0.135 C 
ATOM     83  HN  UNK N   1      36.142  11.142   4.606  1.00  0.00     0.162 HD
BRANCH  82  84
HETATM   84  C   UNK N   1      36.689  12.049   7.793  0.00  0.00     0.163 C 
HETATM   85  C   UNK N   1      38.172  12.378   8.059  0.00  0.00     0.053 C 
HETATM   86  C   UNK N   1      38.776  11.392   9.069  0.00  0.00     0.118 C 
HETATM   87  N   UNK N   1      38.035  11.352  10.346  0.00  0.00    -0.397 N 
HETATM   88  C   UNK N   1      36.683  11.926  10.240  0.00  0.00     0.232 A 
HETATM   89  H   UNK N   1      38.418  10.970  11.209  0.00  0.00     0.155 HD
HETATM   90  C   UNK N   1      35.901  11.644  11.503  0.00  0.00     0.055 A 
HETATM   91  N   UNK N   1      36.078  11.475   8.992  0.00  0.00    -0.341 N 
HETATM   92  C   UNK N   1      34.718  11.018  11.463  0.00  0.00     0.043 A 
HETATM   93  C   UNK N   1      34.113  10.607  10.189  0.00  0.00    -0.005 A 
HETATM   94  C   UNK N   1      32.842  10.015  10.176  0.00  0.00     0.053 A 
HETATM   95  C   UNK N   1      34.803  10.816   8.985  0.00  0.00     0.046 A 
HETATM   96  C   UNK N   1      32.263   9.610   8.968  0.00  0.00     0.099 A 
HETATM   97  C   UNK N   1      32.964   9.775   7.773  0.00  0.00     0.101 A 
HETATM   98  C   UNK N   1      34.219  10.372   7.793  0.00  0.00     0.069 A 
BRANCH  90  99
HETATM   99  N   UNK N   1      36.475  11.981  12.766  0.00  0.00    -0.327 N 
HETATM  100  C   UNK N   1      37.020  11.076  13.629  0.00  0.00     0.222 C 
HETATM  101  O   UNK N   1      37.341   9.957  13.261  0.00  0.00    -0.273 OA
HETATM  102  H   UNK N   1      36.478  12.929  13.031  0.00  0.00     0.168 HD
BRANCH 100 103
HETATM  103  C   UNK N   1      37.192  11.440  15.061  0.00  0.00     0.113 C 
BRANCH 103 104
HETATM  104  C   UNK N   1      36.810  12.909  15.221  0.00  0.00     0.119 C 
BRANCH 104 105
HETATM  105  C   UNK N   1      35.354  13.088  15.530  0.00  0.00     0.139 C 
HETATM  106  O   UNK N   1      34.563  13.401  14.652  0.00  0.00    -0.650 OA
BRANCH 105 107
HETATM  107  O   UNK N   1      34.923  12.940  16.796  0.00  0.00    -0.776 OA
HETATM  108  H   UNK N   1      34.690  13.636  17.379  0.00  0.00     0.167 HD
ENDBRANCH 105 107
ENDBRANCH 104 105
ENDBRANCH 103 104
ENDBRANCH 100 103
ENDBRANCH  90  99
BRANCH  96 109
HETATM  109  O   UNK N   1      31.038   9.059   8.959  0.00  0.00    -0.358 OA
HETATM  110  H   UNK N   1      30.376   9.393   8.386  0.00  0.00     0.217 HD
ENDBRANCH  96 109
BRANCH  97 111
HETATM  111  O   UNK N   1      32.437   9.369   6.606  0.00  0.00    -0.358 OA
HETATM  112  H   UNK N   1      32.824   8.698   6.078  0.00  0.00     0.217 HD
ENDBRANCH  97 111
ENDBRANCH  82  84
BRANCH  82 113
HETATM  113  O   UNK N   1      37.297  10.086   6.437  0.00  0.00    -0.348 OA
HETATM  114  H   UNK N   1      37.878   9.390   6.202  0.00  0.00     0.219 HD
ENDBRANCH  82 113
ENDBRANCH  77  81
ENDBRANCH  75  77
BRANCH  75 115
HETATM  115  O   UNK N   1      36.685  14.119   4.119  0.00  0.00    -0.348 OA
HETATM  116  H   UNK N   1      37.197  14.165   3.336  0.00  0.00     0.219 HD
ENDBRANCH  75 115
ENDBRANCH  61  74
ENDBRANCH  59  61
BRANCH  59 117
HETATM  117  O   UNK N   1      34.563  17.858   6.811  0.00  0.00    -0.348 OA
HETATM  118  H   UNK N   1      34.713  18.747   7.069  0.00  0.00     0.219 HD
ENDBRANCH  59 117
ENDBRANCH  54  58
ENDBRANCH  52  54
BRANCH  52 119
HETATM  119  O   UNK N   1      32.130  16.677   2.825  0.00  0.00    -0.348 OA
HETATM  120  H   UNK N   1      32.219  17.111   2.000  0.00  0.00     0.219 HD
ENDBRANCH  52 119
ENDBRANCH  42  51
ENDBRANCH  40  42
BRANCH  40 121
HETATM  121  O   UNK N   1      27.607  15.690   2.252  0.00  0.00    -0.348 OA
HETATM  122  H   UNK N   1      28.285  15.068   2.074  0.00  0.00     0.219 HD
ENDBRANCH  40 121
ENDBRANCH   5  39
BRANCH   7 123
HETATM  123  C   UNK N   1      19.160  14.530   4.987  0.00  0.00     0.144 C 
HETATM  124  C   UNK N   1      18.246  15.687   5.345  0.00  0.00     0.042 C 
BRANCH 123 125
HETATM  125  O   UNK N   1      18.384  13.371   4.907  0.00  0.00    -0.393 OA
HETATM  126  H   UNK N   1      17.543  13.281   5.382  0.00  0.00     0.210 HD
ENDBRANCH 123 125
ENDBRANCH   7 123
BRANCH  11 127
HETATM  127  O   UNK N   1      21.915  15.552   7.435  0.00  0.00    -0.348 OA
HETATM  128  H   UNK N   1      22.763  15.838   7.714  0.00  0.00     0.219 HD
ENDBRANCH  11 127
TORSDOF 49
ENDMDL
MODEL 9
REMARK VINA RESULT:      -6.8      3.142     14.710
REMARK WARNING: 32 MAX_TORS EXCEEDED!!!
REMARK  49 active torsions:
REMARK  status: ('A' for Active; 'I' for Inactive)
REMARK    1  A    between atoms: C_9  and  C_5 
REMARK    2  A    between atoms: C_16  and  C_5 
REMARK    3  A    between atoms: C_10  and  C_6 
REMARK    4  A    between atoms: C_18  and  C_6 
REMARK    5  A    between atoms: C_11  and  C_7 
REMARK    6  A    between atoms: C_19  and  C_7 
REMARK    7  A    between atoms: C_31  and  C_9 
REMARK    8  A    between atoms: C_32  and  C_10 
REMARK    9  A    between atoms: C_33  and  C_11 
REMARK   10  A    between atoms: C_13  and  C_12 
REMARK   11  A    between atoms: C_41  and  C_12 
REMARK   12  A    between atoms: C_42  and  C_13 
REMARK   13  A    between atoms: N_62  and  C_16 
REMARK   14  A    between atoms: N_80  and  C_18 
REMARK   15  A    between atoms: N_81  and  C_19 
REMARK   16  A    between atoms: C_35  and  C_23 
REMARK   17  A    between atoms: O_83  and  C_23 
REMARK   18  A    between atoms: C_36  and  C_24 
REMARK   19  A    between atoms: O_84  and  C_24 
REMARK   20  A    between atoms: N_80  and  C_25 
REMARK   21  A    between atoms: N_81  and  C_26 
REMARK   22  A    between atoms: C_43  and  C_27 
REMARK   23  A    between atoms: C_27  and  O_87 
REMARK   24  A    between atoms: C_44  and  C_28 
REMARK   25  A    between atoms: C_28  and  O_88 
REMARK   26  A    between atoms: C_30  and  N_64 
REMARK   27  A    between atoms: C_48  and  C_31 
REMARK   28  A    between atoms: C_31  and  N_68 
REMARK   29  A    between atoms: C_47  and  C_32 
REMARK   30  A    between atoms: C_32  and  N_70 
REMARK   31  A    between atoms: N_63  and  C_34 
REMARK   32  A    between atoms: C_50  and  C_35 
REMARK   33  A    between atoms: C_35  and  N_72 
REMARK   34  A    between atoms: C_51  and  C_36 
REMARK   35  A    between atoms: C_36  and  N_74 
REMARK   36  A    between atoms: C_52  and  C_37 
REMARK   37  A    between atoms: O_89  and  C_39 
REMARK   38  A    between atoms: O_90  and  C_40 
REMARK       I    between atoms: N_63  and  C_41 
REMARK   39  A    between atoms: O_93  and  C_42 
REMARK   40  A    between atoms: C_46  and  O_94 
REMARK   41  A    between atoms: C_47  and  O_95 
REMARK   42  A    between atoms: C_48  and  O_96 
REMARK   43  A    between atoms: C_50  and  O_98 
REMARK   44  A    between atoms: C_51  and  O_99 
REMARK   45  A    between atoms: C_52  and  O_100 
REMARK   46  A    between atoms: O_101  and  C_53 
REMARK   47  A    between atoms: C_54  and  O_102 
REMARK       I    between atoms: N_58  and  C_55 
REMARK       I    between atoms: N_62  and  C_55 
REMARK   48  A    between atoms: O_103  and  N_80 
REMARK   49  A    between atoms: O_104  and  N_81 
ROOT
HETATM    1  C   UNK N   1      25.741  18.813   3.689  0.00  0.00     0.004 C 
HETATM    2  C   UNK N   1      25.080  19.797   2.750  0.00  0.00     0.020 C 
HETATM    3  C   UNK N   1      25.880  17.474   2.987  0.00  0.00     0.033 C 
HETATM    4  C   UNK N   1      23.862  20.413   3.419  0.00  0.00     0.121 C 
HETATM    5  C   UNK N   1      25.739  16.298   3.959  0.00  0.00     0.158 C 
HETATM    6  C   UNK N   1      23.288  15.178   6.743  0.00  0.00     0.158 C 
HETATM    7  C   UNK N   1      20.605  18.454   3.449  0.00  0.00     0.186 C 
HETATM    8  C   UNK N   1      21.103  14.785   4.389  0.00  0.00     0.186 C 
HETATM    9  C   UNK N   1      24.411  16.263   4.710  0.00  0.00     0.135 C 
HETATM   10  C   UNK N   1      21.791  15.556   6.684  0.00  0.00     0.135 C 
HETATM   11  C   UNK N   1      21.843  19.216   3.890  0.00  0.00     0.137 C 
HETATM   12  C   UNK N   1      20.953  15.973   3.479  0.00  0.00     0.138 C 
HETATM   13  N   UNK N   1      22.663  19.710   3.026  0.00  0.00    -0.373 N 
ATOM     14  HN  UNK N   1      22.458  19.601   2.032  1.00  0.00     0.161 HD
HETATM   15  N   UNK N   1      24.332  15.546   5.779  0.00  0.00    -0.361 N 
ATOM     16  HN  UNK N   1      25.229  15.125   6.019  1.00  0.00     0.162 HD
HETATM   17  N   UNK N   1      20.937  15.298   5.739  0.00  0.00    -0.358 N 
ATOM     18  HN  UNK N   1      19.968  15.491   5.993  1.00  0.00     0.162 HD
HETATM   19  N   UNK N   1      20.706  17.127   4.020  0.00  0.00    -0.358 N 
ATOM     20  HN  UNK N   1      20.556  17.093   5.029  1.00  0.00     0.162 HD
HETATM   21  O   UNK N   1      21.296  16.151   7.789  0.00  0.00    -0.348 OA
HETATM   22  H   UNK N   1      20.944  16.683   8.475  0.00  0.00     0.219 HD
ENDROOT
BRANCH   6  23
HETATM   23  C   UNK N   1      23.404  13.689   6.980  0.00  0.00     0.035 C 
BRANCH  23  24
HETATM   24  C   UNK N   1      24.333  13.423   8.142  0.00  0.00     0.025 C 
BRANCH  24  25
HETATM   25  C   UNK N   1      23.770  12.348   9.015  0.00  0.00     0.158 C 
BRANCH  25  26
HETATM   26  N   UNK N   1      24.294  12.512  10.335  0.00  0.00    -0.236 N 
BRANCH  26  27
HETATM   27  C   UNK N   1      23.647  11.957  11.377  0.00  0.00     0.376 C 
HETATM   28  O   UNK N   1      24.130  12.002  12.497  0.00  0.00    -0.281 OA
ENDBRANCH  26  27
BRANCH  26  29
HETATM   29  O   UNK N   1      25.422  13.203  10.519  0.00  0.00    -0.285 OA
HETATM   30  H   UNK N   1      26.331  12.878  10.426  0.00  0.00     0.245 HD
ENDBRANCH  26  29
ENDBRANCH  25  26
ENDBRANCH  24  25
ENDBRANCH  23  24
ENDBRANCH   6  23
BRANCH   8  31
HETATM   31  C   UNK N   1      20.030  13.725   4.034  0.00  0.00     0.144 C 
HETATM   32  C   UNK N   1      19.956  12.614   5.075  0.00  0.00     0.042 C 
BRANCH  31  33
HETATM   33  O   UNK N   1      20.285  13.154   2.788  0.00  0.00    -0.393 OA
HETATM   34  H   UNK N   1      21.188  13.148   2.434  0.00  0.00     0.210 HD
ENDBRANCH  31  33
ENDBRANCH   8  31
BRANCH   9  35
HETATM   35  O   UNK N   1      23.365  16.946   4.255  0.00  0.00    -0.348 OA
HETATM   36  H   UNK N   1      22.553  16.958   4.723  0.00  0.00     0.219 HD
ENDBRANCH   9  35
BRANCH  12  37
HETATM   37  O   UNK N   1      21.169  15.828   2.157  0.00  0.00    -0.348 OA
HETATM   38  H   UNK N   1      21.573  16.055   1.343  0.00  0.00     0.219 HD
ENDBRANCH  12  37
BRANCH   5  39
HETATM   39  N   UNK N   1      26.798  16.168   4.939  0.00  0.00    -0.361 N 
HETATM   40  C   UNK N   1      28.079  16.078   4.872  0.00  0.00     0.135 C 
ATOM     41  HN  UNK N   1      26.449  16.142   5.897  1.00  0.00     0.162 HD
BRANCH  40  42
HETATM   42  C   UNK N   1      28.864  16.083   6.184  0.00  0.00     0.158 C 
BRANCH  42  43
HETATM   43  C   UNK N   1      28.025  16.745   7.276  0.00  0.00     0.035 C 
BRANCH  43  44
HETATM   44  C   UNK N   1      28.369  18.223   7.431  0.00  0.00     0.025 C 
BRANCH  44  45
HETATM   45  C   UNK N   1      28.460  18.618   8.897  0.00  0.00     0.158 C 
BRANCH  45  46
HETATM   46  N   UNK N   1      29.687  18.156   9.480  0.00  0.00    -0.236 N 
BRANCH  46  47
HETATM   47  C   UNK N   1      30.871  18.616   9.024  0.00  0.00     0.376 C 
HETATM   48  O   UNK N   1      31.744  17.850   8.656  0.00  0.00    -0.281 OA
ENDBRANCH  46  47
BRANCH  46  49
HETATM   49  O   UNK N   1      29.651  17.297  10.518  0.00  0.00    -0.285 OA
HETATM   50  H   UNK N   1      28.895  17.016  11.056  0.00  0.00     0.245 HD
ENDBRANCH  46  49
ENDBRANCH  45  46
ENDBRANCH  44  45
ENDBRANCH  43  44
ENDBRANCH  42  43
BRANCH  42  51
HETATM   51  N   UNK N   1      30.139  16.792   6.132  0.00  0.00    -0.361 N 
HETATM   52  C   UNK N   1      31.311  16.387   5.747  0.00  0.00     0.137 C 
ATOM     53  HN  UNK N   1      30.104  17.761   6.449  1.00  0.00     0.162 HD
BRANCH  52  54
HETATM   54  C   UNK N   1      31.591  15.011   5.173  0.00  0.00     0.181 C 
BRANCH  54  55
HETATM   55  C   UNK N   1      32.253  15.030   3.794  0.00  0.00     0.197 C 
BRANCH  55  56
HETATM   56  O   UNK N   1      31.820  16.084   2.990  0.00  0.00    -0.398 OA
HETATM   57  H   UNK N   1      31.079  16.709   3.026  0.00  0.00     0.209 HD
ENDBRANCH  55  56
ENDBRANCH  54  55
BRANCH  54  58
HETATM   58  N   UNK N   1      31.973  13.924   6.066  0.00  0.00    -0.359 N 
HETATM   59  C   UNK N   1      33.015  13.680   6.789  0.00  0.00     0.135 C 
ATOM     60  HN  UNK N   1      31.260  13.198   6.137  1.00  0.00     0.162 HD
BRANCH  59  61
HETATM   61  C   UNK N   1      34.195  14.595   6.924  0.00  0.00     0.158 C 
BRANCH  61  62
HETATM   62  C   UNK N   1      35.451  13.806   7.262  0.00  0.00     0.035 C 
BRANCH  62  63
HETATM   63  C   UNK N   1      36.673  14.247   6.461  0.00  0.00     0.023 C 
BRANCH  63  64
HETATM   64  C   UNK N   1      37.964  13.648   6.993  0.00  0.00     0.138 C 
BRANCH  64  65
HETATM   65  N   UNK N   1      38.060  13.889   8.408  0.00  0.00    -0.227 N 
HETATM   66  C   UNK N   1      38.830  13.050   9.252  0.00  0.00     0.665 C 
HETATM   67  N   UNK N   1      39.416  12.010   8.782  0.00  0.00    -0.235 N 
HETATM   68  N   UNK N   1      38.934  13.350  10.627  0.00  0.00    -0.235 N 
HETATM   69  H   UNK N   1      39.848  11.276   9.276  0.00  0.00     0.174 HD
ATOM     70  HN  UNK N   1      39.436  11.933   7.764  1.00  0.00     0.174 HD
HETATM   71  H   UNK N   1      38.259  13.910  11.075  0.00  0.00     0.174 HD
HETATM   72  H   UNK N   1      39.691  12.994  11.145  0.00  0.00     0.174 HD
HETATM   73  H   UNK N   1      37.581  14.655   8.799  0.00  0.00     0.177 HD
ENDBRANCH  64  65
ENDBRANCH  63  64
ENDBRANCH  62  63
ENDBRANCH  61  62
BRANCH  61  74
HETATM   74  N   UNK N   1      33.909  15.573   7.947  0.00  0.00    -0.361 N 
HETATM   75  C   UNK N   1      34.268  15.519   9.185  0.00  0.00     0.137 C 
ATOM     76  HN  UNK N   1      33.369  16.390   7.662  1.00  0.00     0.162 HD
BRANCH  75  77
HETATM   77  C   UNK N   1      34.967  14.335   9.814  0.00  0.00     0.181 C 
BRANCH  77  78
HETATM   78  C   UNK N   1      35.672  14.793  11.082  0.00  0.00     0.197 C 
BRANCH  78  79
HETATM   79  O   UNK N   1      36.764  15.607  10.773  0.00  0.00    -0.398 OA
HETATM   80  H   UNK N   1      37.224  16.220  10.178  0.00  0.00     0.209 HD
ENDBRANCH  78  79
ENDBRANCH  77  78
BRANCH  77  81
HETATM   81  N   UNK N   1      34.094  13.217  10.178  0.00  0.00    -0.359 N 
HETATM   82  C   UNK N   1      34.433  11.994  10.450  0.00  0.00     0.135 C 
ATOM     83  HN  UNK N   1      33.097  13.425  10.222  1.00  0.00     0.162 HD
BRANCH  82  84
HETATM   84  C   UNK N   1      35.816  11.456  10.181  0.00  0.00     0.163 C 
HETATM   85  C   UNK N   1      35.775  10.693   8.841  0.00  0.00     0.053 C 
HETATM   86  C   UNK N   1      35.626   9.183   9.079  0.00  0.00     0.118 C 
HETATM   87  N   UNK N   1      36.692   8.629   9.938  0.00  0.00    -0.397 N 
HETATM   88  C   UNK N   1      37.406   9.665  10.702  0.00  0.00     0.232 A 
HETATM   89  H   UNK N   1      36.912   7.635   9.995  0.00  0.00     0.155 HD
HETATM   90  C   UNK N   1      38.314   9.019  11.725  0.00  0.00     0.055 A 
HETATM   91  N   UNK N   1      36.434  10.624  11.214  0.00  0.00    -0.341 N 
HETATM   92  C   UNK N   1      38.222   9.324  13.026  0.00  0.00     0.043 A 
HETATM   93  C   UNK N   1      37.259  10.321  13.512  0.00  0.00    -0.005 A 
HETATM   94  C   UNK N   1      37.234  10.667  14.870  0.00  0.00     0.053 A 
HETATM   95  C   UNK N   1      36.370  10.934  12.614  0.00  0.00     0.046 A 
HETATM   96  C   UNK N   1      36.312  11.608  15.344  0.00  0.00     0.099 A 
HETATM   97  C   UNK N   1      35.398  12.187  14.463  0.00  0.00     0.101 A 
HETATM   98  C   UNK N   1      35.435  11.846  13.117  0.00  0.00     0.069 A 
BRANCH  90  99
HETATM   99  N   UNK N   1      39.228   8.008  11.303  0.00  0.00    -0.327 N 
HETATM  100  C   UNK N   1      40.162   8.175  10.323  0.00  0.00     0.222 C 
HETATM  101  O   UNK N   1      40.497   9.287   9.946  0.00  0.00    -0.273 OA
HETATM  102  H   UNK N   1      39.182   7.132  11.750  0.00  0.00     0.168 HD
BRANCH 100 103
HETATM  103  C   UNK N   1      40.757   6.981   9.665  0.00  0.00     0.113 C 
BRANCH 103 104
HETATM  104  C   UNK N   1      42.228   6.911  10.064  0.00  0.00     0.119 C 
BRANCH 104 105
HETATM  105  C   UNK N   1      43.138   7.390   8.973  0.00  0.00     0.139 C 
HETATM  106  O   UNK N   1      43.775   6.595   8.297  0.00  0.00    -0.650 OA
BRANCH 105 107
HETATM  107  O   UNK N   1      43.281   8.711   8.762  0.00  0.00    -0.776 OA
HETATM  108  H   UNK N   1      43.129   9.154   7.950  0.00  0.00     0.167 HD
ENDBRANCH 105 107
ENDBRANCH 104 105
ENDBRANCH 103 104
ENDBRANCH 100 103
ENDBRANCH  90  99
BRANCH  96 109
HETATM  109  O   UNK N   1      36.305  11.949  16.643  0.00  0.00    -0.358 OA
HETATM  110  H   UNK N   1      35.895  12.746  16.918  0.00  0.00     0.217 HD
ENDBRANCH  96 109
BRANCH  97 111
HETATM  111  O   UNK N   1      34.488  13.073  14.903  0.00  0.00    -0.358 OA
HETATM  112  H   UNK N   1      34.261  13.847  14.427  0.00  0.00     0.217 HD
ENDBRANCH  97 111
ENDBRANCH  82  84
BRANCH  82 113
HETATM  113  O   UNK N   1      33.489  11.155  10.925  0.00  0.00    -0.348 OA
HETATM  114  H   UNK N   1      32.920  10.642  11.464  0.00  0.00     0.219 HD
ENDBRANCH  82 113
ENDBRANCH  77  81
ENDBRANCH  75  77
BRANCH  75 115
HETATM  115  O   UNK N   1      33.979  16.567   9.981  0.00  0.00    -0.348 OA
HETATM  116  H   UNK N   1      33.548  17.213  10.505  0.00  0.00     0.219 HD
ENDBRANCH  75 115
ENDBRANCH  61  74
ENDBRANCH  59  61
BRANCH  59 117
HETATM  117  O   UNK N   1      33.052  12.512   7.459  0.00  0.00    -0.348 OA
HETATM  118  H   UNK N   1      32.867  11.983   8.210  0.00  0.00     0.219 HD
ENDBRANCH  59 117
ENDBRANCH  54  58
ENDBRANCH  52  54
BRANCH  52 119
HETATM  119  O   UNK N   1      32.332  17.265   5.815  0.00  0.00    -0.348 OA
HETATM  120  H   UNK N   1      32.401  18.108   6.218  0.00  0.00     0.219 HD
ENDBRANCH  52 119
ENDBRANCH  42  51
ENDBRANCH  40  42
BRANCH  40 121
HETATM  121  O   UNK N   1      28.712  16.067   3.682  0.00  0.00    -0.348 OA
HETATM  122  H   UNK N   1      28.393  15.590   2.941  0.00  0.00     0.219 HD
ENDBRANCH  40 121
ENDBRANCH   5  39
BRANCH   7 123
HETATM  123  C   UNK N   1      20.329  18.475   1.933  0.00  0.00     0.144 C 
HETATM  124  C   UNK N   1      20.327  19.901   1.412  0.00  0.00     0.042 C 
BRANCH 123 125
HETATM  125  O   UNK N   1      19.073  17.918   1.681  0.00  0.00    -0.393 OA
HETATM  126  H   UNK N   1      18.969  17.083   1.199  0.00  0.00     0.210 HD
ENDBRANCH 123 125
ENDBRANCH   7 123
BRANCH  11 127
HETATM  127  O   UNK N   1      22.100  19.330   5.213  0.00  0.00    -0.348 OA
HETATM  128  H   UNK N   1      21.712  19.476   6.055  0.00  0.00     0.219 HD
ENDBRANCH  11 127
TORSDOF 49
ENDMDL
