REMARK  15 active torsions:
REMARK  status: ('A' for Active; 'I' for Inactive)
REMARK    1  A    between atoms: C_23  and  C_18 
REMARK    2  A    between atoms: C_28  and  C_18 
REMARK    3  A    between atoms: C_22  and  C_19 
REMARK    4  A    between atoms: N_36  and  C_19 
REMARK    5  A    between atoms: C_26  and  C_20 
REMARK    6  A    between atoms: O_38  and  C_21 
REMARK    7  A    between atoms: C_25  and  C_24 
REMARK    8  A    between atoms: C_27  and  N_34 
REMARK    9  A    between atoms: C_30  and  C_28 
REMARK   10  A    between atoms: C_28  and  N_32 
REMARK   11  A    between atoms: O_44  and  C_29 
REMARK   12  A    between atoms: C_30  and  O_39 
REMARK   13  A    between atoms: P_45  and  O_41 
REMARK   14  A    between atoms: P_45  and  O_42 
REMARK   15  A    between atoms: P_45  and  O_44 
ROOT
HETATM    1  C   UNK N   1       2.057   4.210  -0.829  0.00  0.00     0.135 C 
HETATM    2  N   UNK N   1       1.812   2.953  -0.670  0.00  0.00    -0.359 N 
ATOM      3  HN  UNK N   1       1.289   2.473  -1.402  1.00  0.00     0.162 HD
ENDROOT
BRANCH   1   4
HETATM    4  C   UNK N   1       2.708   5.069   0.238  0.00  0.00     0.162 C 
BRANCH   4   5
HETATM    5  C   UNK N   1       4.156   5.298  -0.259  0.00  0.00     0.072 C 
BRANCH   5   6
HETATM    6  C   UNK N   1       4.764   6.646  -0.058  0.00  0.00    -0.055 A 
HETATM    7  C   UNK N   1       6.089   6.807   0.349  0.00  0.00     0.010 A 
HETATM    8  C   UNK N   1       6.642   8.095   0.401  0.00  0.00     0.039 A 
HETATM    9  C   UNK N   1       5.881   9.230   0.057  0.00  0.00     0.094 A 
HETATM   10  C   UNK N   1       4.525   9.038  -0.344  0.00  0.00     0.036 A 
HETATM   11  C   UNK N   1       4.025   7.754  -0.416  0.00  0.00     0.024 A 
BRANCH   9  12
HETATM   12  O   UNK N   1       6.504  10.439   0.134  0.00  0.00    -0.254 OA
BRANCH  12  13
HETATM   13  P   UNK N   1       5.859  12.004  -0.202  0.00  0.00     0.396 P 
HETATM   14  O   UNK N   1       4.697  12.258   0.797  0.00  0.00    -0.631 OA
BRANCH  13  15
HETATM   15  O   UNK N   1       7.044  13.236   0.081  0.00  0.00    -0.307 OA
HETATM   16  H   UNK N   1       7.973  13.006   0.240  0.00  0.00     0.222 HD
ENDBRANCH  13  15
BRANCH  13  17
HETATM   17  O   UNK N   1       5.227  12.119  -1.817  0.00  0.00    -0.307 OA
HETATM   18  H   UNK N   1       5.106  12.457  -2.718  0.00  0.00     0.222 HD
ENDBRANCH  13  17
ENDBRANCH  12  13
ENDBRANCH   9  12
BRANCH  10  19
HETATM   19  C   UNK N   1       3.585  10.113  -0.688  0.00  0.00     0.272 C 
HETATM   20  O   UNK N   1       2.414   9.872  -0.945  0.00  0.00    -0.301 OA
ENDBRANCH  10  19
ENDBRANCH   5   6
ENDBRANCH   4   5
BRANCH   4  21
HETATM   21  N   UNK N   1       1.948   6.304   0.380  0.00  0.00    -0.362 N 
HETATM   22  C   UNK N   1       0.701   6.377   0.702  0.00  0.00     0.107 C 
HETATM   23  C   UNK N   1       0.052   7.715   0.801  0.00  0.00     0.097 C 
ATOM     24  HN  UNK N   1       2.441   7.181   0.212  1.00  0.00     0.162 HD
BRANCH  22  25
HETATM   25  O   UNK N   1      -0.030   5.266   0.924  0.00  0.00    -0.350 OA
HETATM   26  H   UNK N   1      -0.952   5.320   1.078  0.00  0.00     0.219 HD
ENDBRANCH  22  25
ENDBRANCH   4  21
ENDBRANCH   1   4
BRANCH   1  27
HETATM   27  O   UNK N   1       1.735   4.786  -2.005  0.00  0.00    -0.348 OA
HETATM   28  H   UNK N   1       1.970   5.181  -2.822  0.00  0.00     0.219 HD
ENDBRANCH   1  27
BRANCH   2  29
HETATM   29  C   UNK N   1       2.229   2.176   0.481  0.00  0.00     0.175 C 
HETATM   30  C   UNK N   1       1.559   0.800   0.471  0.00  0.00     0.035 C 
HETATM   31  C   UNK N   1       1.612   0.081  -0.871  0.00  0.00     0.004 C 
HETATM   32  C   UNK N   1       3.024  -0.328  -1.243  0.00  0.00     0.020 C 
HETATM   33  C   UNK N   1       3.859   0.888  -1.633  0.00  0.00     0.126 C 
HETATM   34  N   UNK N   1       4.485   1.494  -0.466  0.00  0.00    -0.346 N 
HETATM   35  C   UNK N   1       3.744   2.077   0.525  0.00  0.00     0.242 C 
HETATM   36  O   UNK N   1       4.324   2.535   1.508  0.00  0.00    -0.271 OA
BRANCH  34  37
HETATM   37  C   UNK N   1       5.919   1.338  -0.278  0.00  0.00     0.164 C 
BRANCH  37  38
HETATM   38  C   UNK N   1       6.142  -0.067   0.161  0.00  0.00    -0.040 A 
HETATM   39  C   UNK N   1       5.303  -0.578   1.157  0.00  0.00     0.009 A 
HETATM   40  C   UNK N   1       5.173  -1.944   1.320  0.00  0.00     0.013 A 
HETATM   41  C   UNK N   1       5.910  -2.817   0.516  0.00  0.00    -0.026 A 
HETATM   42  C   UNK N   1       6.859  -2.302  -0.385  0.00  0.00     0.013 A 
HETATM   43  C   UNK N   1       6.960  -0.923  -0.577  0.00  0.00     0.009 A 
BRANCH  41  44
HETATM   44  C   UNK N   1       5.466  -4.214   0.381  0.00  0.00    -0.026 A 
HETATM   45  C   UNK N   1       6.164  -5.107  -0.442  0.00  0.00     0.012 A 
HETATM   46  C   UNK N   1       5.615  -6.352  -0.753  0.00  0.00     0.001 A 
HETATM   47  C   UNK N   1       4.348  -6.698  -0.275  0.00  0.00     0.000 A 
HETATM   48  C   UNK N   1       3.643  -5.814   0.545  0.00  0.00     0.001 A 
HETATM   49  C   UNK N   1       4.200  -4.579   0.873  0.00  0.00     0.012 A 
ENDBRANCH  41  44
ENDBRANCH  37  38
ENDBRANCH  34  37
ENDBRANCH   2  29
TORSDOF 15
