MODEL 1
REMARK VINA RESULT:      -6.5      0.000      0.000
REMARK  17 active torsions:
REMARK  status: ('A' for Active; 'I' for Inactive)
REMARK    1  A    between atoms: C_4  and  C_1 
REMARK    2  A    between atoms: O_20  and  C_1 
REMARK    3  A    between atoms: C_5  and  C_2 
REMARK    4  A    between atoms: O_21  and  C_2 
REMARK    5  A    between atoms: C_6  and  C_3 
REMARK    6  A    between atoms: O_22  and  C_3 
REMARK    7  A    between atoms: C_8  and  O_23 
REMARK    8  A    between atoms: C_9  and  O_24 
REMARK    9  A    between atoms: C_10  and  O_25 
REMARK   10  A    between atoms: C_11  and  O_26 
REMARK   11  A    between atoms: C_12  and  O_27 
REMARK   12  A    between atoms: C_13  and  O_28 
REMARK   13  A    between atoms: C_14  and  O_33 
REMARK   14  A    between atoms: C_15  and  O_34 
REMARK   15  A    between atoms: C_16  and  O_29 
REMARK   16  A    between atoms: C_17  and  O_34 
REMARK   17  A    between atoms: C_18  and  O_33 
ROOT
HETATM    1  C   UNK N   1      22.217  15.354   5.118  0.00  0.00     0.180 C 
HETATM    2  C   UNK N   1      19.695  15.297   4.797  0.00  0.00     0.183 C 
HETATM    3  C   UNK N   1      19.662  14.344   5.999  0.00  0.00     0.204 C 
HETATM    4  C   UNK N   1      20.935  16.214   4.838  0.00  0.00     0.187 C 
HETATM    5  C   UNK N   1      20.983  13.560   6.029  0.00  0.00     0.292 C 
HETATM    6  O   UNK N   1      22.061  14.469   6.226  0.00  0.00    -0.348 OA
ENDROOT
BRANCH   4   7
HETATM    7  O   UNK N   1      20.959  16.921   3.600  0.00  0.00    -0.348 OA
BRANCH   7   8
HETATM    8  C   UNK N   1      21.147  18.324   3.694  0.00  0.00     0.292 C 
HETATM    9  C   UNK N   1      20.189  18.963   2.664  0.00  0.00     0.204 C 
HETATM   10  C   UNK N   1      20.434  20.478   2.553  0.00  0.00     0.183 C 
HETATM   11  C   UNK N   1      21.922  20.729   2.267  0.00  0.00     0.180 C 
HETATM   12  C   UNK N   1      22.747  20.018   3.358  0.00  0.00     0.179 C 
HETATM   13  O   UNK N   1      22.484  18.629   3.330  0.00  0.00    -0.348 OA
BRANCH   9  14
HETATM   14  O   UNK N   1      18.859  18.710   3.005  0.00  0.00    -0.388 OA
HETATM   15  H   UNK N   1      18.281  19.432   3.299  0.00  0.00     0.210 HD
ENDBRANCH   9  14
BRANCH  10  16
HETATM   16  O   UNK N   1      20.072  21.109   3.748  0.00  0.00    -0.390 OA
HETATM   17  H   UNK N   1      19.578  21.482   4.494  0.00  0.00     0.210 HD
ENDBRANCH  10  16
BRANCH  11  18
HETATM   18  O   UNK N   1      22.250  20.224   1.003  0.00  0.00    -0.390 OA
HETATM   19  H   UNK N   1      22.476  20.134   0.064  0.00  0.00     0.210 HD
ENDBRANCH  11  18
BRANCH  12  20
HETATM   20  C   UNK N   1      24.249  20.238   3.177  0.00  0.00     0.198 C 
BRANCH  20  21
HETATM   21  O   UNK N   1      24.511  21.157   2.158  0.00  0.00    -0.398 OA
HETATM   22  H   UNK N   1      24.981  21.609   1.439  0.00  0.00     0.209 HD
ENDBRANCH  20  21
ENDBRANCH  12  20
ENDBRANCH   7   8
ENDBRANCH   4   7
BRANCH   1  23
HETATM   23  C   UNK N   1      22.842  14.645   3.900  0.00  0.00     0.198 C 
BRANCH  23  24
HETATM   24  O   UNK N   1      23.280  15.515   2.906  0.00  0.00    -0.398 OA
HETATM   25  H   UNK N   1      23.710  15.885   2.119  0.00  0.00     0.209 HD
ENDBRANCH  23  24
ENDBRANCH   1  23
BRANCH   2  26
HETATM   26  O   UNK N   1      18.527  16.062   4.752  0.00  0.00    -0.390 OA
HETATM   27  H   UNK N   1      18.061  16.300   5.568  0.00  0.00     0.210 HD
ENDBRANCH   2  26
BRANCH   3  28
HETATM   28  O   UNK N   1      19.498  15.057   7.192  0.00  0.00    -0.388 OA
HETATM   29  H   UNK N   1      19.113  15.108   8.081  0.00  0.00     0.210 HD
ENDBRANCH   3  28
BRANCH   5  30
HETATM   30  O   UNK N   1      20.924  12.598   7.064  0.00  0.00    -0.348 OA
BRANCH  30  31
HETATM   31  C   UNK N   1      21.984  12.668   8.020  0.00  0.00     0.187 C 
HETATM   32  C   UNK N   1      22.999  11.444   8.008  0.00  0.00     0.180 C 
HETATM   33  O   UNK N   1      23.709  11.207   9.230  0.00  0.00    -0.348 OA
HETATM   34  C   UNK N   1      23.774  12.338  10.076  0.00  0.00     0.294 C 
HETATM   35  C   UNK N   1      22.372  12.780  10.529  0.00  0.00     0.256 C 
HETATM   36  C   UNK N   1      21.331  12.605   9.407  0.00  0.00     0.188 C 
HETATM   37  F   UNK N   1      21.958  12.036  11.622  0.00  0.00    -0.241 F 
BRANCH  32  38
HETATM   38  C   UNK N   1      24.009  11.471   6.866  0.00  0.00     0.198 C 
BRANCH  38  39
HETATM   39  O   UNK N   1      24.438  12.768   6.583  0.00  0.00    -0.398 OA
HETATM   40  H   UNK N   1      25.148  13.387   6.353  0.00  0.00     0.209 HD
ENDBRANCH  38  39
ENDBRANCH  32  38
BRANCH  34  41
HETATM   41  O   UNK N   1      24.441  13.388   9.435  0.00  0.00    -0.368 OA
HETATM   42  H   UNK N   1      25.260  13.900   9.525  0.00  0.00     0.212 HD
ENDBRANCH  34  41
BRANCH  36  43
HETATM   43  O   UNK N   1      20.312  13.548   9.551  0.00  0.00    -0.390 OA
HETATM   44  H   UNK N   1      19.439  13.649   9.140  0.00  0.00     0.210 HD
ENDBRANCH  36  43
ENDBRANCH  30  31
ENDBRANCH   5  30
TORSDOF 17
ENDMDL
MODEL 2
REMARK VINA RESULT:      -6.2     11.160     15.611
REMARK  17 active torsions:
REMARK  status: ('A' for Active; 'I' for Inactive)
REMARK    1  A    between atoms: C_4  and  C_1 
REMARK    2  A    between atoms: O_20  and  C_1 
REMARK    3  A    between atoms: C_5  and  C_2 
REMARK    4  A    between atoms: O_21  and  C_2 
REMARK    5  A    between atoms: C_6  and  C_3 
REMARK    6  A    between atoms: O_22  and  C_3 
REMARK    7  A    between atoms: C_8  and  O_23 
REMARK    8  A    between atoms: C_9  and  O_24 
REMARK    9  A    between atoms: C_10  and  O_25 
REMARK   10  A    between atoms: C_11  and  O_26 
REMARK   11  A    between atoms: C_12  and  O_27 
REMARK   12  A    between atoms: C_13  and  O_28 
REMARK   13  A    between atoms: C_14  and  O_33 
REMARK   14  A    between atoms: C_15  and  O_34 
REMARK   15  A    between atoms: C_16  and  O_29 
REMARK   16  A    between atoms: C_17  and  O_34 
REMARK   17  A    between atoms: C_18  and  O_33 
ROOT
HETATM    1  C   UNK N   1      34.070  13.852  10.213  0.00  0.00     0.180 C 
HETATM    2  C   UNK N   1      36.179  15.269  10.092  0.00  0.00     0.183 C 
HETATM    3  C   UNK N   1      35.252  16.446   9.763  0.00  0.00     0.204 C 
HETATM    4  C   UNK N   1      35.442  14.179  10.899  0.00  0.00     0.187 C 
HETATM    5  C   UNK N   1      34.016  15.896   9.035  0.00  0.00     0.292 C 
HETATM    6  O   UNK N   1      33.310  15.020   9.907  0.00  0.00    -0.348 OA
ENDROOT
BRANCH   4   7
HETATM    7  O   UNK N   1      36.333  13.070  10.993  0.00  0.00    -0.348 OA
BRANCH   7   8
HETATM    8  C   UNK N   1      36.626  12.622  12.306  0.00  0.00     0.292 C 
HETATM    9  C   UNK N   1      35.616  11.496  12.620  0.00  0.00     0.204 C 
HETATM   10  C   UNK N   1      35.726  11.054  14.090  0.00  0.00     0.183 C 
HETATM   11  C   UNK N   1      35.596  12.285  14.999  0.00  0.00     0.180 C 
HETATM   12  C   UNK N   1      36.646  13.323  14.554  0.00  0.00     0.179 C 
HETATM   13  O   UNK N   1      36.414  13.696  13.210  0.00  0.00    -0.348 OA
BRANCH   9  14
HETATM   14  O   UNK N   1      35.813  10.407  11.769  0.00  0.00    -0.388 OA
HETATM   15  H   UNK N   1      35.606   9.507  12.067  0.00  0.00     0.210 HD
ENDBRANCH   9  14
BRANCH  10  16
HETATM   16  O   UNK N   1      36.961  10.435  14.310  0.00  0.00    -0.390 OA
HETATM   17  H   UNK N   1      37.702   9.940  14.692  0.00  0.00     0.210 HD
ENDBRANCH  10  16
BRANCH  11  18
HETATM   18  O   UNK N   1      34.307  12.820  14.885  0.00  0.00    -0.390 OA
HETATM   19  H   UNK N   1      33.350  12.966  14.939  0.00  0.00     0.210 HD
ENDBRANCH  11  18
BRANCH  12  20
HETATM   20  C   UNK N   1      36.617  14.578  15.425  0.00  0.00     0.198 C 
BRANCH  20  21
HETATM   21  O   UNK N   1      37.907  14.999  15.758  0.00  0.00    -0.398 OA
HETATM   22  H   UNK N   1      38.823  15.298  15.649  0.00  0.00     0.209 HD
ENDBRANCH  20  21
ENDBRANCH  12  20
ENDBRANCH   7   8
ENDBRANCH   4   7
BRANCH   1  23
HETATM   23  C   UNK N   1      34.118  12.871   9.025  0.00  0.00     0.198 C 
BRANCH  23  24
HETATM   24  O   UNK N   1      34.431  11.564   9.387  0.00  0.00    -0.398 OA
HETATM   25  H   UNK N   1      34.584  10.753   9.897  0.00  0.00     0.209 HD
ENDBRANCH  23  24
ENDBRANCH   1  23
BRANCH   2  26
HETATM   26  O   UNK N   1      37.302  15.715  10.793  0.00  0.00    -0.390 OA
HETATM   27  H   UNK N   1      37.660  15.200  11.532  0.00  0.00     0.210 HD
ENDBRANCH   2  26
BRANCH   3  28
HETATM   28  O   UNK N   1      34.866  17.114  10.931  0.00  0.00    -0.388 OA
HETATM   29  H   UNK N   1      34.993  17.857  11.542  0.00  0.00     0.210 HD
ENDBRANCH   3  28
BRANCH   5  30
HETATM   30  O   UNK N   1      33.204  16.980   8.624  0.00  0.00    -0.348 OA
BRANCH  30  31
HETATM   31  C   UNK N   1      32.221  16.664   7.636  0.00  0.00     0.187 C 
HETATM   32  C   UNK N   1      32.428  17.357   6.220  0.00  0.00     0.180 C 
HETATM   33  O   UNK N   1      31.249  17.504   5.418  0.00  0.00    -0.348 OA
HETATM   34  C   UNK N   1      30.211  16.611   5.768  0.00  0.00     0.294 C 
HETATM   35  C   UNK N   1      29.724  16.854   7.206  0.00  0.00     0.256 C 
HETATM   36  C   UNK N   1      30.888  17.228   8.143  0.00  0.00     0.188 C 
HETATM   37  F   UNK N   1      28.796  17.883   7.238  0.00  0.00    -0.241 F 
BRANCH  32  38
HETATM   38  C   UNK N   1      33.516  16.726   5.359  0.00  0.00     0.198 C 
BRANCH  38  39
HETATM   39  O   UNK N   1      34.769  16.799   5.971  0.00  0.00    -0.398 OA
HETATM   40  H   UNK N   1      35.388  16.502   6.655  0.00  0.00     0.209 HD
ENDBRANCH  38  39
ENDBRANCH  32  38
BRANCH  34  41
HETATM   41  O   UNK N   1      30.631  15.286   5.604  0.00  0.00    -0.368 OA
HETATM   42  H   UNK N   1      31.395  14.728   5.816  0.00  0.00     0.212 HD
ENDBRANCH  34  41
BRANCH  36  43
HETATM   43  O   UNK N   1      30.604  16.813   9.446  0.00  0.00    -0.390 OA
HETATM   44  H   UNK N   1      31.160  16.530  10.189  0.00  0.00     0.210 HD
ENDBRANCH  36  43
ENDBRANCH  30  31
ENDBRANCH   5  30
TORSDOF 17
ENDMDL
MODEL 3
REMARK VINA RESULT:      -6.1     11.338     14.104
REMARK  17 active torsions:
REMARK  status: ('A' for Active; 'I' for Inactive)
REMARK    1  A    between atoms: C_4  and  C_1 
REMARK    2  A    between atoms: O_20  and  C_1 
REMARK    3  A    between atoms: C_5  and  C_2 
REMARK    4  A    between atoms: O_21  and  C_2 
REMARK    5  A    between atoms: C_6  and  C_3 
REMARK    6  A    between atoms: O_22  and  C_3 
REMARK    7  A    between atoms: C_8  and  O_23 
REMARK    8  A    between atoms: C_9  and  O_24 
REMARK    9  A    between atoms: C_10  and  O_25 
REMARK   10  A    between atoms: C_11  and  O_26 
REMARK   11  A    between atoms: C_12  and  O_27 
REMARK   12  A    between atoms: C_13  and  O_28 
REMARK   13  A    between atoms: C_14  and  O_33 
REMARK   14  A    between atoms: C_15  and  O_34 
REMARK   15  A    between atoms: C_16  and  O_29 
REMARK   16  A    between atoms: C_17  and  O_34 
REMARK   17  A    between atoms: C_18  and  O_33 
ROOT
HETATM    1  C   UNK N   1      34.987  13.559   9.468  0.00  0.00     0.180 C 
HETATM    2  C   UNK N   1      34.751  15.785  10.675  0.00  0.00     0.183 C 
HETATM    3  C   UNK N   1      36.007  15.383  11.458  0.00  0.00     0.204 C 
HETATM    4  C   UNK N   1      34.698  15.091   9.297  0.00  0.00     0.187 C 
HETATM    5  C   UNK N   1      36.040  13.850  11.560  0.00  0.00     0.292 C 
HETATM    6  O   UNK N   1      36.150  13.297  10.253  0.00  0.00    -0.348 OA
ENDROOT
BRANCH   4   7
HETATM    7  O   UNK N   1      33.422  15.391   8.739  0.00  0.00    -0.348 OA
BRANCH   7   8
HETATM    8  C   UNK N   1      33.414  15.727   7.361  0.00  0.00     0.292 C 
HETATM    9  C   UNK N   1      32.647  17.063   7.241  0.00  0.00     0.204 C 
HETATM   10  C   UNK N   1      32.423  17.437   5.766  0.00  0.00     0.183 C 
HETATM   11  C   UNK N   1      31.750  16.261   5.043  0.00  0.00     0.180 C 
HETATM   12  C   UNK N   1      32.612  15.003   5.269  0.00  0.00     0.179 C 
HETATM   13  O   UNK N   1      32.703  14.724   6.652  0.00  0.00    -0.348 OA
BRANCH   9  14
HETATM   14  O   UNK N   1      33.333  18.085   7.903  0.00  0.00    -0.388 OA
HETATM   15  H   UNK N   1      34.056  18.557   7.460  0.00  0.00     0.210 HD
ENDBRANCH   9  14
BRANCH  10  16
HETATM   16  O   UNK N   1      33.648  17.725   5.155  0.00  0.00    -0.390 OA
HETATM   17  H   UNK N   1      34.423  17.728   4.572  0.00  0.00     0.210 HD
ENDBRANCH  10  16
BRANCH  11  18
HETATM   18  O   UNK N   1      30.463  16.066   5.559  0.00  0.00    -0.390 OA
HETATM   19  H   UNK N   1      29.512  15.900   5.657  0.00  0.00     0.210 HD
ENDBRANCH  11  18
BRANCH  12  20
HETATM   20  C   UNK N   1      32.038  13.778   4.557  0.00  0.00     0.198 C 
BRANCH  20  21
HETATM   21  O   UNK N   1      31.039  13.166   5.317  0.00  0.00    -0.398 OA
HETATM   22  H   UNK N   1      30.220  12.692   5.530  0.00  0.00     0.209 HD
ENDBRANCH  20  21
ENDBRANCH  12  20
ENDBRANCH   7   8
ENDBRANCH   4   7
BRANCH   1  23
HETATM   23  C   UNK N   1      33.794  12.684   9.899  0.00  0.00     0.198 C 
BRANCH  23  24
HETATM   24  O   UNK N   1      32.682  12.801   9.071  0.00  0.00    -0.398 OA
HETATM   25  H   UNK N   1      31.951  13.159   8.543  0.00  0.00     0.209 HD
ENDBRANCH  23  24
ENDBRANCH   1  23
BRANCH   2  26
HETATM   26  O   UNK N   1      34.697  17.173  10.521  0.00  0.00    -0.390 OA
HETATM   27  H   UNK N   1      34.114  17.573   9.859  0.00  0.00     0.210 HD
ENDBRANCH   2  26
BRANCH   3  28
HETATM   28  O   UNK N   1      37.161  15.849  10.818  0.00  0.00    -0.388 OA
HETATM   29  H   UNK N   1      37.595  16.536  10.289  0.00  0.00     0.210 HD
ENDBRANCH   3  28
BRANCH   5  30
HETATM   30  O   UNK N   1      37.131  13.467  12.375  0.00  0.00    -0.348 OA
BRANCH  30  31
HETATM   31  C   UNK N   1      36.794  12.653  13.501  0.00  0.00     0.187 C 
HETATM   32  C   UNK N   1      35.636  11.593  13.255  0.00  0.00     0.180 C 
HETATM   33  O   UNK N   1      34.924  11.161  14.422  0.00  0.00    -0.348 OA
HETATM   34  C   UNK N   1      35.641  11.352  15.625  0.00  0.00     0.294 C 
HETATM   35  C   UNK N   1      35.921  12.842  15.880  0.00  0.00     0.256 C 
HETATM   36  C   UNK N   1      36.225  13.594  14.570  0.00  0.00     0.188 C 
HETATM   37  F   UNK N   1      34.830  13.446  16.482  0.00  0.00    -0.241 F 
BRANCH  32  38
HETATM   38  C   UNK N   1      36.064  10.357  12.472  0.00  0.00     0.198 C 
BRANCH  38  39
HETATM   39  O   UNK N   1      37.077  10.647  11.558  0.00  0.00    -0.398 OA
HETATM   40  H   UNK N   1      37.473  10.536  10.680  0.00  0.00     0.209 HD
ENDBRANCH  38  39
ENDBRANCH  32  38
BRANCH  34  41
HETATM   41  O   UNK N   1      36.834  10.619  15.603  0.00  0.00    -0.368 OA
HETATM   42  H   UNK N   1      37.129   9.696  15.649  0.00  0.00     0.212 HD
ENDBRANCH  34  41
BRANCH  36  43
HETATM   43  O   UNK N   1      37.074  14.673  14.826  0.00  0.00    -0.390 OA
HETATM   44  H   UNK N   1      38.008  14.737  15.079  0.00  0.00     0.210 HD
ENDBRANCH  36  43
ENDBRANCH  30  31
ENDBRANCH   5  30
TORSDOF 17
ENDMDL
MODEL 4
REMARK VINA RESULT:      -6.1      8.706     12.342
REMARK  17 active torsions:
REMARK  status: ('A' for Active; 'I' for Inactive)
REMARK    1  A    between atoms: C_4  and  C_1 
REMARK    2  A    between atoms: O_20  and  C_1 
REMARK    3  A    between atoms: C_5  and  C_2 
REMARK    4  A    between atoms: O_21  and  C_2 
REMARK    5  A    between atoms: C_6  and  C_3 
REMARK    6  A    between atoms: O_22  and  C_3 
REMARK    7  A    between atoms: C_8  and  O_23 
REMARK    8  A    between atoms: C_9  and  O_24 
REMARK    9  A    between atoms: C_10  and  O_25 
REMARK   10  A    between atoms: C_11  and  O_26 
REMARK   11  A    between atoms: C_12  and  O_27 
REMARK   12  A    between atoms: C_13  and  O_28 
REMARK   13  A    between atoms: C_14  and  O_33 
REMARK   14  A    between atoms: C_15  and  O_34 
REMARK   15  A    between atoms: C_16  and  O_29 
REMARK   16  A    between atoms: C_17  and  O_34 
REMARK   17  A    between atoms: C_18  and  O_33 
ROOT
HETATM    1  C   UNK N   1      31.485  15.984   6.063  0.00  0.00     0.180 C 
HETATM    2  C   UNK N   1      31.942  17.677   7.905  0.00  0.00     0.183 C 
HETATM    3  C   UNK N   1      30.432  17.645   8.174  0.00  0.00     0.204 C 
HETATM    4  C   UNK N   1      32.428  16.363   7.258  0.00  0.00     0.187 C 
HETATM    5  C   UNK N   1      29.714  17.328   6.853  0.00  0.00     0.292 C 
HETATM    6  O   UNK N   1      30.102  16.033   6.410  0.00  0.00    -0.348 OA
ENDROOT
BRANCH   4   7
HETATM    7  O   UNK N   1      33.790  16.569   6.892  0.00  0.00    -0.348 OA
BRANCH   7   8
HETATM    8  C   UNK N   1      34.737  15.739   7.543  0.00  0.00     0.292 C 
HETATM    9  C   UNK N   1      34.686  14.371   6.825  0.00  0.00     0.204 C 
HETATM   10  C   UNK N   1      35.549  13.332   7.561  0.00  0.00     0.183 C 
HETATM   11  C   UNK N   1      35.128  13.281   9.037  0.00  0.00     0.180 C 
HETATM   12  C   UNK N   1      35.208  14.711   9.608  0.00  0.00     0.179 C 
HETATM   13  O   UNK N   1      34.335  15.563   8.893  0.00  0.00    -0.348 OA
BRANCH   9  14
HETATM   14  O   UNK N   1      35.104  14.497   5.498  0.00  0.00    -0.388 OA
HETATM   15  H   UNK N   1      34.635  15.091   4.890  0.00  0.00     0.210 HD
ENDBRANCH   9  14
BRANCH  10  16
HETATM   16  O   UNK N   1      36.900  13.682   7.469  0.00  0.00    -0.390 OA
HETATM   17  H   UNK N   1      37.747  14.076   7.209  0.00  0.00     0.210 HD
ENDBRANCH  10  16
BRANCH  11  18
HETATM   18  O   UNK N   1      33.820  12.791   9.137  0.00  0.00    -0.390 OA
HETATM   19  H   UNK N   1      33.034  12.268   9.360  0.00  0.00     0.210 HD
ENDBRANCH  11  18
BRANCH  12  20
HETATM   20  C   UNK N   1      34.837  14.758  11.091  0.00  0.00     0.198 C 
BRANCH  20  21
HETATM   21  O   UNK N   1      33.457  14.883  11.268  0.00  0.00    -0.398 OA
HETATM   22  H   UNK N   1      32.528  15.081  11.070  0.00  0.00     0.209 HD
ENDBRANCH  20  21
ENDBRANCH  12  20
ENDBRANCH   7   8
ENDBRANCH   4   7
BRANCH   1  23
HETATM   23  C   UNK N   1      31.767  16.690   4.722  0.00  0.00     0.198 C 
BRANCH  23  24
HETATM   24  O   UNK N   1      33.013  16.392   4.180  0.00  0.00    -0.398 OA
HETATM   25  H   UNK N   1      33.782  15.919   3.822  0.00  0.00     0.209 HD
ENDBRANCH  23  24
ENDBRANCH   1  23
BRANCH   2  26
HETATM   26  O   UNK N   1      32.641  17.924   9.089  0.00  0.00    -0.390 OA
HETATM   27  H   UNK N   1      33.118  17.209   9.538  0.00  0.00     0.210 HD
ENDBRANCH   2  26
BRANCH   3  28
HETATM   28  O   UNK N   1      30.120  16.678   9.136  0.00  0.00    -0.388 OA
HETATM   29  H   UNK N   1      30.305  15.810   9.529  0.00  0.00     0.210 HD
ENDBRANCH   3  28
BRANCH   5  30
HETATM   30  O   UNK N   1      28.316  17.405   7.059  0.00  0.00    -0.348 OA
BRANCH  30  31
HETATM   31  C   UNK N   1      27.632  18.353   6.237  0.00  0.00     0.187 C 
HETATM   32  C   UNK N   1      28.286  18.623   4.814  0.00  0.00     0.180 C 
HETATM   33  O   UNK N   1      27.975  19.886   4.211  0.00  0.00    -0.348 OA
HETATM   34  C   UNK N   1      26.794  20.478   4.714  0.00  0.00     0.294 C 
HETATM   35  C   UNK N   1      26.920  20.793   6.214  0.00  0.00     0.256 C 
HETATM   36  C   UNK N   1      27.719  19.705   6.957  0.00  0.00     0.188 C 
HETATM   37  F   UNK N   1      27.561  22.006   6.404  0.00  0.00    -0.241 F 
BRANCH  32  38
HETATM   38  C   UNK N   1      28.035  17.528   3.784  0.00  0.00     0.198 C 
BRANCH  38  39
HETATM   39  O   UNK N   1      27.775  16.297   4.387  0.00  0.00    -0.398 OA
HETATM   40  H   UNK N   1      27.829  15.329   4.378  0.00  0.00     0.209 HD
ENDBRANCH  38  39
ENDBRANCH  32  38
BRANCH  34  41
HETATM   41  O   UNK N   1      25.693  19.649   4.472  0.00  0.00    -0.368 OA
HETATM   42  H   UNK N   1      24.846  19.416   4.884  0.00  0.00     0.212 HD
ENDBRANCH  34  41
BRANCH  36  43
HETATM   43  O   UNK N   1      27.292  19.622   8.284  0.00  0.00    -0.390 OA
HETATM   44  H   UNK N   1      27.757  19.469   9.122  0.00  0.00     0.210 HD
ENDBRANCH  36  43
ENDBRANCH  30  31
ENDBRANCH   5  30
TORSDOF 17
ENDMDL
MODEL 5
REMARK VINA RESULT:      -6.1     10.120     14.060
REMARK  17 active torsions:
REMARK  status: ('A' for Active; 'I' for Inactive)
REMARK    1  A    between atoms: C_4  and  C_1 
REMARK    2  A    between atoms: O_20  and  C_1 
REMARK    3  A    between atoms: C_5  and  C_2 
REMARK    4  A    between atoms: O_21  and  C_2 
REMARK    5  A    between atoms: C_6  and  C_3 
REMARK    6  A    between atoms: O_22  and  C_3 
REMARK    7  A    between atoms: C_8  and  O_23 
REMARK    8  A    between atoms: C_9  and  O_24 
REMARK    9  A    between atoms: C_10  and  O_25 
REMARK   10  A    between atoms: C_11  and  O_26 
REMARK   11  A    between atoms: C_12  and  O_27 
REMARK   12  A    between atoms: C_13  and  O_28 
REMARK   13  A    between atoms: C_14  and  O_33 
REMARK   14  A    between atoms: C_15  and  O_34 
REMARK   15  A    between atoms: C_16  and  O_29 
REMARK   16  A    between atoms: C_17  and  O_34 
REMARK   17  A    between atoms: C_18  and  O_33 
ROOT
HETATM    1  C   UNK N   1      34.244  17.008   7.939  0.00  0.00     0.180 C 
HETATM    2  C   UNK N   1      33.006  15.876   9.851  0.00  0.00     0.183 C 
HETATM    3  C   UNK N   1      31.946  15.495   8.809  0.00  0.00     0.204 C 
HETATM    4  C   UNK N   1      34.389  16.084   9.199  0.00  0.00     0.187 C 
HETATM    5  C   UNK N   1      31.935  16.575   7.716  0.00  0.00     0.292 C 
HETATM    6  O   UNK N   1      33.199  16.591   7.062  0.00  0.00    -0.348 OA
ENDROOT
BRANCH   4   7
HETATM    7  O   UNK N   1      35.244  16.603  10.214  0.00  0.00    -0.348 OA
BRANCH   7   8
HETATM    8  C   UNK N   1      36.139  15.674  10.802  0.00  0.00     0.292 C 
HETATM    9  C   UNK N   1      36.343  14.546   9.765  0.00  0.00     0.204 C 
HETATM   10  C   UNK N   1      37.160  13.389  10.365  0.00  0.00     0.183 C 
HETATM   11  C   UNK N   1      36.498  12.927  11.671  0.00  0.00     0.180 C 
HETATM   12  C   UNK N   1      36.343  14.156  12.590  0.00  0.00     0.179 C 
HETATM   13  O   UNK N   1      35.530  15.126  11.961  0.00  0.00    -0.348 OA
BRANCH   9  14
HETATM   14  O   UNK N   1      36.969  15.040   8.618  0.00  0.00    -0.388 OA
HETATM   15  H   UNK N   1      37.717  15.653   8.693  0.00  0.00     0.210 HD
ENDBRANCH   9  14
BRANCH  10  16
HETATM   16  O   UNK N   1      38.468  13.813  10.624  0.00  0.00    -0.390 OA
HETATM   17  H   UNK N   1      39.433  13.899  10.653  0.00  0.00     0.210 HD
ENDBRANCH  10  16
BRANCH  11  18
HETATM   18  O   UNK N   1      35.245  12.369  11.392  0.00  0.00    -0.390 OA
HETATM   19  H   UNK N   1      34.366  12.187  11.025  0.00  0.00     0.210 HD
ENDBRANCH  11  18
BRANCH  12  20
HETATM   20  C   UNK N   1      35.719  13.789  13.937  0.00  0.00     0.198 C 
BRANCH  20  21
HETATM   21  O   UNK N   1      34.507  13.116  13.773  0.00  0.00    -0.398 OA
HETATM   22  H   UNK N   1      33.567  12.967  13.581  0.00  0.00     0.209 HD
ENDBRANCH  20  21
ENDBRANCH  12  20
ENDBRANCH   7   8
ENDBRANCH   4   7
BRANCH   1  23
HETATM   23  C   UNK N   1      34.198  18.525   8.207  0.00  0.00     0.198 C 
BRANCH  23  24
HETATM   24  O   UNK N   1      35.426  19.070   8.568  0.00  0.00    -0.398 OA
HETATM   25  H   UNK N   1      36.365  19.181   8.789  0.00  0.00     0.209 HD
ENDBRANCH  23  24
ENDBRANCH   1  23
BRANCH   2  26
HETATM   26  O   UNK N   1      33.081  14.901  10.848  0.00  0.00    -0.390 OA
HETATM   27  H   UNK N   1      33.898  14.397  10.984  0.00  0.00     0.210 HD
ENDBRANCH   2  26
BRANCH   3  28
HETATM   28  O   UNK N   1      32.230  14.245   8.248  0.00  0.00    -0.388 OA
HETATM   29  H   UNK N   1      32.316  13.692   7.456  0.00  0.00     0.210 HD
ENDBRANCH   3  28
BRANCH   5  30
HETATM   30  O   UNK N   1      30.887  16.298   6.807  0.00  0.00    -0.348 OA
BRANCH  30  31
HETATM   31  C   UNK N   1      29.907  17.330   6.676  0.00  0.00     0.187 C 
HETATM   32  C   UNK N   1      28.514  17.045   7.387  0.00  0.00     0.180 C 
HETATM   33  O   UNK N   1      27.384  17.751   6.858  0.00  0.00    -0.348 OA
HETATM   34  C   UNK N   1      27.732  18.916   6.138  0.00  0.00     0.294 C 
HETATM   35  C   UNK N   1      28.583  18.579   4.902  0.00  0.00     0.256 C 
HETATM   36  C   UNK N   1      29.559  17.421   5.185  0.00  0.00     0.188 C 
HETATM   37  F   UNK N   1      27.774  18.213   3.840  0.00  0.00    -0.241 F 
BRANCH  32  38
HETATM   38  C   UNK N   1      28.526  17.229   8.900  0.00  0.00     0.198 C 
BRANCH  38  39
HETATM   39  O   UNK N   1      27.441  17.990   9.339  0.00  0.00    -0.398 OA
HETATM   40  H   UNK N   1      27.092  18.789   9.761  0.00  0.00     0.209 HD
ENDBRANCH  38  39
ENDBRANCH  32  38
BRANCH  34  41
HETATM   41  O   UNK N   1      28.402  19.821   6.970  0.00  0.00    -0.368 OA
HETATM   42  H   UNK N   1      29.115  20.477   6.916  0.00  0.00     0.212 HD
ENDBRANCH  34  41
BRANCH  36  43
HETATM   43  O   UNK N   1      30.698  17.551   4.387  0.00  0.00    -0.390 OA
HETATM   44  H   UNK N   1      31.633  17.712   4.587  0.00  0.00     0.210 HD
ENDBRANCH  36  43
ENDBRANCH  30  31
ENDBRANCH   5  30
TORSDOF 17
ENDMDL
MODEL 6
REMARK VINA RESULT:      -6.0      9.772     11.875
REMARK  17 active torsions:
REMARK  status: ('A' for Active; 'I' for Inactive)
REMARK    1  A    between atoms: C_4  and  C_1 
REMARK    2  A    between atoms: O_20  and  C_1 
REMARK    3  A    between atoms: C_5  and  C_2 
REMARK    4  A    between atoms: O_21  and  C_2 
REMARK    5  A    between atoms: C_6  and  C_3 
REMARK    6  A    between atoms: O_22  and  C_3 
REMARK    7  A    between atoms: C_8  and  O_23 
REMARK    8  A    between atoms: C_9  and  O_24 
REMARK    9  A    between atoms: C_10  and  O_25 
REMARK   10  A    between atoms: C_11  and  O_26 
REMARK   11  A    between atoms: C_12  and  O_27 
REMARK   12  A    between atoms: C_13  and  O_28 
REMARK   13  A    between atoms: C_14  and  O_33 
REMARK   14  A    between atoms: C_15  and  O_34 
REMARK   15  A    between atoms: C_16  and  O_29 
REMARK   16  A    between atoms: C_17  and  O_34 
REMARK   17  A    between atoms: C_18  and  O_33 
ROOT
HETATM    1  C   UNK N   1      32.557  16.240   7.940  0.00  0.00     0.180 C 
HETATM    2  C   UNK N   1      33.582  16.173   5.613  0.00  0.00     0.183 C 
HETATM    3  C   UNK N   1      34.615  15.204   6.202  0.00  0.00     0.204 C 
HETATM    4  C   UNK N   1      32.257  16.136   6.404  0.00  0.00     0.187 C 
HETATM    5  C   UNK N   1      34.797  15.541   7.690  0.00  0.00     0.292 C 
HETATM    6  O   UNK N   1      33.566  15.328   8.372  0.00  0.00    -0.348 OA
ENDROOT
BRANCH   4   7
HETATM    7  O   UNK N   1      31.446  17.188   5.889  0.00  0.00    -0.348 OA
BRANCH   7   8
HETATM    8  C   UNK N   1      30.045  16.988   5.978  0.00  0.00     0.292 C 
HETATM    9  C   UNK N   1      29.407  17.864   4.876  0.00  0.00     0.204 C 
HETATM   10  C   UNK N   1      27.873  17.862   4.992  0.00  0.00     0.183 C 
HETATM   11  C   UNK N   1      27.474  18.262   6.420  0.00  0.00     0.180 C 
HETATM   12  C   UNK N   1      28.200  17.320   7.402  0.00  0.00     0.179 C 
HETATM   13  O   UNK N   1      29.599  17.447   7.244  0.00  0.00    -0.348 OA
BRANCH   9  14
HETATM   14  O   UNK N   1      29.799  17.424   3.609  0.00  0.00    -0.388 OA
HETATM   15  H   UNK N   1      29.736  18.015   2.843  0.00  0.00     0.210 HD
ENDBRANCH   9  14
BRANCH  10  16
HETATM   16  O   UNK N   1      27.374  16.587   4.704  0.00  0.00    -0.390 OA
HETATM   17  H   UNK N   1      27.059  15.672   4.765  0.00  0.00     0.210 HD
ENDBRANCH  10  16
BRANCH  11  18
HETATM   18  O   UNK N   1      27.846  19.590   6.658  0.00  0.00    -0.390 OA
HETATM   19  H   UNK N   1      28.014  20.542   6.571  0.00  0.00     0.210 HD
ENDBRANCH  11  18
BRANCH  12  20
HETATM   20  C   UNK N   1      27.839  17.619   8.857  0.00  0.00     0.198 C 
BRANCH  20  21
HETATM   21  O   UNK N   1      28.592  18.681   9.362  0.00  0.00    -0.398 OA
HETATM   22  H   UNK N   1      29.200  19.437   9.383  0.00  0.00     0.209 HD
ENDBRANCH  20  21
ENDBRANCH  12  20
ENDBRANCH   7   8
ENDBRANCH   4   7
BRANCH   1  23
HETATM   23  C   UNK N   1      32.790  17.659   8.494  0.00  0.00     0.198 C 
BRANCH  23  24
HETATM   24  O   UNK N   1      31.625  18.303   8.900  0.00  0.00    -0.398 OA
HETATM   25  H   UNK N   1      30.889  18.644   9.433  0.00  0.00     0.209 HD
ENDBRANCH  23  24
ENDBRANCH   1  23
BRANCH   2  26
HETATM   26  O   UNK N   1      33.352  15.880   4.267  0.00  0.00    -0.390 OA
HETATM   27  H   UNK N   1      32.457  15.682   3.951  0.00  0.00     0.210 HD
ENDBRANCH   2  26
BRANCH   3  28
HETATM   28  O   UNK N   1      34.190  13.878   6.057  0.00  0.00    -0.388 OA
HETATM   29  H   UNK N   1      33.459  13.242   6.014  0.00  0.00     0.210 HD
ENDBRANCH   3  28
BRANCH   5  30
HETATM   30  O   UNK N   1      35.828  14.730   8.222  0.00  0.00    -0.348 OA
BRANCH  30  31
HETATM   31  C   UNK N   1      35.551  14.156   9.501  0.00  0.00     0.187 C 
HETATM   32  C   UNK N   1      36.443  14.695  10.701  0.00  0.00     0.180 C 
HETATM   33  O   UNK N   1      36.579  13.814  11.825  0.00  0.00    -0.348 OA
HETATM   34  C   UNK N   1      35.549  12.851  11.916  0.00  0.00     0.294 C 
HETATM   35  C   UNK N   1      35.548  11.914  10.697  0.00  0.00     0.256 C 
HETATM   36  C   UNK N   1      35.907  12.667   9.402  0.00  0.00     0.188 C 
HETATM   37  F   UNK N   1      36.466  10.890  10.870  0.00  0.00    -0.241 F 
BRANCH  32  38
HETATM   38  C   UNK N   1      36.045  16.072  11.219  0.00  0.00     0.198 C 
BRANCH  38  39
HETATM   39  O   UNK N   1      34.672  16.293  11.101  0.00  0.00    -0.398 OA
HETATM   40  H   UNK N   1      33.815  16.068  10.708  0.00  0.00     0.209 HD
ENDBRANCH  38  39
ENDBRANCH  32  38
BRANCH  34  41
HETATM   41  O   UNK N   1      34.306  13.478  12.060  0.00  0.00    -0.368 OA
HETATM   42  H   UNK N   1      33.368  13.294  11.895  0.00  0.00     0.212 HD
ENDBRANCH  34  41
BRANCH  36  43
HETATM   43  O   UNK N   1      35.296  12.052   8.308  0.00  0.00    -0.390 OA
HETATM   44  H   UNK N   1      35.331  11.152   7.947  0.00  0.00     0.210 HD
ENDBRANCH  36  43
ENDBRANCH  30  31
ENDBRANCH   5  30
TORSDOF 17
ENDMDL
MODEL 7
REMARK VINA RESULT:      -5.9      9.893     13.718
REMARK  17 active torsions:
REMARK  status: ('A' for Active; 'I' for Inactive)
REMARK    1  A    between atoms: C_4  and  C_1 
REMARK    2  A    between atoms: O_20  and  C_1 
REMARK    3  A    between atoms: C_5  and  C_2 
REMARK    4  A    between atoms: O_21  and  C_2 
REMARK    5  A    between atoms: C_6  and  C_3 
REMARK    6  A    between atoms: O_22  and  C_3 
REMARK    7  A    between atoms: C_8  and  O_23 
REMARK    8  A    between atoms: C_9  and  O_24 
REMARK    9  A    between atoms: C_10  and  O_25 
REMARK   10  A    between atoms: C_11  and  O_26 
REMARK   11  A    between atoms: C_12  and  O_27 
REMARK   12  A    between atoms: C_13  and  O_28 
REMARK   13  A    between atoms: C_14  and  O_33 
REMARK   14  A    between atoms: C_15  and  O_34 
REMARK   15  A    between atoms: C_16  and  O_29 
REMARK   16  A    between atoms: C_17  and  O_34 
REMARK   17  A    between atoms: C_18  and  O_33 
ROOT
HETATM    1  C   UNK N   1      32.849  16.415   8.725  0.00  0.00     0.180 C 
HETATM    2  C   UNK N   1      33.507  15.331   6.521  0.00  0.00     0.183 C 
HETATM    3  C   UNK N   1      32.791  16.505   5.841  0.00  0.00     0.204 C 
HETATM    4  C   UNK N   1      34.005  15.712   7.931  0.00  0.00     0.187 C 
HETATM    5  C   UNK N   1      31.659  16.979   6.766  0.00  0.00     0.292 C 
HETATM    6  O   UNK N   1      32.220  17.459   7.983  0.00  0.00    -0.348 OA
ENDROOT
BRANCH   4   7
HETATM    7  O   UNK N   1      34.487  14.513   8.531  0.00  0.00    -0.348 OA
BRANCH   7   8
HETATM    8  C   UNK N   1      35.573  14.665   9.429  0.00  0.00     0.292 C 
HETATM    9  C   UNK N   1      36.693  13.728   8.925  0.00  0.00     0.204 C 
HETATM   10  C   UNK N   1      37.860  13.678   9.925  0.00  0.00     0.183 C 
HETATM   11  C   UNK N   1      37.318  13.316  11.316  0.00  0.00     0.180 C 
HETATM   12  C   UNK N   1      36.202  14.318  11.672  0.00  0.00     0.179 C 
HETATM   13  O   UNK N   1      35.161  14.236  10.718  0.00  0.00    -0.348 OA
BRANCH   9  14
HETATM   14  O   UNK N   1      37.147  14.136   7.668  0.00  0.00    -0.388 OA
HETATM   15  H   UNK N   1      38.097  14.146   7.469  0.00  0.00     0.210 HD
ENDBRANCH   9  14
BRANCH  10  16
HETATM   16  O   UNK N   1      38.497  14.922   9.979  0.00  0.00    -0.390 OA
HETATM   17  H   UNK N   1      38.860  15.774  10.267  0.00  0.00     0.210 HD
ENDBRANCH  10  16
BRANCH  11  18
HETATM   18  O   UNK N   1      36.811  12.011  11.298  0.00  0.00    -0.390 OA
HETATM   19  H   UNK N   1      36.295  11.213  11.102  0.00  0.00     0.210 HD
ENDBRANCH  11  18
BRANCH  12  20
HETATM   20  C   UNK N   1      35.619  14.059  13.060  0.00  0.00     0.198 C 
BRANCH  20  21
HETATM   21  O   UNK N   1      34.509  13.212  12.999  0.00  0.00    -0.398 OA
HETATM   22  H   UNK N   1      33.787  12.684  12.623  0.00  0.00     0.209 HD
ENDBRANCH  20  21
ENDBRANCH  12  20
ENDBRANCH   7   8
ENDBRANCH   4   7
BRANCH   1  23
HETATM   23  C   UNK N   1      31.818  15.485   9.394  0.00  0.00     0.198 C 
BRANCH  23  24
HETATM   24  O   UNK N   1      32.194  15.046  10.661  0.00  0.00    -0.398 OA
HETATM   25  H   UNK N   1      32.177  14.696  11.565  0.00  0.00     0.209 HD
ENDBRANCH  23  24
ENDBRANCH   1  23
BRANCH   2  26
HETATM   26  O   UNK N   1      34.573  14.890   5.733  0.00  0.00    -0.390 OA
HETATM   27  H   UNK N   1      34.463  14.770   4.777  0.00  0.00     0.210 HD
ENDBRANCH   2  26
BRANCH   3  28
HETATM   28  O   UNK N   1      33.684  17.555   5.596  0.00  0.00    -0.388 OA
HETATM   29  H   UNK N   1      33.830  18.465   5.293  0.00  0.00     0.210 HD
ENDBRANCH   3  28
BRANCH   5  30
HETATM   30  O   UNK N   1      30.918  17.987   6.107  0.00  0.00    -0.348 OA
BRANCH  30  31
HETATM   31  C   UNK N   1      29.502  17.795   6.099  0.00  0.00     0.187 C 
HETATM   32  C   UNK N   1      28.884  17.209   7.442  0.00  0.00     0.180 C 
HETATM   33  O   UNK N   1      27.633  16.522   7.307  0.00  0.00    -0.348 OA
HETATM   34  C   UNK N   1      26.916  16.874   6.142  0.00  0.00     0.294 C 
HETATM   35  C   UNK N   1      27.694  16.499   4.870  0.00  0.00     0.256 C 
HETATM   36  C   UNK N   1      29.209  16.718   5.046  0.00  0.00     0.188 C 
HETATM   37  F   UNK N   1      27.485  15.167   4.547  0.00  0.00    -0.241 F 
BRANCH  32  38
HETATM   38  C   UNK N   1      28.753  18.221   8.573  0.00  0.00     0.198 C 
BRANCH  38  39
HETATM   39  O   UNK N   1      27.506  18.149   9.194  0.00  0.00    -0.398 OA
HETATM   40  H   UNK N   1      26.560  17.938   9.158  0.00  0.00     0.209 HD
ENDBRANCH  38  39
ENDBRANCH  32  38
BRANCH  34  41
HETATM   41  O   UNK N   1      26.611  18.240   6.151  0.00  0.00    -0.368 OA
HETATM   42  H   UNK N   1      26.322  18.931   5.535  0.00  0.00     0.212 HD
ENDBRANCH  34  41
BRANCH  36  43
HETATM   43  O   UNK N   1      29.794  17.016   3.814  0.00  0.00    -0.390 OA
HETATM   44  H   UNK N   1      30.677  16.861   3.444  0.00  0.00     0.210 HD
ENDBRANCH  36  43
ENDBRANCH  30  31
ENDBRANCH   5  30
TORSDOF 17
ENDMDL
MODEL 8
REMARK VINA RESULT:      -5.9     10.761     15.411
REMARK  17 active torsions:
REMARK  status: ('A' for Active; 'I' for Inactive)
REMARK    1  A    between atoms: C_4  and  C_1 
REMARK    2  A    between atoms: O_20  and  C_1 
REMARK    3  A    between atoms: C_5  and  C_2 
REMARK    4  A    between atoms: O_21  and  C_2 
REMARK    5  A    between atoms: C_6  and  C_3 
REMARK    6  A    between atoms: O_22  and  C_3 
REMARK    7  A    between atoms: C_8  and  O_23 
REMARK    8  A    between atoms: C_9  and  O_24 
REMARK    9  A    between atoms: C_10  and  O_25 
REMARK   10  A    between atoms: C_11  and  O_26 
REMARK   11  A    between atoms: C_12  and  O_27 
REMARK   12  A    between atoms: C_13  and  O_28 
REMARK   13  A    between atoms: C_14  and  O_33 
REMARK   14  A    between atoms: C_15  and  O_34 
REMARK   15  A    between atoms: C_16  and  O_29 
REMARK   16  A    between atoms: C_17  and  O_34 
REMARK   17  A    between atoms: C_18  and  O_33 
ROOT
HETATM    1  C   UNK N   1      33.478  14.177  10.026  0.00  0.00     0.180 C 
HETATM    2  C   UNK N   1      35.781  15.233   9.808  0.00  0.00     0.183 C 
HETATM    3  C   UNK N   1      35.055  16.470   9.263  0.00  0.00     0.204 C 
HETATM    4  C   UNK N   1      34.863  14.399  10.726  0.00  0.00     0.187 C 
HETATM    5  C   UNK N   1      33.771  16.003   8.560  0.00  0.00     0.292 C 
HETATM    6  O   UNK N   1      32.915  15.384   9.514  0.00  0.00    -0.348 OA
ENDROOT
BRANCH   4   7
HETATM    7  O   UNK N   1      35.571  13.199  11.027  0.00  0.00    -0.348 OA
BRANCH   7   8
HETATM    8  C   UNK N   1      35.863  12.981  12.397  0.00  0.00     0.292 C 
HETATM    9  C   UNK N   1      37.186  12.183  12.440  0.00  0.00     0.204 C 
HETATM   10  C   UNK N   1      37.510  11.735  13.876  0.00  0.00     0.183 C 
HETATM   11  C   UNK N   1      36.304  10.982  14.455  0.00  0.00     0.180 C 
HETATM   12  C   UNK N   1      35.064  11.889  14.324  0.00  0.00     0.179 C 
HETATM   13  O   UNK N   1      34.830  12.188  12.962  0.00  0.00    -0.348 OA
BRANCH   9  14
HETATM   14  O   UNK N   1      38.236  12.942  11.919  0.00  0.00    -0.388 OA
HETATM   15  H   UNK N   1      38.320  13.882  12.144  0.00  0.00     0.210 HD
ENDBRANCH   9  14
BRANCH  10  16
HETATM   16  O   UNK N   1      37.794  12.851  14.671  0.00  0.00    -0.390 OA
HETATM   17  H   UNK N   1      38.239  13.563  15.156  0.00  0.00     0.210 HD
ENDBRANCH  10  16
BRANCH  11  18
HETATM   18  O   UNK N   1      36.110   9.789  13.748  0.00  0.00    -0.390 OA
HETATM   19  H   UNK N   1      36.129   9.090  13.076  0.00  0.00     0.210 HD
ENDBRANCH  11  18
BRANCH  12  20
HETATM   20  C   UNK N   1      33.811  11.235  14.907  0.00  0.00     0.198 C 
BRANCH  20  21
HETATM   21  O   UNK N   1      33.064  10.590  13.918  0.00  0.00    -0.398 OA
HETATM   22  H   UNK N   1      32.309  10.354  13.357  0.00  0.00     0.209 HD
ENDBRANCH  20  21
ENDBRANCH  12  20
ENDBRANCH   7   8
ENDBRANCH   4   7
BRANCH   1  23
HETATM   23  C   UNK N   1      33.409  13.030   8.999  0.00  0.00     0.198 C 
BRANCH  23  24
HETATM   24  O   UNK N   1      33.341  11.764   9.572  0.00  0.00    -0.398 OA
HETATM   25  H   UNK N   1      33.462  11.005  10.165  0.00  0.00     0.209 HD
ENDBRANCH  23  24
ENDBRANCH   1  23
BRANCH   2  26
HETATM   26  O   UNK N   1      36.939  15.612  10.492  0.00  0.00    -0.390 OA
HETATM   27  H   UNK N   1      36.929  15.718  11.456  0.00  0.00     0.210 HD
ENDBRANCH   2  26
BRANCH   3  28
HETATM   28  O   UNK N   1      34.742  17.357  10.298  0.00  0.00    -0.388 OA
HETATM   29  H   UNK N   1      34.699  18.271  10.623  0.00  0.00     0.210 HD
ENDBRANCH   3  28
BRANCH   5  30
HETATM   30  O   UNK N   1      33.146  17.119   7.954  0.00  0.00    -0.348 OA
BRANCH  30  31
HETATM   31  C   UNK N   1      31.929  16.834   7.262  0.00  0.00     0.187 C 
HETATM   32  C   UNK N   1      31.905  17.240   5.725  0.00  0.00     0.180 C 
HETATM   33  O   UNK N   1      30.608  17.470   5.159  0.00  0.00    -0.348 OA
HETATM   34  C   UNK N   1      29.560  16.850   5.876  0.00  0.00     0.294 C 
HETATM   35  C   UNK N   1      29.454  17.407   7.306  0.00  0.00     0.256 C 
HETATM   36  C   UNK N   1      30.843  17.707   7.902  0.00  0.00     0.188 C 
HETATM   37  F   UNK N   1      28.716  18.579   7.318  0.00  0.00    -0.241 F 
BRANCH  32  38
HETATM   38  C   UNK N   1      32.666  16.291   4.807  0.00  0.00     0.198 C 
BRANCH  38  39
HETATM   39  O   UNK N   1      32.807  15.023   5.372  0.00  0.00    -0.398 OA
HETATM   40  H   UNK N   1      33.370  14.282   5.645  0.00  0.00     0.209 HD
ENDBRANCH  38  39
ENDBRANCH  32  38
BRANCH  34  41
HETATM   41  O   UNK N   1      29.736  15.462   5.896  0.00  0.00    -0.368 OA
HETATM   42  H   UNK N   1      29.534  14.689   5.346  0.00  0.00     0.212 HD
ENDBRANCH  34  41
BRANCH  36  43
HETATM   43  O   UNK N   1      30.806  17.566   9.291  0.00  0.00    -0.390 OA
HETATM   44  H   UNK N   1      30.486  16.863   9.878  0.00  0.00     0.210 HD
ENDBRANCH  36  43
ENDBRANCH  30  31
ENDBRANCH   5  30
TORSDOF 17
ENDMDL
MODEL 9
REMARK VINA RESULT:      -5.8     10.671     14.950
REMARK  17 active torsions:
REMARK  status: ('A' for Active; 'I' for Inactive)
REMARK    1  A    between atoms: C_4  and  C_1 
REMARK    2  A    between atoms: O_20  and  C_1 
REMARK    3  A    between atoms: C_5  and  C_2 
REMARK    4  A    between atoms: O_21  and  C_2 
REMARK    5  A    between atoms: C_6  and  C_3 
REMARK    6  A    between atoms: O_22  and  C_3 
REMARK    7  A    between atoms: C_8  and  O_23 
REMARK    8  A    between atoms: C_9  and  O_24 
REMARK    9  A    between atoms: C_10  and  O_25 
REMARK   10  A    between atoms: C_11  and  O_26 
REMARK   11  A    between atoms: C_12  and  O_27 
REMARK   12  A    between atoms: C_13  and  O_28 
REMARK   13  A    between atoms: C_14  and  O_33 
REMARK   14  A    between atoms: C_15  and  O_34 
REMARK   15  A    between atoms: C_16  and  O_29 
REMARK   16  A    between atoms: C_17  and  O_34 
REMARK   17  A    between atoms: C_18  and  O_33 
ROOT
HETATM    1  C   UNK N   1      34.349  14.584   7.981  0.00  0.00     0.180 C 
HETATM    2  C   UNK N   1      34.862  16.606   9.437  0.00  0.00     0.183 C 
HETATM    3  C   UNK N   1      33.867  17.371   8.555  0.00  0.00     0.204 C 
HETATM    4  C   UNK N   1      34.557  15.093   9.450  0.00  0.00     0.187 C 
HETATM    5  C   UNK N   1      33.887  16.745   7.152  0.00  0.00     0.292 C 
HETATM    6  O   UNK N   1      33.442  15.396   7.236  0.00  0.00    -0.348 OA
ENDROOT
BRANCH   4   7
HETATM    7  O   UNK N   1      35.634  14.467  10.143  0.00  0.00    -0.348 OA
BRANCH   7   8
HETATM    8  C   UNK N   1      35.275  13.711  11.288  0.00  0.00     0.292 C 
HETATM    9  C   UNK N   1      36.343  14.012  12.364  0.00  0.00     0.204 C 
HETATM   10  C   UNK N   1      36.153  13.108  13.594  0.00  0.00     0.183 C 
HETATM   11  C   UNK N   1      36.114  11.641  13.142  0.00  0.00     0.180 C 
HETATM   12  C   UNK N   1      35.023  11.501  12.061  0.00  0.00     0.179 C 
HETATM   13  O   UNK N   1      35.330  12.332  10.959  0.00  0.00    -0.348 OA
BRANCH   9  14
HETATM   14  O   UNK N   1      36.300  15.357  12.737  0.00  0.00    -0.388 OA
HETATM   15  H   UNK N   1      35.990  15.612  13.620  0.00  0.00     0.210 HD
ENDBRANCH   9  14
BRANCH  10  16
HETATM   16  O   UNK N   1      34.958  13.432  14.244  0.00  0.00    -0.390 OA
HETATM   17  H   UNK N   1      34.098  13.811  14.483  0.00  0.00     0.210 HD
ENDBRANCH  10  16
BRANCH  11  18
HETATM   18  O   UNK N   1      37.361  11.275  12.622  0.00  0.00    -0.390 OA
HETATM   19  H   UNK N   1      38.083  10.997  12.037  0.00  0.00     0.210 HD
ENDBRANCH  11  18
BRANCH  12  20
HETATM   20  C   UNK N   1      34.884  10.061  11.569  0.00  0.00     0.198 C 
BRANCH  20  21
HETATM   21  O   UNK N   1      35.521   9.163  12.429  0.00  0.00    -0.398 OA
HETATM   22  H   UNK N   1      36.126   8.829  13.110  0.00  0.00     0.209 HD
ENDBRANCH  20  21
ENDBRANCH  12  20
ENDBRANCH   7   8
ENDBRANCH   4   7
BRANCH   1  23
HETATM   23  C   UNK N   1      35.628  14.269   7.181  0.00  0.00     0.198 C 
BRANCH  23  24
HETATM   24  O   UNK N   1      36.418  13.275   7.751  0.00  0.00    -0.398 OA
HETATM   25  H   UNK N   1      36.773  12.601   8.352  0.00  0.00     0.209 HD
ENDBRANCH  23  24
ENDBRANCH   1  23
BRANCH   2  26
HETATM   26  O   UNK N   1      34.850  17.115  10.738  0.00  0.00    -0.390 OA
HETATM   27  H   UNK N   1      34.674  16.533  11.493  0.00  0.00     0.210 HD
ENDBRANCH   2  26
BRANCH   3  28
HETATM   28  O   UNK N   1      32.577  17.306   9.093  0.00  0.00    -0.388 OA
HETATM   29  H   UNK N   1      31.729  17.744   9.269  0.00  0.00     0.210 HD
ENDBRANCH   3  28
BRANCH   5  30
HETATM   30  O   UNK N   1      33.059  17.509   6.296  0.00  0.00    -0.348 OA
BRANCH  30  31
HETATM   31  C   UNK N   1      32.106  16.757   5.542  0.00  0.00     0.187 C 
HETATM   32  C   UNK N   1      32.234  16.879   3.962  0.00  0.00     0.180 C 
HETATM   33  O   UNK N   1      31.041  16.607   3.214  0.00  0.00    -0.348 OA
HETATM   34  C   UNK N   1      30.098  15.824   3.919  0.00  0.00     0.294 C 
HETATM   35  C   UNK N   1      29.599  16.548   5.180  0.00  0.00     0.256 C 
HETATM   36  C   UNK N   1      30.727  17.350   5.858  0.00  0.00     0.188 C 
HETATM   37  F   UNK N   1      28.575  17.425   4.864  0.00  0.00    -0.241 F 
BRANCH  32  38
HETATM   38  C   UNK N   1      33.373  16.070   3.354  0.00  0.00     0.198 C 
BRANCH  38  39
HETATM   39  O   UNK N   1      33.787  15.040   4.199  0.00  0.00    -0.398 OA
HETATM   40  H   UNK N   1      33.993  14.103   4.345  0.00  0.00     0.209 HD
ENDBRANCH  38  39
ENDBRANCH  32  38
BRANCH  34  41
HETATM   41  O   UNK N   1      30.646  14.578   4.246  0.00  0.00    -0.368 OA
HETATM   42  H   UNK N   1      30.442  13.636   4.137  0.00  0.00     0.212 HD
ENDBRANCH  34  41
BRANCH  36  43
HETATM   43  O   UNK N   1      30.493  17.434   7.232  0.00  0.00    -0.390 OA
HETATM   44  H   UNK N   1      29.742  17.187   7.793  0.00  0.00     0.210 HD
ENDBRANCH  36  43
ENDBRANCH  30  31
ENDBRANCH   5  30
TORSDOF 17
ENDMDL
