MODEL 1
REMARK VINA RESULT:      -6.9      0.000      0.000
REMARK  18 active torsions:
REMARK  status: ('A' for Active; 'I' for Inactive)
REMARK    1  A    between atoms: C_4  and  C_1 
REMARK    2  A    between atoms: O_19  and  C_1 
REMARK    3  A    between atoms: C_5  and  C_2 
REMARK    4  A    between atoms: O_20  and  C_2 
REMARK    5  A    between atoms: C_6  and  C_3 
REMARK    6  A    between atoms: O_21  and  C_3 
REMARK    7  A    between atoms: C_7  and  O_22 
REMARK    8  A    between atoms: C_8  and  O_23 
REMARK    9  A    between atoms: C_9  and  O_24 
REMARK   10  A    between atoms: C_10  and  O_25 
REMARK   11  A    between atoms: C_11  and  O_26 
REMARK   12  A    between atoms: C_12  and  O_27 
REMARK   13  A    between atoms: C_13  and  O_28 
REMARK   14  A    between atoms: C_14  and  O_33 
REMARK   15  A    between atoms: C_15  and  O_34 
REMARK   16  A    between atoms: C_16  and  O_29 
REMARK   17  A    between atoms: C_17  and  O_34 
REMARK   18  A    between atoms: C_18  and  O_33 
ROOT
HETATM    1  C   UNK N   1      33.300  15.053   8.698  0.00  0.00     0.180 C 
HETATM    2  C   UNK N   1      34.463  17.109   9.406  0.00  0.00     0.183 C 
HETATM    3  C   UNK N   1      34.294  17.608   7.958  0.00  0.00     0.204 C 
HETATM    4  C   UNK N   1      34.547  15.558   9.457  0.00  0.00     0.187 C 
HETATM    5  C   UNK N   1      33.107  16.907   7.237  0.00  0.00     0.292 C 
HETATM    6  O   UNK N   1      33.268  15.505   7.355  0.00  0.00    -0.348 OA
ENDROOT
BRANCH   4   7
HETATM    7  O   UNK N   1      35.776  15.071   8.905  0.00  0.00    -0.348 OA
BRANCH   7   8
HETATM    8  C   UNK N   1      36.605  14.501   9.924  0.00  0.00     0.292 C 
HETATM    9  C   UNK N   1      37.256  13.193   9.427  0.00  0.00     0.204 C 
HETATM   10  C   UNK N   1      38.083  12.567  10.573  0.00  0.00     0.183 C 
HETATM   11  C   UNK N   1      37.184  12.391  11.807  0.00  0.00     0.180 C 
HETATM   12  C   UNK N   1      36.548  13.747  12.152  0.00  0.00     0.179 C 
HETATM   13  O   UNK N   1      35.800  14.206  11.048  0.00  0.00    -0.348 OA
BRANCH   9  14
HETATM   14  O   UNK N   1      38.075  13.441   8.324  0.00  0.00    -0.388 OA
HETATM   15  H   UNK N   1      38.988  13.746   8.447  0.00  0.00     0.210 HD
ENDBRANCH   9  14
BRANCH  10  16
HETATM   16  O   UNK N   1      39.164  13.397  10.892  0.00  0.00    -0.390 OA
HETATM   17  H   UNK N   1      39.550  14.287  10.927  0.00  0.00     0.210 HD
ENDBRANCH  10  16
BRANCH  11  18
HETATM   18  O   UNK N   1      37.928  11.910  12.889  0.00  0.00    -0.390 OA
HETATM   19  H   UNK N   1      38.454  12.446  13.501  0.00  0.00     0.210 HD
ENDBRANCH  11  18
BRANCH  12  20
HETATM   20  C   UNK N   1      35.609  13.631  13.354  0.00  0.00     0.198 C 
BRANCH  20  21
HETATM   21  O   UNK N   1      34.373  13.099  12.978  0.00  0.00    -0.398 OA
HETATM   22  H   UNK N   1      33.807  12.736  12.279  0.00  0.00     0.209 HD
ENDBRANCH  20  21
ENDBRANCH  12  20
ENDBRANCH   7   8
ENDBRANCH   4   7
BRANCH   1  23
HETATM   23  C   UNK N   1      33.008  13.557   8.694  0.00  0.00     0.198 C 
BRANCH  23  24
HETATM   24  O   UNK N   1      33.530  12.942   9.837  0.00  0.00    -0.398 OA
HETATM   25  H   UNK N   1      34.161  12.895  10.573  0.00  0.00     0.209 HD
ENDBRANCH  23  24
ENDBRANCH   1  23
BRANCH   2  26
HETATM   26  O   UNK N   1      35.595  17.678   9.995  0.00  0.00    -0.390 OA
HETATM   27  H   UNK N   1      35.520  18.139  10.845  0.00  0.00     0.210 HD
ENDBRANCH   2  26
BRANCH   3  28
HETATM   28  O   UNK N   1      34.131  18.998   7.926  0.00  0.00    -0.388 OA
HETATM   29  H   UNK N   1      34.721  19.543   7.381  0.00  0.00     0.210 HD
ENDBRANCH   3  28
BRANCH   5  30
HETATM   30  O   UNK N   1      31.806  17.435   7.548  0.00  0.00    -0.348 OA
BRANCH  30  31
HETATM   31  C   UNK N   1      30.602  16.665   7.360  0.00  0.00     0.187 C 
HETATM   32  C   UNK N   1      29.828  16.830   5.996  0.00  0.00     0.180 C 
HETATM   33  O   UNK N   1      29.287  18.136   5.829  0.00  0.00    -0.349 OA
HETATM   34  C   UNK N   1      28.377  18.496   6.859  0.00  0.00     0.288 C 
HETATM   35  C   UNK N   1      29.039  18.429   8.244  0.00  0.00     0.204 C 
HETATM   36  C   UNK N   1      29.607  17.026   8.479  0.00  0.00     0.183 C 
BRANCH  32  37
HETATM   37  C   UNK N   1      28.763  15.738   5.805  0.00  0.00     0.198 C 
BRANCH  37  38
HETATM   38  O   UNK N   1      28.111  15.889   4.577  0.00  0.00    -0.398 OA
HETATM   39  H   UNK N   1      27.900  16.619   3.975  0.00  0.00     0.209 HD
ENDBRANCH  37  38
ENDBRANCH  32  37
BRANCH  34  40
HETATM   40  O   UNK N   1      27.215  17.715   6.805  0.00  0.00    -0.369 OA
HETATM   41  H   UNK N   1      26.317  17.843   7.150  0.00  0.00     0.212 HD
ENDBRANCH  34  40
BRANCH  35  42
HETATM   42  O   UNK N   1      28.103  18.745   9.231  0.00  0.00    -0.388 OA
HETATM   43  H   UNK N   1      28.150  18.393  10.134  0.00  0.00     0.210 HD
ENDBRANCH  35  42
BRANCH  36  44
HETATM   44  O   UNK N   1      30.234  16.959   9.727  0.00  0.00    -0.390 OA
HETATM   45  H   UNK N   1      30.398  17.706  10.323  0.00  0.00     0.210 HD
ENDBRANCH  36  44
ENDBRANCH  30  31
ENDBRANCH   5  30
TORSDOF 18
ENDMDL
MODEL 2
REMARK VINA RESULT:      -6.6      9.454     14.590
REMARK  18 active torsions:
REMARK  status: ('A' for Active; 'I' for Inactive)
REMARK    1  A    between atoms: C_4  and  C_1 
REMARK    2  A    between atoms: O_19  and  C_1 
REMARK    3  A    between atoms: C_5  and  C_2 
REMARK    4  A    between atoms: O_20  and  C_2 
REMARK    5  A    between atoms: C_6  and  C_3 
REMARK    6  A    between atoms: O_21  and  C_3 
REMARK    7  A    between atoms: C_7  and  O_22 
REMARK    8  A    between atoms: C_8  and  O_23 
REMARK    9  A    between atoms: C_9  and  O_24 
REMARK   10  A    between atoms: C_10  and  O_25 
REMARK   11  A    between atoms: C_11  and  O_26 
REMARK   12  A    between atoms: C_12  and  O_27 
REMARK   13  A    between atoms: C_13  and  O_28 
REMARK   14  A    between atoms: C_14  and  O_33 
REMARK   15  A    between atoms: C_15  and  O_34 
REMARK   16  A    between atoms: C_16  and  O_29 
REMARK   17  A    between atoms: C_17  and  O_34 
REMARK   18  A    between atoms: C_18  and  O_33 
ROOT
HETATM    1  C   UNK N   1      22.588  15.028   6.183  0.00  0.00     0.180 C 
HETATM    2  C   UNK N   1      20.187  14.583   5.834  0.00  0.00     0.183 C 
HETATM    3  C   UNK N   1      20.585  13.128   5.520  0.00  0.00     0.204 C 
HETATM    4  C   UNK N   1      21.332  15.567   5.464  0.00  0.00     0.187 C 
HETATM    5  C   UNK N   1      21.950  12.747   6.160  0.00  0.00     0.292 C 
HETATM    6  O   UNK N   1      22.915  13.709   5.777  0.00  0.00    -0.348 OA
ENDROOT
BRANCH   4   7
HETATM    7  O   UNK N   1      21.501  15.681   4.046  0.00  0.00    -0.348 OA
BRANCH   7   8
HETATM    8  C   UNK N   1      20.879  16.870   3.549  0.00  0.00     0.292 C 
HETATM    9  C   UNK N   1      20.230  16.611   2.174  0.00  0.00     0.204 C 
HETATM   10  C   UNK N   1      19.633  17.930   1.633  0.00  0.00     0.183 C 
HETATM   11  C   UNK N   1      20.726  19.010   1.617  0.00  0.00     0.180 C 
HETATM   12  C   UNK N   1      21.333  19.119   3.025  0.00  0.00     0.179 C 
HETATM   13  O   UNK N   1      21.868  17.869   3.400  0.00  0.00    -0.348 OA
BRANCH   9  14
HETATM   14  O   UNK N   1      19.232  15.640   2.278  0.00  0.00    -0.388 OA
HETATM   15  H   UNK N   1      18.756  15.336   1.489  0.00  0.00     0.210 HD
ENDBRANCH   9  14
BRANCH  10  16
HETATM   16  O   UNK N   1      18.572  18.345   2.447  0.00  0.00    -0.390 OA
HETATM   17  H   UNK N   1      17.749  18.848   2.552  0.00  0.00     0.210 HD
ENDBRANCH  10  16
BRANCH  11  18
HETATM   18  O   UNK N   1      20.193  20.239   1.217  0.00  0.00    -0.390 OA
HETATM   19  H   UNK N   1      20.688  20.971   0.817  0.00  0.00     0.210 HD
ENDBRANCH  11  18
BRANCH  12  20
HETATM   20  C   UNK N   1      22.457  20.155   3.067  0.00  0.00     0.198 C 
BRANCH  20  21
HETATM   21  O   UNK N   1      21.962  21.446   2.870  0.00  0.00    -0.398 OA
HETATM   22  H   UNK N   1      21.912  22.367   3.170  0.00  0.00     0.209 HD
ENDBRANCH  20  21
ENDBRANCH  12  20
ENDBRANCH   7   8
ENDBRANCH   4   7
BRANCH   1  23
HETATM   23  C   UNK N   1      23.864  15.860   6.140  0.00  0.00     0.198 C 
BRANCH  23  24
HETATM   24  O   UNK N   1      23.587  17.182   5.775  0.00  0.00    -0.398 OA
HETATM   25  H   UNK N   1      23.775  17.990   5.270  0.00  0.00     0.209 HD
ENDBRANCH  23  24
ENDBRANCH   1  23
BRANCH   2  26
HETATM   26  O   UNK N   1      19.011  14.929   5.165  0.00  0.00    -0.390 OA
HETATM   27  H   UNK N   1      18.241  15.239   5.667  0.00  0.00     0.210 HD
ENDBRANCH   2  26
BRANCH   3  28
HETATM   28  O   UNK N   1      19.586  12.238   5.936  0.00  0.00    -0.388 OA
HETATM   29  H   UNK N   1      19.595  11.890   6.841  0.00  0.00     0.210 HD
ENDBRANCH   3  28
BRANCH   5  30
HETATM   30  O   UNK N   1      21.896  12.408   7.556  0.00  0.00    -0.348 OA
BRANCH  30  31
HETATM   31  C   UNK N   1      22.596  13.174   8.558  0.00  0.00     0.187 C 
HETATM   32  C   UNK N   1      23.938  12.580   9.134  0.00  0.00     0.180 C 
HETATM   33  O   UNK N   1      23.733  11.381   9.873  0.00  0.00    -0.349 OA
HETATM   34  C   UNK N   1      22.857  11.552  10.977  0.00  0.00     0.288 C 
HETATM   35  C   UNK N   1      21.483  12.076  10.532  0.00  0.00     0.204 C 
HETATM   36  C   UNK N   1      21.655  13.388   9.760  0.00  0.00     0.183 C 
BRANCH  32  37
HETATM   37  C   UNK N   1      24.727  13.624   9.941  0.00  0.00     0.198 C 
BRANCH  37  38
HETATM   38  O   UNK N   1      25.746  13.014  10.679  0.00  0.00    -0.398 OA
HETATM   39  H   UNK N   1      26.713  12.950  10.630  0.00  0.00     0.209 HD
ENDBRANCH  37  38
ENDBRANCH  32  37
BRANCH  34  40
HETATM   40  O   UNK N   1      23.429  12.375  11.957  0.00  0.00    -0.369 OA
HETATM   41  H   UNK N   1      23.554  12.274  12.913  0.00  0.00     0.212 HD
ENDBRANCH  34  40
BRANCH  35  42
HETATM   42  O   UNK N   1      20.666  12.274  11.647  0.00  0.00    -0.388 OA
HETATM   43  H   UNK N   1      20.503  11.585  12.309  0.00  0.00     0.210 HD
ENDBRANCH  35  42
BRANCH  36  44
HETATM   44  O   UNK N   1      20.414  13.864   9.326  0.00  0.00    -0.390 OA
HETATM   45  H   UNK N   1      20.248  14.351   8.504  0.00  0.00     0.210 HD
ENDBRANCH  36  44
ENDBRANCH  30  31
ENDBRANCH   5  30
TORSDOF 18
ENDMDL
MODEL 3
REMARK VINA RESULT:      -6.4      1.737      8.507
REMARK  18 active torsions:
REMARK  status: ('A' for Active; 'I' for Inactive)
REMARK    1  A    between atoms: C_4  and  C_1 
REMARK    2  A    between atoms: O_19  and  C_1 
REMARK    3  A    between atoms: C_5  and  C_2 
REMARK    4  A    between atoms: O_20  and  C_2 
REMARK    5  A    between atoms: C_6  and  C_3 
REMARK    6  A    between atoms: O_21  and  C_3 
REMARK    7  A    between atoms: C_7  and  O_22 
REMARK    8  A    between atoms: C_8  and  O_23 
REMARK    9  A    between atoms: C_9  and  O_24 
REMARK   10  A    between atoms: C_10  and  O_25 
REMARK   11  A    between atoms: C_11  and  O_26 
REMARK   12  A    between atoms: C_12  and  O_27 
REMARK   13  A    between atoms: C_13  and  O_28 
REMARK   14  A    between atoms: C_14  and  O_33 
REMARK   15  A    between atoms: C_15  and  O_34 
REMARK   16  A    between atoms: C_16  and  O_29 
REMARK   17  A    between atoms: C_17  and  O_34 
REMARK   18  A    between atoms: C_18  and  O_33 
ROOT
HETATM    1  C   UNK N   1      33.672  16.630   7.609  0.00  0.00     0.180 C 
HETATM    2  C   UNK N   1      32.659  14.501   6.885  0.00  0.00     0.183 C 
HETATM    3  C   UNK N   1      33.894  14.312   5.985  0.00  0.00     0.204 C 
HETATM    4  C   UNK N   1      32.351  16.009   7.103  0.00  0.00     0.187 C 
HETATM    5  C   UNK N   1      35.120  15.117   6.502  0.00  0.00     0.292 C 
HETATM    6  O   UNK N   1      34.733  16.467   6.683  0.00  0.00    -0.348 OA
ENDROOT
BRANCH   4   7
HETATM    7  O   UNK N   1      31.859  16.631   5.911  0.00  0.00    -0.348 OA
BRANCH   7   8
HETATM    8  C   UNK N   1      30.458  16.906   6.016  0.00  0.00     0.292 C 
HETATM    9  C   UNK N   1      29.989  17.798   4.849  0.00  0.00     0.204 C 
HETATM   10  C   UNK N   1      28.491  18.136   5.033  0.00  0.00     0.183 C 
HETATM   11  C   UNK N   1      28.282  18.758   6.423  0.00  0.00     0.180 C 
HETATM   12  C   UNK N   1      28.851  17.802   7.483  0.00  0.00     0.179 C 
HETATM   13  O   UNK N   1      30.223  17.590   7.230  0.00  0.00    -0.348 OA
BRANCH   9  14
HETATM   14  O   UNK N   1      30.188  17.153   3.627  0.00  0.00    -0.388 OA
HETATM   15  H   UNK N   1      30.339  17.666   2.817  0.00  0.00     0.210 HD
ENDBRANCH   9  14
BRANCH  10  16
HETATM   16  O   UNK N   1      27.721  16.973   4.916  0.00  0.00    -0.390 OA
HETATM   17  H   UNK N   1      26.982  16.501   4.500  0.00  0.00     0.210 HD
ENDBRANCH  10  16
BRANCH  11  18
HETATM   18  O   UNK N   1      26.922  18.991   6.654  0.00  0.00    -0.390 OA
HETATM   19  H   UNK N   1      26.272  19.267   5.990  0.00  0.00     0.210 HD
ENDBRANCH  11  18
BRANCH  12  20
HETATM   20  C   UNK N   1      28.706  18.383   8.890  0.00  0.00     0.198 C 
BRANCH  20  21
HETATM   21  O   UNK N   1      27.429  18.148   9.404  0.00  0.00    -0.398 OA
HETATM   22  H   UNK N   1      26.867  17.975  10.176  0.00  0.00     0.209 HD
ENDBRANCH  20  21
ENDBRANCH  12  20
ENDBRANCH   7   8
ENDBRANCH   4   7
BRANCH   1  23
HETATM   23  C   UNK N   1      33.665  18.086   8.060  0.00  0.00     0.198 C 
BRANCH  23  24
HETATM   24  O   UNK N   1      34.896  18.697   7.797  0.00  0.00    -0.398 OA
HETATM   25  H   UNK N   1      35.435  19.453   7.515  0.00  0.00     0.209 HD
ENDBRANCH  23  24
ENDBRANCH   1  23
BRANCH   2  26
HETATM   26  O   UNK N   1      31.548  13.850   6.343  0.00  0.00    -0.390 OA
HETATM   27  H   UNK N   1      31.671  13.133   5.702  0.00  0.00     0.210 HD
ENDBRANCH   2  26
BRANCH   3  28
HETATM   28  O   UNK N   1      34.219  12.954   5.864  0.00  0.00    -0.388 OA
HETATM   29  H   UNK N   1      33.608  12.279   6.197  0.00  0.00     0.210 HD
ENDBRANCH   3  28
BRANCH   5  30
HETATM   30  O   UNK N   1      35.842  14.503   7.584  0.00  0.00    -0.348 OA
BRANCH  30  31
HETATM   31  C   UNK N   1      35.418  14.630   8.957  0.00  0.00     0.187 C 
HETATM   32  C   UNK N   1      36.278  15.545   9.911  0.00  0.00     0.180 C 
HETATM   33  O   UNK N   1      37.587  15.030  10.128  0.00  0.00    -0.349 OA
HETATM   34  C   UNK N   1      37.585  13.731  10.702  0.00  0.00     0.288 C 
HETATM   35  C   UNK N   1      36.820  12.728   9.825  0.00  0.00     0.204 C 
HETATM   36  C   UNK N   1      35.390  13.228   9.595  0.00  0.00     0.183 C 
BRANCH  32  37
HETATM   37  C   UNK N   1      35.550  15.839  11.233  0.00  0.00     0.198 C 
BRANCH  37  38
HETATM   38  O   UNK N   1      34.890  17.070  11.173  0.00  0.00    -0.398 OA
HETATM   39  H   UNK N   1      35.138  18.007  11.202  0.00  0.00     0.209 HD
ENDBRANCH  37  38
ENDBRANCH  32  37
BRANCH  34  40
HETATM   40  O   UNK N   1      37.087  13.756  12.012  0.00  0.00    -0.369 OA
HETATM   41  H   UNK N   1      37.338  14.255  12.804  0.00  0.00     0.212 HD
ENDBRANCH  34  40
BRANCH  35  42
HETATM   42  O   UNK N   1      36.801  11.476  10.444  0.00  0.00    -0.388 OA
HETATM   43  H   UNK N   1      37.003  11.349  11.384  0.00  0.00     0.210 HD
ENDBRANCH  35  42
BRANCH  36  44
HETATM   44  O   UNK N   1      34.689  12.336   8.777  0.00  0.00    -0.390 OA
HETATM   45  H   UNK N   1      33.956  11.766   9.055  0.00  0.00     0.210 HD
ENDBRANCH  36  44
ENDBRANCH  30  31
ENDBRANCH   5  30
TORSDOF 18
ENDMDL
MODEL 4
REMARK VINA RESULT:      -6.3      2.441      9.772
REMARK  18 active torsions:
REMARK  status: ('A' for Active; 'I' for Inactive)
REMARK    1  A    between atoms: C_4  and  C_1 
REMARK    2  A    between atoms: O_19  and  C_1 
REMARK    3  A    between atoms: C_5  and  C_2 
REMARK    4  A    between atoms: O_20  and  C_2 
REMARK    5  A    between atoms: C_6  and  C_3 
REMARK    6  A    between atoms: O_21  and  C_3 
REMARK    7  A    between atoms: C_7  and  O_22 
REMARK    8  A    between atoms: C_8  and  O_23 
REMARK    9  A    between atoms: C_9  and  O_24 
REMARK   10  A    between atoms: C_10  and  O_25 
REMARK   11  A    between atoms: C_11  and  O_26 
REMARK   12  A    between atoms: C_12  and  O_27 
REMARK   13  A    between atoms: C_13  and  O_28 
REMARK   14  A    between atoms: C_14  and  O_33 
REMARK   15  A    between atoms: C_15  and  O_34 
REMARK   16  A    between atoms: C_16  and  O_29 
REMARK   17  A    between atoms: C_17  and  O_34 
REMARK   18  A    between atoms: C_18  and  O_33 
ROOT
HETATM    1  C   UNK N   1      28.972  16.941   8.242  0.00  0.00     0.180 C 
HETATM    2  C   UNK N   1      30.014  16.675   6.022  0.00  0.00     0.183 C 
HETATM    3  C   UNK N   1      31.312  17.211   6.656  0.00  0.00     0.204 C 
HETATM    4  C   UNK N   1      28.762  17.249   6.743  0.00  0.00     0.187 C 
HETATM    5  C   UNK N   1      31.340  16.993   8.196  0.00  0.00     0.292 C 
HETATM    6  O   UNK N   1      30.155  17.534   8.752  0.00  0.00    -0.348 OA
ENDROOT
BRANCH   4   7
HETATM    7  O   UNK N   1      28.584  18.644   6.475  0.00  0.00    -0.348 OA
BRANCH   7   8
HETATM    8  C   UNK N   1      27.565  18.852   5.492  0.00  0.00     0.292 C 
HETATM    9  C   UNK N   1      26.777  20.145   5.790  0.00  0.00     0.204 C 
HETATM   10  C   UNK N   1      25.639  20.301   4.756  0.00  0.00     0.183 C 
HETATM   11  C   UNK N   1      24.779  19.027   4.757  0.00  0.00     0.180 C 
HETATM   12  C   UNK N   1      25.691  17.814   4.517  0.00  0.00     0.179 C 
HETATM   13  O   UNK N   1      26.670  17.759   5.532  0.00  0.00    -0.348 OA
BRANCH   9  14
HETATM   14  O   UNK N   1      27.622  21.256   5.745  0.00  0.00    -0.388 OA
HETATM   15  H   UNK N   1      27.682  21.797   4.942  0.00  0.00     0.210 HD
ENDBRANCH   9  14
BRANCH  10  16
HETATM   16  O   UNK N   1      26.177  20.505   3.479  0.00  0.00    -0.390 OA
HETATM   17  H   UNK N   1      26.818  20.254   2.795  0.00  0.00     0.210 HD
ENDBRANCH  10  16
BRANCH  11  18
HETATM   18  O   UNK N   1      23.794  19.102   3.766  0.00  0.00    -0.390 OA
HETATM   19  H   UNK N   1      23.203  19.853   3.608  0.00  0.00     0.210 HD
ENDBRANCH  11  18
BRANCH  12  20
HETATM   20  C   UNK N   1      24.898  16.507   4.544  0.00  0.00     0.198 C 
BRANCH  20  21
HETATM   21  O   UNK N   1      24.382  16.204   3.282  0.00  0.00    -0.398 OA
HETATM   22  H   UNK N   1      24.234  16.476   2.362  0.00  0.00     0.209 HD
ENDBRANCH  20  21
ENDBRANCH  12  20
ENDBRANCH   7   8
ENDBRANCH   4   7
BRANCH   1  23
HETATM   23  C   UNK N   1      27.838  17.250   9.213  0.00  0.00     0.198 C 
BRANCH  23  24
HETATM   24  O   UNK N   1      27.469  18.597   9.139  0.00  0.00    -0.398 OA
HETATM   25  H   UNK N   1      27.334  19.472   9.537  0.00  0.00     0.209 HD
ENDBRANCH  23  24
ENDBRANCH   1  23
BRANCH   2  26
HETATM   26  O   UNK N   1      29.971  16.973   4.659  0.00  0.00    -0.390 OA
HETATM   27  H   UNK N   1      29.417  17.702   4.339  0.00  0.00     0.210 HD
ENDBRANCH   2  26
BRANCH   3  28
HETATM   28  O   UNK N   1      32.436  16.623   6.062  0.00  0.00    -0.388 OA
HETATM   29  H   UNK N   1      32.520  16.607   5.095  0.00  0.00     0.210 HD
ENDBRANCH   3  28
BRANCH   5  30
HETATM   30  O   UNK N   1      31.705  15.669   8.620  0.00  0.00    -0.348 OA
BRANCH  30  31
HETATM   31  C   UNK N   1      32.846  15.423   9.466  0.00  0.00     0.187 C 
HETATM   32  C   UNK N   1      34.081  16.395   9.338  0.00  0.00     0.180 C 
HETATM   33  O   UNK N   1      34.720  16.303   8.070  0.00  0.00    -0.349 OA
HETATM   34  C   UNK N   1      35.198  14.997   7.781  0.00  0.00     0.288 C 
HETATM   35  C   UNK N   1      34.065  13.960   7.819  0.00  0.00     0.204 C 
HETATM   36  C   UNK N   1      33.371  14.001   9.184  0.00  0.00     0.183 C 
BRANCH  32  37
HETATM   37  C   UNK N   1      35.076  16.214  10.496  0.00  0.00     0.198 C 
BRANCH  37  38
HETATM   38  O   UNK N   1      36.024  17.241  10.502  0.00  0.00    -0.398 OA
HETATM   39  H   UNK N   1      36.882  17.413  10.084  0.00  0.00     0.209 HD
ENDBRANCH  37  38
ENDBRANCH  32  37
BRANCH  34  40
HETATM   40  O   UNK N   1      36.250  14.642   8.637  0.00  0.00    -0.369 OA
HETATM   41  H   UNK N   1      36.335  14.614   9.602  0.00  0.00     0.212 HD
ENDBRANCH  34  40
BRANCH  35  42
HETATM   42  O   UNK N   1      34.581  12.685   7.576  0.00  0.00    -0.388 OA
HETATM   43  H   UNK N   1      34.161  11.875   7.905  0.00  0.00     0.210 HD
ENDBRANCH  35  42
BRANCH  36  44
HETATM   44  O   UNK N   1      32.320  13.079   9.223  0.00  0.00    -0.390 OA
HETATM   45  H   UNK N   1      32.408  12.121   9.343  0.00  0.00     0.210 HD
ENDBRANCH  36  44
ENDBRANCH  30  31
ENDBRANCH   5  30
TORSDOF 18
ENDMDL
MODEL 5
REMARK VINA RESULT:      -6.3      1.752      8.609
REMARK  18 active torsions:
REMARK  status: ('A' for Active; 'I' for Inactive)
REMARK    1  A    between atoms: C_4  and  C_1 
REMARK    2  A    between atoms: O_19  and  C_1 
REMARK    3  A    between atoms: C_5  and  C_2 
REMARK    4  A    between atoms: O_20  and  C_2 
REMARK    5  A    between atoms: C_6  and  C_3 
REMARK    6  A    between atoms: O_21  and  C_3 
REMARK    7  A    between atoms: C_7  and  O_22 
REMARK    8  A    between atoms: C_8  and  O_23 
REMARK    9  A    between atoms: C_9  and  O_24 
REMARK   10  A    between atoms: C_10  and  O_25 
REMARK   11  A    between atoms: C_11  and  O_26 
REMARK   12  A    between atoms: C_12  and  O_27 
REMARK   13  A    between atoms: C_13  and  O_28 
REMARK   14  A    between atoms: C_14  and  O_33 
REMARK   15  A    between atoms: C_15  and  O_34 
REMARK   16  A    between atoms: C_16  and  O_29 
REMARK   17  A    between atoms: C_17  and  O_34 
REMARK   18  A    between atoms: C_18  and  O_33 
ROOT
HETATM    1  C   UNK N   1      33.250  16.080   6.826  0.00  0.00     0.180 C 
HETATM    2  C   UNK N   1      31.946  16.306   8.908  0.00  0.00     0.183 C 
HETATM    3  C   UNK N   1      32.519  14.937   9.320  0.00  0.00     0.204 C 
HETATM    4  C   UNK N   1      31.843  16.426   7.361  0.00  0.00     0.187 C 
HETATM    5  C   UNK N   1      33.858  14.623   8.592  0.00  0.00     0.292 C 
HETATM    6  O   UNK N   1      33.662  14.776   7.198  0.00  0.00    -0.348 OA
ENDROOT
BRANCH   4   7
HETATM    7  O   UNK N   1      30.817  15.581   6.827  0.00  0.00    -0.348 OA
BRANCH   7   8
HETATM    8  C   UNK N   1      29.705  16.355   6.365  0.00  0.00     0.292 C 
HETATM    9  C   UNK N   1      30.033  17.027   5.016  0.00  0.00     0.204 C 
HETATM   10  C   UNK N   1      28.842  17.913   4.582  0.00  0.00     0.183 C 
HETATM   11  C   UNK N   1      28.511  18.901   5.712  0.00  0.00     0.180 C 
HETATM   12  C   UNK N   1      28.274  18.109   7.008  0.00  0.00     0.179 C 
HETATM   13  O   UNK N   1      29.431  17.364   7.317  0.00  0.00    -0.348 OA
BRANCH   9  14
HETATM   14  O   UNK N   1      30.295  16.065   4.039  0.00  0.00    -0.388 OA
HETATM   15  H   UNK N   1      30.365  16.317   3.104  0.00  0.00     0.210 HD
ENDBRANCH   9  14
BRANCH  10  16
HETATM   16  O   UNK N   1      27.724  17.114   4.313  0.00  0.00    -0.390 OA
HETATM   17  H   UNK N   1      27.249  16.277   4.436  0.00  0.00     0.210 HD
ENDBRANCH  10  16
BRANCH  11  18
HETATM   18  O   UNK N   1      27.380  19.655   5.385  0.00  0.00    -0.390 OA
HETATM   19  H   UNK N   1      27.279  20.612   5.505  0.00  0.00     0.210 HD
ENDBRANCH  11  18
BRANCH  12  20
HETATM   20  C   UNK N   1      27.975  19.042   8.182  0.00  0.00     0.198 C 
BRANCH  20  21
HETATM   21  O   UNK N   1      27.504  18.327   9.287  0.00  0.00    -0.398 OA
HETATM   22  H   UNK N   1      27.606  17.574   9.889  0.00  0.00     0.209 HD
ENDBRANCH  20  21
ENDBRANCH  12  20
ENDBRANCH   7   8
ENDBRANCH   4   7
BRANCH   1  23
HETATM   23  C   UNK N   1      33.524  16.250   5.336  0.00  0.00     0.198 C 
BRANCH  23  24
HETATM   24  O   UNK N   1      32.969  15.195   4.603  0.00  0.00    -0.398 OA
HETATM   25  H   UNK N   1      32.635  14.806   3.778  0.00  0.00     0.209 HD
ENDBRANCH  23  24
ENDBRANCH   1  23
BRANCH   2  26
HETATM   26  O   UNK N   1      30.698  16.517   9.497  0.00  0.00    -0.390 OA
HETATM   27  H   UNK N   1      30.534  16.220  10.406  0.00  0.00     0.210 HD
ENDBRANCH   2  26
BRANCH   3  28
HETATM   28  O   UNK N   1      32.692  14.868  10.708  0.00  0.00    -0.388 OA
HETATM   29  H   UNK N   1      33.380  15.400  11.138  0.00  0.00     0.210 HD
ENDBRANCH   3  28
BRANCH   5  30
HETATM   30  O   UNK N   1      35.021  15.255   9.153  0.00  0.00    -0.348 OA
BRANCH  30  31
HETATM   31  C   UNK N   1      36.229  14.521   9.437  0.00  0.00     0.187 C 
HETATM   32  C   UNK N   1      36.131  12.951   9.536  0.00  0.00     0.180 C 
HETATM   33  O   UNK N   1      35.345  12.521  10.642  0.00  0.00    -0.349 OA
HETATM   34  C   UNK N   1      35.846  12.978  11.891  0.00  0.00     0.288 C 
HETATM   35  C   UNK N   1      35.933  14.511  11.936  0.00  0.00     0.204 C 
HETATM   36  C   UNK N   1      36.801  15.015  10.780  0.00  0.00     0.183 C 
BRANCH  32  37
HETATM   37  C   UNK N   1      37.518  12.287   9.526  0.00  0.00     0.198 C 
BRANCH  37  38
HETATM   38  O   UNK N   1      37.403  10.895   9.577  0.00  0.00    -0.398 OA
HETATM   39  H   UNK N   1      37.059  10.237  10.200  0.00  0.00     0.209 HD
ENDBRANCH  37  38
ENDBRANCH  32  37
BRANCH  34  40
HETATM   40  O   UNK N   1      37.078  12.383  12.191  0.00  0.00    -0.369 OA
HETATM   41  H   UNK N   1      37.710  12.504  12.917  0.00  0.00     0.212 HD
ENDBRANCH  34  40
BRANCH  35  42
HETATM   42  O   UNK N   1      36.470  14.919  13.159  0.00  0.00    -0.388 OA
HETATM   43  H   UNK N   1      37.185  14.439  13.607  0.00  0.00     0.210 HD
ENDBRANCH  35  42
BRANCH  36  44
HETATM   44  O   UNK N   1      36.869  16.412  10.794  0.00  0.00    -0.390 OA
HETATM   45  H   UNK N   1      36.118  17.016  10.901  0.00  0.00     0.210 HD
ENDBRANCH  36  44
ENDBRANCH  30  31
ENDBRANCH   5  30
TORSDOF 18
ENDMDL
MODEL 6
REMARK VINA RESULT:      -6.2      5.388     12.702
REMARK  18 active torsions:
REMARK  status: ('A' for Active; 'I' for Inactive)
REMARK    1  A    between atoms: C_4  and  C_1 
REMARK    2  A    between atoms: O_19  and  C_1 
REMARK    3  A    between atoms: C_5  and  C_2 
REMARK    4  A    between atoms: O_20  and  C_2 
REMARK    5  A    between atoms: C_6  and  C_3 
REMARK    6  A    between atoms: O_21  and  C_3 
REMARK    7  A    between atoms: C_7  and  O_22 
REMARK    8  A    between atoms: C_8  and  O_23 
REMARK    9  A    between atoms: C_9  and  O_24 
REMARK   10  A    between atoms: C_10  and  O_25 
REMARK   11  A    between atoms: C_11  and  O_26 
REMARK   12  A    between atoms: C_12  and  O_27 
REMARK   13  A    between atoms: C_13  and  O_28 
REMARK   14  A    between atoms: C_14  and  O_33 
REMARK   15  A    between atoms: C_15  and  O_34 
REMARK   16  A    between atoms: C_16  and  O_29 
REMARK   17  A    between atoms: C_17  and  O_34 
REMARK   18  A    between atoms: C_18  and  O_33 
ROOT
HETATM    1  C   UNK N   1      25.258  18.208   4.880  0.00  0.00     0.180 C 
HETATM    2  C   UNK N   1      24.468  15.996   5.632  0.00  0.00     0.183 C 
HETATM    3  C   UNK N   1      25.671  15.399   4.878  0.00  0.00     0.204 C 
HETATM    4  C   UNK N   1      23.996  17.322   4.971  0.00  0.00     0.187 C 
HETATM    5  C   UNK N   1      26.818  16.435   4.701  0.00  0.00     0.292 C 
HETATM    6  O   UNK N   1      26.285  17.606   4.109  0.00  0.00    -0.348 OA
ENDROOT
BRANCH   4   7
HETATM    7  O   UNK N   1      23.377  17.095   3.700  0.00  0.00    -0.348 OA
BRANCH   7   8
HETATM    8  C   UNK N   1      21.999  17.481   3.725  0.00  0.00     0.292 C 
HETATM    9  C   UNK N   1      21.142  16.491   2.908  0.00  0.00     0.204 C 
HETATM   10  C   UNK N   1      19.674  16.976   2.894  0.00  0.00     0.183 C 
HETATM   11  C   UNK N   1      19.625  18.423   2.378  0.00  0.00     0.180 C 
HETATM   12  C   UNK N   1      20.569  19.284   3.233  0.00  0.00     0.179 C 
HETATM   13  O   UNK N   1      21.878  18.765   3.148  0.00  0.00    -0.348 OA
BRANCH   9  14
HETATM   14  O   UNK N   1      21.218  15.209   3.454  0.00  0.00    -0.388 OA
HETATM   15  H   UNK N   1      22.042  14.893   3.858  0.00  0.00     0.210 HD
ENDBRANCH   9  14
BRANCH  10  16
HETATM   16  O   UNK N   1      19.138  16.918   4.186  0.00  0.00    -0.390 OA
HETATM   17  H   UNK N   1      18.822  16.386   4.934  0.00  0.00     0.210 HD
ENDBRANCH  10  16
BRANCH  11  18
HETATM   18  O   UNK N   1      18.320  18.920   2.440  0.00  0.00    -0.390 OA
HETATM   19  H   UNK N   1      17.996  19.594   3.057  0.00  0.00     0.210 HD
ENDBRANCH  11  18
BRANCH  12  20
HETATM   20  C   UNK N   1      20.594  20.733   2.745  0.00  0.00     0.198 C 
BRANCH  20  21
HETATM   21  O   UNK N   1      21.877  21.278   2.849  0.00  0.00    -0.398 OA
HETATM   22  H   UNK N   1      22.667  21.623   2.404  0.00  0.00     0.209 HD
ENDBRANCH  20  21
ENDBRANCH  12  20
ENDBRANCH   7   8
ENDBRANCH   4   7
BRANCH   1  23
HETATM   23  C   UNK N   1      25.102  19.649   4.406  0.00  0.00     0.198 C 
BRANCH  23  24
HETATM   24  O   UNK N   1      24.578  19.695   3.110  0.00  0.00    -0.398 OA
HETATM   25  H   UNK N   1      24.339  20.171   2.298  0.00  0.00     0.209 HD
ENDBRANCH  23  24
ENDBRANCH   1  23
BRANCH   2  26
HETATM   26  O   UNK N   1      23.416  15.079   5.688  0.00  0.00    -0.390 OA
HETATM   27  H   UNK N   1      23.248  14.582   6.504  0.00  0.00     0.210 HD
ENDBRANCH   2  26
BRANCH   3  28
HETATM   28  O   UNK N   1      26.146  14.253   5.528  0.00  0.00    -0.388 OA
HETATM   29  H   UNK N   1      25.675  13.903   6.300  0.00  0.00     0.210 HD
ENDBRANCH   3  28
BRANCH   5  30
HETATM   30  O   UNK N   1      27.658  16.620   5.852  0.00  0.00    -0.348 OA
BRANCH  30  31
HETATM   31  C   UNK N   1      28.864  17.409   5.803  0.00  0.00     0.187 C 
HETATM   32  C   UNK N   1      30.243  16.645   5.762  0.00  0.00     0.180 C 
HETATM   33  O   UNK N   1      30.501  15.918   6.958  0.00  0.00    -0.349 OA
HETATM   34  C   UNK N   1      30.526  16.743   8.114  0.00  0.00     0.288 C 
HETATM   35  C   UNK N   1      29.203  17.502   8.295  0.00  0.00     0.204 C 
HETATM   36  C   UNK N   1      28.903  18.327   7.040  0.00  0.00     0.183 C 
BRANCH  32  37
HETATM   37  C   UNK N   1      31.407  17.581   5.396  0.00  0.00     0.198 C 
BRANCH  37  38
HETATM   38  O   UNK N   1      31.306  18.001   4.066  0.00  0.00    -0.398 OA
HETATM   39  H   UNK N   1      31.813  17.883   3.248  0.00  0.00     0.209 HD
ENDBRANCH  37  38
ENDBRANCH  32  37
BRANCH  34  40
HETATM   40  O   UNK N   1      31.622  17.617   8.090  0.00  0.00    -0.369 OA
HETATM   41  H   UNK N   1      31.708  18.563   7.894  0.00  0.00     0.212 HD
ENDBRANCH  34  40
BRANCH  35  42
HETATM   42  O   UNK N   1      29.283  18.334   9.414  0.00  0.00    -0.388 OA
HETATM   43  H   UNK N   1      29.458  19.286   9.351  0.00  0.00     0.210 HD
ENDBRANCH  35  42
BRANCH  36  44
HETATM   44  O   UNK N   1      27.688  19.003   7.181  0.00  0.00    -0.390 OA
HETATM   45  H   UNK N   1      27.086  19.247   6.461  0.00  0.00     0.210 HD
ENDBRANCH  36  44
ENDBRANCH  30  31
ENDBRANCH   5  30
TORSDOF 18
ENDMDL
MODEL 7
REMARK VINA RESULT:      -6.2      2.593      8.444
REMARK  18 active torsions:
REMARK  status: ('A' for Active; 'I' for Inactive)
REMARK    1  A    between atoms: C_4  and  C_1 
REMARK    2  A    between atoms: O_19  and  C_1 
REMARK    3  A    between atoms: C_5  and  C_2 
REMARK    4  A    between atoms: O_20  and  C_2 
REMARK    5  A    between atoms: C_6  and  C_3 
REMARK    6  A    between atoms: O_21  and  C_3 
REMARK    7  A    between atoms: C_7  and  O_22 
REMARK    8  A    between atoms: C_8  and  O_23 
REMARK    9  A    between atoms: C_9  and  O_24 
REMARK   10  A    between atoms: C_10  and  O_25 
REMARK   11  A    between atoms: C_11  and  O_26 
REMARK   12  A    between atoms: C_12  and  O_27 
REMARK   13  A    between atoms: C_13  and  O_28 
REMARK   14  A    between atoms: C_14  and  O_33 
REMARK   15  A    between atoms: C_15  and  O_34 
REMARK   16  A    between atoms: C_16  and  O_29 
REMARK   17  A    between atoms: C_17  and  O_34 
REMARK   18  A    between atoms: C_18  and  O_33 
ROOT
HETATM    1  C   UNK N   1      35.174  12.985  10.003  0.00  0.00     0.180 C 
HETATM    2  C   UNK N   1      36.447  14.905  10.882  0.00  0.00     0.183 C 
HETATM    3  C   UNK N   1      35.923  14.512  12.276  0.00  0.00     0.204 C 
HETATM    4  C   UNK N   1      35.445  14.487   9.769  0.00  0.00     0.187 C 
HETATM    5  C   UNK N   1      35.525  13.010  12.345  0.00  0.00     0.292 C 
HETATM    6  O   UNK N   1      34.628  12.729  11.286  0.00  0.00    -0.348 OA
ENDROOT
BRANCH   4   7
HETATM    7  O   UNK N   1      34.254  15.283   9.796  0.00  0.00    -0.348 OA
BRANCH   7   8
HETATM    8  C   UNK N   1      33.984  15.844   8.507  0.00  0.00     0.292 C 
HETATM    9  C   UNK N   1      33.768  17.368   8.612  0.00  0.00     0.204 C 
HETATM   10  C   UNK N   1      33.406  17.931   7.218  0.00  0.00     0.183 C 
HETATM   11  C   UNK N   1      32.197  17.162   6.662  0.00  0.00     0.180 C 
HETATM   12  C   UNK N   1      32.519  15.659   6.675  0.00  0.00     0.179 C 
HETATM   13  O   UNK N   1      32.806  15.256   7.996  0.00  0.00    -0.348 OA
BRANCH   9  14
HETATM   14  O   UNK N   1      34.917  17.995   9.098  0.00  0.00    -0.388 OA
HETATM   15  H   UNK N   1      35.484  17.550   9.749  0.00  0.00     0.210 HD
ENDBRANCH   9  14
BRANCH  10  16
HETATM   16  O   UNK N   1      34.495  17.791   6.348  0.00  0.00    -0.390 OA
HETATM   17  H   UNK N   1      35.262  18.185   5.903  0.00  0.00     0.210 HD
ENDBRANCH  10  16
BRANCH  11  18
HETATM   18  O   UNK N   1      31.903  17.588   5.363  0.00  0.00    -0.390 OA
HETATM   19  H   UNK N   1      32.139  17.125   4.545  0.00  0.00     0.210 HD
ENDBRANCH  11  18
BRANCH  12  20
HETATM   20  C   UNK N   1      31.337  14.833   6.166  0.00  0.00     0.198 C 
BRANCH  20  21
HETATM   21  O   UNK N   1      31.565  13.466   6.340  0.00  0.00    -0.398 OA
HETATM   22  H   UNK N   1      32.199  12.744   6.476  0.00  0.00     0.209 HD
ENDBRANCH  20  21
ENDBRANCH  12  20
ENDBRANCH   7   8
ENDBRANCH   4   7
BRANCH   1  23
HETATM   23  C   UNK N   1      34.334  12.230   8.979  0.00  0.00     0.198 C 
BRANCH  23  24
HETATM   24  O   UNK N   1      32.982  12.569   9.093  0.00  0.00    -0.398 OA
HETATM   25  H   UNK N   1      32.174  12.709   9.613  0.00  0.00     0.209 HD
ENDBRANCH  23  24
ENDBRANCH   1  23
BRANCH   2  26
HETATM   26  O   UNK N   1      36.700  16.277  10.818  0.00  0.00    -0.390 OA
HETATM   27  H   UNK N   1      36.551  16.760   9.991  0.00  0.00     0.210 HD
ENDBRANCH   2  26
BRANCH   3  28
HETATM   28  O   UNK N   1      36.868  14.811  13.265  0.00  0.00    -0.388 OA
HETATM   29  H   UNK N   1      37.687  15.274  13.029  0.00  0.00     0.210 HD
ENDBRANCH   3  28
BRANCH   5  30
HETATM   30  O   UNK N   1      36.620  12.095  12.522  0.00  0.00    -0.348 OA
BRANCH  30  31
HETATM   31  C   UNK N   1      36.599  11.060  13.526  0.00  0.00     0.187 C 
HETATM   32  C   UNK N   1      35.445   9.989  13.455  0.00  0.00     0.180 C 
HETATM   33  O   UNK N   1      34.160  10.552  13.689  0.00  0.00    -0.349 OA
HETATM   34  C   UNK N   1      34.052  11.182  14.958  0.00  0.00     0.288 C 
HETATM   35  C   UNK N   1      35.098  12.296  15.125  0.00  0.00     0.204 C 
HETATM   36  C   UNK N   1      36.502  11.723  14.914  0.00  0.00     0.183 C 
BRANCH  32  37
HETATM   37  C   UNK N   1      35.721   8.787  14.373  0.00  0.00     0.198 C 
BRANCH  37  38
HETATM   38  O   UNK N   1      35.504   7.583  13.695  0.00  0.00    -0.398 OA
HETATM   39  H   UNK N   1      36.018   6.993  13.122  0.00  0.00     0.209 HD
ENDBRANCH  37  38
ENDBRANCH  32  37
BRANCH  34  40
HETATM   40  O   UNK N   1      34.127  10.246  15.997  0.00  0.00    -0.369 OA
HETATM   41  H   UNK N   1      33.881  10.279  16.935  0.00  0.00     0.212 HD
ENDBRANCH  34  40
BRANCH  35  42
HETATM   42  O   UNK N   1      34.990  12.859  16.398  0.00  0.00    -0.388 OA
HETATM   43  H   UNK N   1      35.323  13.745  16.612  0.00  0.00     0.210 HD
ENDBRANCH  35  42
BRANCH  36  44
HETATM   44  O   UNK N   1      37.463  12.732  15.038  0.00  0.00    -0.390 OA
HETATM   45  H   UNK N   1      37.971  12.937  15.838  0.00  0.00     0.210 HD
ENDBRANCH  36  44
ENDBRANCH  30  31
ENDBRANCH   5  30
TORSDOF 18
ENDMDL
MODEL 8
REMARK VINA RESULT:      -6.1      2.652      4.846
REMARK  18 active torsions:
REMARK  status: ('A' for Active; 'I' for Inactive)
REMARK    1  A    between atoms: C_4  and  C_1 
REMARK    2  A    between atoms: O_19  and  C_1 
REMARK    3  A    between atoms: C_5  and  C_2 
REMARK    4  A    between atoms: O_20  and  C_2 
REMARK    5  A    between atoms: C_6  and  C_3 
REMARK    6  A    between atoms: O_21  and  C_3 
REMARK    7  A    between atoms: C_7  and  O_22 
REMARK    8  A    between atoms: C_8  and  O_23 
REMARK    9  A    between atoms: C_9  and  O_24 
REMARK   10  A    between atoms: C_10  and  O_25 
REMARK   11  A    between atoms: C_11  and  O_26 
REMARK   12  A    between atoms: C_12  and  O_27 
REMARK   13  A    between atoms: C_13  and  O_28 
REMARK   14  A    between atoms: C_14  and  O_33 
REMARK   15  A    between atoms: C_15  and  O_34 
REMARK   16  A    between atoms: C_16  and  O_29 
REMARK   17  A    between atoms: C_17  and  O_34 
REMARK   18  A    between atoms: C_18  and  O_33 
ROOT
HETATM    1  C   UNK N   1      34.698  12.772  10.057  0.00  0.00     0.180 C 
HETATM    2  C   UNK N   1      36.307  14.050  11.421  0.00  0.00     0.183 C 
HETATM    3  C   UNK N   1      37.202  14.107  10.169  0.00  0.00     0.204 C 
HETATM    4  C   UNK N   1      35.424  12.770  11.421  0.00  0.00     0.187 C 
HETATM    5  C   UNK N   1      36.381  13.931   8.859  0.00  0.00     0.292 C 
HETATM    6  O   UNK N   1      35.603  12.753   8.966  0.00  0.00    -0.348 OA
ENDROOT
BRANCH   4   7
HETATM    7  O   UNK N   1      36.199  11.587  11.643  0.00  0.00    -0.348 OA
BRANCH   7   8
HETATM    8  C   UNK N   1      36.051  11.122  12.989  0.00  0.00     0.292 C 
HETATM    9  C   UNK N   1      34.670  10.463  13.188  0.00  0.00     0.204 C 
HETATM   10  C   UNK N   1      34.514  10.040  14.667  0.00  0.00     0.183 C 
HETATM   11  C   UNK N   1      34.763  11.259  15.569  0.00  0.00     0.180 C 
HETATM   12  C   UNK N   1      36.135  11.858  15.223  0.00  0.00     0.179 C 
HETATM   13  O   UNK N   1      36.152  12.229  13.862  0.00  0.00    -0.348 OA
BRANCH   9  14
HETATM   14  O   UNK N   1      34.533   9.351  12.354  0.00  0.00    -0.388 OA
HETATM   15  H   UNK N   1      33.657   9.075  12.040  0.00  0.00     0.210 HD
ENDBRANCH   9  14
BRANCH  10  16
HETATM   16  O   UNK N   1      35.432   9.029  14.975  0.00  0.00    -0.390 OA
HETATM   17  H   UNK N   1      36.172   8.712  15.517  0.00  0.00     0.210 HD
ENDBRANCH  10  16
BRANCH  11  18
HETATM   18  O   UNK N   1      34.717  10.887  16.916  0.00  0.00    -0.390 OA
HETATM   19  H   UNK N   1      34.127  10.222  17.303  0.00  0.00     0.210 HD
ENDBRANCH  11  18
BRANCH  12  20
HETATM   20  C   UNK N   1      36.428  13.101  16.064  0.00  0.00     0.198 C 
BRANCH  20  21
HETATM   21  O   UNK N   1      37.366  13.925  15.437  0.00  0.00    -0.398 OA
HETATM   22  H   UNK N   1      37.595  14.801  15.089  0.00  0.00     0.209 HD
ENDBRANCH  20  21
ENDBRANCH  12  20
ENDBRANCH   7   8
ENDBRANCH   4   7
BRANCH   1  23
HETATM   23  C   UNK N   1      33.633  11.712   9.799  0.00  0.00     0.198 C 
BRANCH  23  24
HETATM   24  O   UNK N   1      34.208  10.440   9.698  0.00  0.00    -0.398 OA
HETATM   25  H   UNK N   1      34.963   9.833   9.753  0.00  0.00     0.209 HD
ENDBRANCH  23  24
ENDBRANCH   1  23
BRANCH   2  26
HETATM   26  O   UNK N   1      37.079  14.108  12.584  0.00  0.00    -0.390 OA
HETATM   27  H   UNK N   1      37.627  14.888  12.763  0.00  0.00     0.210 HD
ENDBRANCH   2  26
BRANCH   3  28
HETATM   28  O   UNK N   1      37.929  15.303  10.131  0.00  0.00    -0.388 OA
HETATM   29  H   UNK N   1      38.885  15.294  10.299  0.00  0.00     0.210 HD
ENDBRANCH   3  28
BRANCH   5  30
HETATM   30  O   UNK N   1      35.701  15.113   8.401  0.00  0.00    -0.348 OA
BRANCH  30  31
HETATM   31  C   UNK N   1      34.477  15.575   9.006  0.00  0.00     0.187 C 
HETATM   32  C   UNK N   1      33.151  15.465   8.160  0.00  0.00     0.180 C 
HETATM   33  O   UNK N   1      33.163  16.305   7.011  0.00  0.00    -0.349 OA
HETATM   34  C   UNK N   1      33.330  17.679   7.329  0.00  0.00     0.288 C 
HETATM   35  C   UNK N   1      34.630  17.923   8.111  0.00  0.00     0.204 C 
HETATM   36  C   UNK N   1      34.642  17.062   9.377  0.00  0.00     0.183 C 
BRANCH  32  37
HETATM   37  C   UNK N   1      31.899  15.692   9.023  0.00  0.00     0.198 C 
BRANCH  37  38
HETATM   38  O   UNK N   1      32.012  15.026  10.247  0.00  0.00    -0.398 OA
HETATM   39  H   UNK N   1      32.420  15.199  11.110  0.00  0.00     0.209 HD
ENDBRANCH  37  38
ENDBRANCH  32  37
BRANCH  34  40
HETATM   40  O   UNK N   1      32.215  18.180   8.014  0.00  0.00    -0.369 OA
HETATM   41  H   UNK N   1      32.035  18.342   8.953  0.00  0.00     0.212 HD
ENDBRANCH  34  40
BRANCH  35  42
HETATM   42  O   UNK N   1      34.736  19.276   8.444  0.00  0.00    -0.388 OA
HETATM   43  H   UNK N   1      33.979  19.806   8.738  0.00  0.00     0.210 HD
ENDBRANCH  35  42
BRANCH  36  44
HETATM   44  O   UNK N   1      35.832  17.256  10.086  0.00  0.00    -0.390 OA
HETATM   45  H   UNK N   1      36.438  16.559  10.381  0.00  0.00     0.210 HD
ENDBRANCH  36  44
ENDBRANCH  30  31
ENDBRANCH   5  30
TORSDOF 18
ENDMDL
MODEL 9
REMARK VINA RESULT:      -6.0      1.419      2.039
REMARK  18 active torsions:
REMARK  status: ('A' for Active; 'I' for Inactive)
REMARK    1  A    between atoms: C_4  and  C_1 
REMARK    2  A    between atoms: O_19  and  C_1 
REMARK    3  A    between atoms: C_5  and  C_2 
REMARK    4  A    between atoms: O_20  and  C_2 
REMARK    5  A    between atoms: C_6  and  C_3 
REMARK    6  A    between atoms: O_21  and  C_3 
REMARK    7  A    between atoms: C_7  and  O_22 
REMARK    8  A    between atoms: C_8  and  O_23 
REMARK    9  A    between atoms: C_9  and  O_24 
REMARK   10  A    between atoms: C_10  and  O_25 
REMARK   11  A    between atoms: C_11  and  O_26 
REMARK   12  A    between atoms: C_12  and  O_27 
REMARK   13  A    between atoms: C_13  and  O_28 
REMARK   14  A    between atoms: C_14  and  O_33 
REMARK   15  A    between atoms: C_15  and  O_34 
REMARK   16  A    between atoms: C_16  and  O_29 
REMARK   17  A    between atoms: C_17  and  O_34 
REMARK   18  A    between atoms: C_18  and  O_33 
ROOT
HETATM    1  C   UNK N   1      33.144  15.098   8.145  0.00  0.00     0.180 C 
HETATM    2  C   UNK N   1      34.217  16.955   9.362  0.00  0.00     0.183 C 
HETATM    3  C   UNK N   1      34.129  17.759   8.051  0.00  0.00     0.204 C 
HETATM    4  C   UNK N   1      34.330  15.431   9.077  0.00  0.00     0.187 C 
HETATM    5  C   UNK N   1      33.004  17.227   7.117  0.00  0.00     0.292 C 
HETATM    6  O   UNK N   1      33.186  15.834   6.935  0.00  0.00    -0.348 OA
ENDROOT
BRANCH   4   7
HETATM    7  O   UNK N   1      35.601  15.086   8.514  0.00  0.00    -0.348 OA
BRANCH   7   8
HETATM    8  C   UNK N   1      36.233  14.050   9.274  0.00  0.00     0.292 C 
HETATM    9  C   UNK N   1      37.637  14.494   9.735  0.00  0.00     0.204 C 
HETATM   10  C   UNK N   1      38.320  13.329  10.488  0.00  0.00     0.183 C 
HETATM   11  C   UNK N   1      38.320  12.081   9.592  0.00  0.00     0.180 C 
HETATM   12  C   UNK N   1      36.877  11.790   9.150  0.00  0.00     0.179 C 
HETATM   13  O   UNK N   1      36.368  12.907   8.454  0.00  0.00    -0.348 OA
BRANCH   9  14
HETATM   14  O   UNK N   1      37.549  15.615  10.564  0.00  0.00    -0.388 OA
HETATM   15  H   UNK N   1      38.349  16.097  10.827  0.00  0.00     0.210 HD
ENDBRANCH   9  14
BRANCH  10  16
HETATM   16  O   UNK N   1      37.631  13.057  11.676  0.00  0.00    -0.390 OA
HETATM   17  H   UNK N   1      36.843  13.179  12.229  0.00  0.00     0.210 HD
ENDBRANCH  10  16
BRANCH  11  18
HETATM   18  O   UNK N   1      38.851  10.985  10.280  0.00  0.00    -0.390 OA
HETATM   19  H   UNK N   1      39.674  10.522  10.063  0.00  0.00     0.210 HD
ENDBRANCH  11  18
BRANCH  12  20
HETATM   20  C   UNK N   1      36.813  10.576   8.221  0.00  0.00     0.198 C 
BRANCH  20  21
HETATM   21  O   UNK N   1      36.805   9.384   8.950  0.00  0.00    -0.398 OA
HETATM   22  H   UNK N   1      36.472   8.478   9.049  0.00  0.00     0.209 HD
ENDBRANCH  20  21
ENDBRANCH  12  20
ENDBRANCH   7   8
ENDBRANCH   4   7
BRANCH   1  23
HETATM   23  C   UNK N   1      32.884  13.637   7.794  0.00  0.00     0.198 C 
BRANCH  23  24
HETATM   24  O   UNK N   1      31.932  13.530   6.774  0.00  0.00    -0.398 OA
HETATM   25  H   UNK N   1      31.023  13.399   6.460  0.00  0.00     0.209 HD
ENDBRANCH  23  24
ENDBRANCH   1  23
BRANCH   2  26
HETATM   26  O   UNK N   1      35.297  17.388  10.134  0.00  0.00    -0.390 OA
HETATM   27  H   UNK N   1      35.942  16.745  10.469  0.00  0.00     0.210 HD
ENDBRANCH   2  26
BRANCH   3  28
HETATM   28  O   UNK N   1      33.939  19.121   8.314  0.00  0.00    -0.388 OA
HETATM   29  H   UNK N   1      34.682  19.739   8.229  0.00  0.00     0.210 HD
ENDBRANCH   3  28
BRANCH   5  30
HETATM   30  O   UNK N   1      31.676  17.665   7.450  0.00  0.00    -0.348 OA
BRANCH  30  31
HETATM   31  C   UNK N   1      30.520  16.825   7.252  0.00  0.00     0.187 C 
HETATM   32  C   UNK N   1      29.760  16.931   5.874  0.00  0.00     0.180 C 
HETATM   33  O   UNK N   1      29.148  18.201   5.683  0.00  0.00    -0.349 OA
HETATM   34  C   UNK N   1      28.203  18.520   6.695  0.00  0.00     0.288 C 
HETATM   35  C   UNK N   1      28.845  18.506   8.091  0.00  0.00     0.204 C 
HETATM   36  C   UNK N   1      29.488  17.141   8.352  0.00  0.00     0.183 C 
BRANCH  32  37
HETATM   37  C   UNK N   1      28.762  15.777   5.680  0.00  0.00     0.198 C 
BRANCH  37  38
HETATM   38  O   UNK N   1      28.129  15.873   4.437  0.00  0.00    -0.398 OA
HETATM   39  H   UNK N   1      28.265  15.516   3.546  0.00  0.00     0.209 HD
ENDBRANCH  37  38
ENDBRANCH  32  37
BRANCH  34  40
HETATM   40  O   UNK N   1      27.088  17.674   6.633  0.00  0.00    -0.369 OA
HETATM   41  H   UNK N   1      26.142  17.837   6.498  0.00  0.00     0.212 HD
ENDBRANCH  34  40
BRANCH  35  42
HETATM   42  O   UNK N   1      27.877  18.779   9.060  0.00  0.00    -0.388 OA
HETATM   43  H   UNK N   1      28.013  19.421   9.775  0.00  0.00     0.210 HD
ENDBRANCH  35  42
BRANCH  36  44
HETATM   44  O   UNK N   1      30.098  17.123   9.610  0.00  0.00    -0.390 OA
HETATM   45  H   UNK N   1      30.780  17.739   9.920  0.00  0.00     0.210 HD
ENDBRANCH  36  44
ENDBRANCH  30  31
ENDBRANCH   5  30
TORSDOF 18
ENDMDL
