MODEL 1
REMARK VINA RESULT:      -7.6      0.000      0.000
REMARK  13 active torsions:
REMARK  status: ('A' for Active; 'I' for Inactive)
REMARK    1  A    between atoms: C_14  and  C_8 
REMARK    2  A    between atoms: O_24  and  C_8 
REMARK    3  A    between atoms: O_25  and  C_10 
REMARK    4  A    between atoms: O_33  and  C_11 
REMARK    5  A    between atoms: C_13  and  O_26 
REMARK    6  A    between atoms: C_18  and  C_14 
REMARK    7  A    between atoms: C_14  and  O_27 
REMARK    8  A    between atoms: C_17  and  N_22 
REMARK    9  A    between atoms: C_19  and  C_18 
REMARK   10  A    between atoms: C_18  and  O_29 
REMARK   11  A    between atoms: C_21  and  C_20 
REMARK   12  A    between atoms: O_31  and  C_20 
REMARK   13  A    between atoms: C_21  and  O_33 
ROOT
HETATM    1  C   UNK N   1      21.151  15.071   2.770  0.00  0.00     0.114 C 
HETATM    2  C   UNK N   1      20.918  16.565   2.559  0.00  0.00     0.149 C 
HETATM    3  C   UNK N   1      21.175  17.404   3.847  0.00  0.00     0.144 C 
HETATM    4  C   UNK N   1      21.666  16.496   5.009  0.00  0.00     0.182 C 
HETATM    5  C   UNK N   1      20.591  14.532   4.097  0.00  0.00     0.260 C 
HETATM    6  O   UNK N   1      20.708  15.457   5.184  0.00  0.00    -0.336 OA
ENDROOT
BRANCH   5   7
HETATM    7  C   UNK N   1      19.117  14.232   3.945  0.00  0.00     0.206 C 
HETATM    8  O   UNK N   1      18.364  14.322   4.903  0.00  0.00    -0.646 OA
BRANCH   7   9
HETATM    9  O   UNK N   1      18.607  13.920   2.739  0.00  0.00    -0.772 OA
HETATM   10  H   UNK N   1      18.744  13.305   2.045  0.00  0.00     0.167 HD
ENDBRANCH   7   9
ENDBRANCH   5   7
BRANCH   5  11
HETATM   11  O   UNK N   1      21.258  13.342   4.381  0.00  0.00    -0.304 OA
BRANCH  11  12
HETATM   12  C   UNK N   1      21.827  13.112   5.582  0.00  0.00     0.075 A 
HETATM   13  C   UNK N   1      23.214  13.214   5.735  0.00  0.00     0.038 A 
HETATM   14  C   UNK N   1      23.786  13.148   7.006  0.00  0.00     0.017 A 
HETATM   15  C   UNK N   1      22.967  12.980   8.132  0.00  0.00     0.004 A 
HETATM   16  C   UNK N   1      23.492  12.977   9.430  0.00  0.00    -0.043 A 
HETATM   17  C   UNK N   1      21.573  12.825   7.967  0.00  0.00     0.092 A 
HETATM   18  C   UNK N   1      24.948  13.178   9.687  0.00  0.00     0.049 C 
HETATM   19  C   UNK N   1      22.625  12.809  10.509  0.00  0.00     0.090 A 
HETATM   20  C   UNK N   1      21.260  12.643  10.268  0.00  0.00     0.288 A 
HETATM   21  O   UNK N   1      20.495  12.491  11.205  0.00  0.00    -0.260 OA
HETATM   22  O   UNK N   1      20.783  12.661   9.027  0.00  0.00    -0.275 OA
HETATM   23  C   UNK N   1      21.011  12.893   6.694  0.00  0.00     0.075 A 
ENDBRANCH  11  12
ENDBRANCH   5  11
BRANCH   2  24
HETATM   24  O   UNK N   1      19.632  16.799   2.068  0.00  0.00    -0.393 OA
HETATM   25  H   UNK N   1      19.107  17.612   2.008  0.00  0.00     0.210 HD
ENDBRANCH   2  24
BRANCH   4  26
HETATM   26  C   UNK N   1      21.775  17.187   6.410  0.00  0.00     0.180 C 
BRANCH  26  27
HETATM   27  C   UNK N   1      20.493  17.706   7.108  0.00  0.00     0.173 C 
BRANCH  27  28
HETATM   28  C   UNK N   1      19.924  16.737   8.142  0.00  0.00     0.198 C 
BRANCH  28  29
HETATM   29  O   UNK N   1      19.108  15.783   7.529  0.00  0.00    -0.398 OA
HETATM   30  H   UNK N   1      18.402  16.045   6.917  0.00  0.00     0.209 HD
ENDBRANCH  28  29
ENDBRANCH  27  28
BRANCH  27  31
HETATM   31  O   UNK N   1      20.699  18.950   7.697  0.00  0.00    -0.391 OA
HETATM   32  H   UNK N   1      20.579  19.101   8.647  0.00  0.00     0.210 HD
ENDBRANCH  27  31
ENDBRANCH  26  27
BRANCH  26  33
HETATM   33  O   UNK N   1      22.656  18.266   6.291  0.00  0.00    -0.390 OA
HETATM   34  H   UNK N   1      22.318  19.157   6.112  0.00  0.00     0.210 HD
ENDBRANCH  26  33
ENDBRANCH   4  26
BRANCH   3  35
HETATM   35  N   UNK N   1      22.141  18.449   3.556  0.00  0.00    -0.365 N 
HETATM   36  C   UNK N   1      21.836  19.684   3.317  0.00  0.00     0.107 C 
HETATM   37  C   UNK N   1      20.422  20.175   3.363  0.00  0.00     0.097 C 
ATOM     38  HN  UNK N   1      23.128  18.192   3.538  1.00  0.00     0.161 HD
BRANCH  36  39
HETATM   39  O   UNK N   1      22.818  20.561   3.042  0.00  0.00    -0.350 OA
HETATM   40  H   UNK N   1      22.728  21.267   2.433  0.00  0.00     0.219 HD
ENDBRANCH  36  39
ENDBRANCH   3  35
TORSDOF 13
ENDMDL
MODEL 2
REMARK VINA RESULT:      -7.1     12.097     14.563
REMARK  13 active torsions:
REMARK  status: ('A' for Active; 'I' for Inactive)
REMARK    1  A    between atoms: C_14  and  C_8 
REMARK    2  A    between atoms: O_24  and  C_8 
REMARK    3  A    between atoms: O_25  and  C_10 
REMARK    4  A    between atoms: O_33  and  C_11 
REMARK    5  A    between atoms: C_13  and  O_26 
REMARK    6  A    between atoms: C_18  and  C_14 
REMARK    7  A    between atoms: C_14  and  O_27 
REMARK    8  A    between atoms: C_17  and  N_22 
REMARK    9  A    between atoms: C_19  and  C_18 
REMARK   10  A    between atoms: C_18  and  O_29 
REMARK   11  A    between atoms: C_21  and  C_20 
REMARK   12  A    between atoms: O_31  and  C_20 
REMARK   13  A    between atoms: C_21  and  O_33 
ROOT
HETATM    1  C   UNK N   1      35.034  12.147   7.701  0.00  0.00     0.114 C 
HETATM    2  C   UNK N   1      34.379  13.216   6.831  0.00  0.00     0.149 C 
HETATM    3  C   UNK N   1      33.945  14.473   7.643  0.00  0.00     0.144 C 
HETATM    4  C   UNK N   1      34.350  14.332   9.137  0.00  0.00     0.182 C 
HETATM    5  C   UNK N   1      34.328  11.917   9.047  0.00  0.00     0.260 C 
HETATM    6  O   UNK N   1      33.798  13.114   9.625  0.00  0.00    -0.336 OA
ENDROOT
BRANCH   5   7
HETATM    7  C   UNK N   1      33.158  10.978   8.857  0.00  0.00     0.206 C 
HETATM    8  O   UNK N   1      33.239  10.035   8.084  0.00  0.00    -0.646 OA
BRANCH   7   9
HETATM    9  O   UNK N   1      32.035  11.136   9.582  0.00  0.00    -0.772 OA
HETATM   10  H   UNK N   1      31.767  11.185  10.479  0.00  0.00     0.167 HD
ENDBRANCH   7   9
ENDBRANCH   5   7
BRANCH   5  11
HETATM   11  O   UNK N   1      35.245  11.312   9.904  0.00  0.00    -0.304 OA
BRANCH  11  12
HETATM   12  C   UNK N   1      35.145  11.418  11.246  0.00  0.00     0.075 A 
HETATM   13  C   UNK N   1      34.454  10.448  11.980  0.00  0.00     0.038 A 
HETATM   14  C   UNK N   1      34.498  10.462  13.374  0.00  0.00     0.017 A 
HETATM   15  C   UNK N   1      35.236  11.450  14.040  0.00  0.00     0.004 A 
HETATM   16  C   UNK N   1      35.362  11.460  15.435  0.00  0.00    -0.043 A 
HETATM   17  C   UNK N   1      35.889  12.457  13.296  0.00  0.00     0.092 A 
HETATM   18  C   UNK N   1      34.737  10.406  16.286  0.00  0.00     0.049 C 
HETATM   19  C   UNK N   1      36.114  12.468  16.037  0.00  0.00     0.090 A 
HETATM   20  C   UNK N   1      36.716  13.441  15.238  0.00  0.00     0.288 A 
HETATM   21  O   UNK N   1      37.371  14.329  15.757  0.00  0.00    -0.260 OA
HETATM   22  O   UNK N   1      36.592  13.405  13.915  0.00  0.00    -0.275 OA
HETATM   23  C   UNK N   1      35.842  12.435  11.903  0.00  0.00     0.075 A 
ENDBRANCH  11  12
ENDBRANCH   5  11
BRANCH   2  24
HETATM   24  O   UNK N   1      33.296  12.685   6.129  0.00  0.00    -0.393 OA
HETATM   25  H   UNK N   1      32.343  12.854   6.196  0.00  0.00     0.210 HD
ENDBRANCH   2  24
BRANCH   4  26
HETATM   26  C   UNK N   1      33.801  15.441  10.096  0.00  0.00     0.180 C 
BRANCH  26  27
HETATM   27  C   UNK N   1      34.771  16.505  10.670  0.00  0.00     0.173 C 
BRANCH  27  28
HETATM   28  C   UNK N   1      35.920  15.911  11.480  0.00  0.00     0.198 C 
BRANCH  28  29
HETATM   29  O   UNK N   1      37.119  15.986  10.766  0.00  0.00    -0.398 OA
HETATM   30  H   UNK N   1      37.152  15.786   9.817  0.00  0.00     0.209 HD
ENDBRANCH  28  29
ENDBRANCH  27  28
BRANCH  27  31
HETATM   31  O   UNK N   1      35.280  17.326   9.668  0.00  0.00    -0.391 OA
HETATM   32  H   UNK N   1      36.207  17.288   9.386  0.00  0.00     0.210 HD
ENDBRANCH  27  31
ENDBRANCH  26  27
BRANCH  26  33
HETATM   33  O   UNK N   1      33.183  14.808  11.179  0.00  0.00    -0.390 OA
HETATM   34  H   UNK N   1      33.631  14.085  11.645  0.00  0.00     0.210 HD
ENDBRANCH  26  33
ENDBRANCH   4  26
BRANCH   3  35
HETATM   35  N   UNK N   1      34.537  15.659   7.049  0.00  0.00    -0.365 N 
HETATM   36  C   UNK N   1      33.869  16.698   6.665  0.00  0.00     0.107 C 
HETATM   37  C   UNK N   1      32.385  16.798   6.841  0.00  0.00     0.097 C 
ATOM     38  HN  UNK N   1      35.549  15.673   6.926  1.00  0.00     0.161 HD
BRANCH  36  39
HETATM   39  O   UNK N   1      34.526  17.733   6.111  0.00  0.00    -0.350 OA
HETATM   40  H   UNK N   1      35.433  17.706   5.875  0.00  0.00     0.219 HD
ENDBRANCH  36  39
ENDBRANCH   3  35
TORSDOF 13
ENDMDL
MODEL 3
REMARK VINA RESULT:      -7.0      2.962      6.348
REMARK  13 active torsions:
REMARK  status: ('A' for Active; 'I' for Inactive)
REMARK    1  A    between atoms: C_14  and  C_8 
REMARK    2  A    between atoms: O_24  and  C_8 
REMARK    3  A    between atoms: O_25  and  C_10 
REMARK    4  A    between atoms: O_33  and  C_11 
REMARK    5  A    between atoms: C_13  and  O_26 
REMARK    6  A    between atoms: C_18  and  C_14 
REMARK    7  A    between atoms: C_14  and  O_27 
REMARK    8  A    between atoms: C_17  and  N_22 
REMARK    9  A    between atoms: C_19  and  C_18 
REMARK   10  A    between atoms: C_18  and  O_29 
REMARK   11  A    between atoms: C_21  and  C_20 
REMARK   12  A    between atoms: O_31  and  C_20 
REMARK   13  A    between atoms: C_21  and  O_33 
ROOT
HETATM    1  C   UNK N   1      20.487  14.530   5.610  0.00  0.00     0.114 C 
HETATM    2  C   UNK N   1      19.864  13.760   4.448  0.00  0.00     0.149 C 
HETATM    3  C   UNK N   1      19.797  14.597   3.136  0.00  0.00     0.144 C 
HETATM    4  C   UNK N   1      20.444  15.995   3.338  0.00  0.00     0.182 C 
HETATM    5  C   UNK N   1      20.015  15.989   5.718  0.00  0.00     0.260 C 
HETATM    6  O   UNK N   1      19.802  16.615   4.448  0.00  0.00    -0.336 OA
ENDROOT
BRANCH   5   7
HETATM    7  C   UNK N   1      18.693  16.046   6.451  0.00  0.00     0.206 C 
HETATM    8  O   UNK N   1      17.641  15.941   5.840  0.00  0.00    -0.646 OA
BRANCH   7   9
HETATM    9  O   UNK N   1      18.665  16.153   7.792  0.00  0.00    -0.772 OA
HETATM   10  H   UNK N   1      18.810  16.797   8.459  0.00  0.00     0.167 HD
ENDBRANCH   7   9
ENDBRANCH   5   7
BRANCH   5  11
HETATM   11  O   UNK N   1      20.965  16.683   6.464  0.00  0.00    -0.304 OA
BRANCH  11  12
HETATM   12  C   UNK N   1      22.137  17.086   5.929  0.00  0.00     0.075 A 
HETATM   13  C   UNK N   1      23.250  16.239   5.953  0.00  0.00     0.038 A 
HETATM   14  C   UNK N   1      24.406  16.582   5.251  0.00  0.00     0.017 A 
HETATM   15  C   UNK N   1      24.451  17.778   4.521  0.00  0.00     0.004 A 
HETATM   16  C   UNK N   1      25.566  18.126   3.748  0.00  0.00    -0.043 A 
HETATM   17  C   UNK N   1      23.344  18.654   4.543  0.00  0.00     0.092 A 
HETATM   18  C   UNK N   1      26.756  17.233   3.641  0.00  0.00     0.049 C 
HETATM   19  C   UNK N   1      25.547  19.328   3.042  0.00  0.00     0.090 A 
HETATM   20  C   UNK N   1      24.424  20.153   3.126  0.00  0.00     0.288 A 
HETATM   21  O   UNK N   1      24.402  21.208   2.515  0.00  0.00    -0.260 OA
HETATM   22  O   UNK N   1      23.373  19.795   3.857  0.00  0.00    -0.275 OA
HETATM   23  C   UNK N   1      22.192  18.302   5.245  0.00  0.00     0.075 A 
ENDBRANCH  11  12
ENDBRANCH   5  11
BRANCH   2  24
HETATM   24  O   UNK N   1      18.597  13.285   4.794  0.00  0.00    -0.393 OA
HETATM   25  H   UNK N   1      17.731  13.404   4.374  0.00  0.00     0.210 HD
ENDBRANCH   2  24
BRANCH   4  26
HETATM   26  C   UNK N   1      20.269  17.002   2.153  0.00  0.00     0.180 C 
BRANCH  26  27
HETATM   27  C   UNK N   1      19.883  18.473   2.450  0.00  0.00     0.173 C 
BRANCH  27  28
HETATM   28  C   UNK N   1      20.582  19.484   1.543  0.00  0.00     0.198 C 
BRANCH  28  29
HETATM   29  O   UNK N   1      20.478  19.101   0.204  0.00  0.00    -0.398 OA
HETATM   30  H   UNK N   1      20.873  18.274  -0.114  0.00  0.00     0.209 HD
ENDBRANCH  28  29
ENDBRANCH  27  28
BRANCH  27  31
HETATM   31  O   UNK N   1      18.506  18.664   2.388  0.00  0.00    -0.391 OA
HETATM   32  H   UNK N   1      18.038  19.267   2.986  0.00  0.00     0.210 HD
ENDBRANCH  27  31
ENDBRANCH  26  27
BRANCH  26  33
HETATM   33  O   UNK N   1      19.305  16.482   1.283  0.00  0.00    -0.390 OA
HETATM   34  H   UNK N   1      18.524  17.006   1.048  0.00  0.00     0.210 HD
ENDBRANCH  26  33
ENDBRANCH   4  26
BRANCH   3  35
HETATM   35  N   UNK N   1      20.452  13.867   2.065  0.00  0.00    -0.365 N 
HETATM   36  C   UNK N   1      19.839  13.126   1.199  0.00  0.00     0.107 C 
HETATM   37  C   UNK N   1      18.348  12.982   1.193  0.00  0.00     0.097 C 
ATOM     38  HN  UNK N   1      21.467  13.943   1.989  1.00  0.00     0.161 HD
BRANCH  36  39
HETATM   39  O   UNK N   1      20.556  12.482   0.260  0.00  0.00    -0.350 OA
HETATM   40  H   UNK N   1      20.824  11.588   0.335  0.00  0.00     0.219 HD
ENDBRANCH  36  39
ENDBRANCH   3  35
TORSDOF 13
ENDMDL
MODEL 4
REMARK VINA RESULT:      -6.7     14.326     16.748
REMARK  13 active torsions:
REMARK  status: ('A' for Active; 'I' for Inactive)
REMARK    1  A    between atoms: C_14  and  C_8 
REMARK    2  A    between atoms: O_24  and  C_8 
REMARK    3  A    between atoms: O_25  and  C_10 
REMARK    4  A    between atoms: O_33  and  C_11 
REMARK    5  A    between atoms: C_13  and  O_26 
REMARK    6  A    between atoms: C_18  and  C_14 
REMARK    7  A    between atoms: C_14  and  O_27 
REMARK    8  A    between atoms: C_17  and  N_22 
REMARK    9  A    between atoms: C_19  and  C_18 
REMARK   10  A    between atoms: C_18  and  O_29 
REMARK   11  A    between atoms: C_21  and  C_20 
REMARK   12  A    between atoms: O_31  and  C_20 
REMARK   13  A    between atoms: C_21  and  O_33 
ROOT
HETATM    1  C   UNK N   1      37.101  10.550  11.186  0.00  0.00     0.114 C 
HETATM    2  C   UNK N   1      36.711  11.117   9.824  0.00  0.00     0.149 C 
HETATM    3  C   UNK N   1      36.445  12.652   9.863  0.00  0.00     0.144 C 
HETATM    4  C   UNK N   1      36.707  13.223  11.285  0.00  0.00     0.182 C 
HETATM    5  C   UNK N   1      36.267  11.100  12.355  0.00  0.00     0.260 C 
HETATM    6  O   UNK N   1      35.915  12.480  12.205  0.00  0.00    -0.336 OA
ENDROOT
BRANCH   5   7
HETATM    7  C   UNK N   1      34.968  10.334  12.461  0.00  0.00     0.206 C 
HETATM    8  O   UNK N   1      34.967   9.112  12.466  0.00  0.00    -0.646 OA
BRANCH   7   9
HETATM    9  O   UNK N   1      33.802  10.991  12.612  0.00  0.00    -0.772 OA
HETATM   10  H   UNK N   1      33.302  11.409  13.285  0.00  0.00     0.167 HD
ENDBRANCH   7   9
ENDBRANCH   5   7
BRANCH   5  11
HETATM   11  O   UNK N   1      36.998  10.896  13.524  0.00  0.00    -0.304 OA
BRANCH  11  12
HETATM   12  C   UNK N   1      36.452  11.068  14.746  0.00  0.00     0.075 A 
HETATM   13  C   UNK N   1      36.235   9.967  15.581  0.00  0.00     0.038 A 
HETATM   14  C   UNK N   1      35.835  10.159  16.904  0.00  0.00     0.017 A 
HETATM   15  C   UNK N   1      35.650  11.459  17.396  0.00  0.00     0.004 A 
HETATM   16  C   UNK N   1      35.316  11.699  18.735  0.00  0.00    -0.043 A 
HETATM   17  C   UNK N   1      35.820  12.565  16.534  0.00  0.00     0.092 A 
HETATM   18  C   UNK N   1      35.162  10.586  19.716  0.00  0.00     0.049 C 
HETATM   19  C   UNK N   1      35.150  13.015  19.163  0.00  0.00     0.090 A 
HETATM   20  C   UNK N   1      35.316  14.057  18.249  0.00  0.00     0.288 A 
HETATM   21  O   UNK N   1      35.167  15.211  18.614  0.00  0.00    -0.260 OA
HETATM   22  O   UNK N   1      35.644  13.805  16.986  0.00  0.00    -0.275 OA
HETATM   23  C   UNK N   1      36.221  12.363  15.215  0.00  0.00     0.075 A 
ENDBRANCH  11  12
ENDBRANCH   5  11
BRANCH   2  24
HETATM   24  O   UNK N   1      35.606  10.440   9.305  0.00  0.00    -0.393 OA
HETATM   25  H   UNK N   1      35.319  10.284   8.392  0.00  0.00     0.210 HD
ENDBRANCH   2  24
BRANCH   4  26
HETATM   26  C   UNK N   1      36.292  14.716  11.504  0.00  0.00     0.180 C 
BRANCH  26  27
HETATM   27  C   UNK N   1      34.811  15.133  11.316  0.00  0.00     0.173 C 
BRANCH  27  28
HETATM   28  C   UNK N   1      34.516  15.744   9.949  0.00  0.00     0.198 C 
BRANCH  28  29
HETATM   29  O   UNK N   1      34.467  17.138  10.030  0.00  0.00    -0.398 OA
HETATM   30  H   UNK N   1      34.936  17.617  10.732  0.00  0.00     0.209 HD
ENDBRANCH  28  29
ENDBRANCH  27  28
BRANCH  27  31
HETATM   31  O   UNK N   1      33.946  14.067  11.548  0.00  0.00    -0.391 OA
HETATM   32  H   UNK N   1      33.553  13.550  10.828  0.00  0.00     0.210 HD
ENDBRANCH  27  31
ENDBRANCH  26  27
BRANCH  26  33
HETATM   33  O   UNK N   1      37.064  15.509  10.649  0.00  0.00    -0.390 OA
HETATM   34  H   UNK N   1      38.011  15.634  10.818  0.00  0.00     0.210 HD
ENDBRANCH  26  33
ENDBRANCH   4  26
BRANCH   3  35
HETATM   35  N   UNK N   1      37.278  13.311   8.872  0.00  0.00    -0.365 N 
HETATM   36  C   UNK N   1      36.898  13.603   7.671  0.00  0.00     0.107 C 
HETATM   37  C   UNK N   1      35.509  13.320   7.187  0.00  0.00     0.097 C 
ATOM     38  HN  UNK N   1      38.230  13.561   9.143  1.00  0.00     0.161 HD
BRANCH  36  39
HETATM   39  O   UNK N   1      37.767  14.199   6.834  0.00  0.00    -0.350 OA
HETATM   40  H   UNK N   1      37.531  14.528   5.989  0.00  0.00     0.219 HD
ENDBRANCH  36  39
ENDBRANCH   3  35
TORSDOF 13
ENDMDL
MODEL 5
REMARK VINA RESULT:      -6.6      8.181     11.135
REMARK  13 active torsions:
REMARK  status: ('A' for Active; 'I' for Inactive)
REMARK    1  A    between atoms: C_14  and  C_8 
REMARK    2  A    between atoms: O_24  and  C_8 
REMARK    3  A    between atoms: O_25  and  C_10 
REMARK    4  A    between atoms: O_33  and  C_11 
REMARK    5  A    between atoms: C_13  and  O_26 
REMARK    6  A    between atoms: C_18  and  C_14 
REMARK    7  A    between atoms: C_14  and  O_27 
REMARK    8  A    between atoms: C_17  and  N_22 
REMARK    9  A    between atoms: C_19  and  C_18 
REMARK   10  A    between atoms: C_18  and  O_29 
REMARK   11  A    between atoms: C_21  and  C_20 
REMARK   12  A    between atoms: O_31  and  C_20 
REMARK   13  A    between atoms: C_21  and  O_33 
ROOT
HETATM    1  C   UNK N   1      33.222  14.900   5.811  0.00  0.00     0.114 C 
HETATM    2  C   UNK N   1      33.963  15.248   7.099  0.00  0.00     0.149 C 
HETATM    3  C   UNK N   1      33.033  15.879   8.180  0.00  0.00     0.144 C 
HETATM    4  C   UNK N   1      31.563  15.936   7.678  0.00  0.00     0.182 C 
HETATM    5  C   UNK N   1      32.225  15.977   5.353  0.00  0.00     0.260 C 
HETATM    6  O   UNK N   1      31.554  16.631   6.436  0.00  0.00    -0.336 OA
ENDROOT
BRANCH   5   7
HETATM    7  C   UNK N   1      32.954  17.056   4.586  0.00  0.00     0.206 C 
HETATM    8  O   UNK N   1      33.506  17.972   5.177  0.00  0.00    -0.646 OA
BRANCH   7   9
HETATM    9  O   UNK N   1      33.054  16.987   3.245  0.00  0.00    -0.772 OA
HETATM   10  H   UNK N   1      33.418  16.429   2.586  0.00  0.00     0.167 HD
ENDBRANCH   7   9
ENDBRANCH   5   7
BRANCH   5  11
HETATM   11  O   UNK N   1      31.311  15.366   4.497  0.00  0.00    -0.304 OA
BRANCH  11  12
HETATM   12  C   UNK N   1      29.991  15.642   4.546  0.00  0.00     0.075 A 
HETATM   13  C   UNK N   1      29.109  14.755   5.172  0.00  0.00     0.038 A 
HETATM   14  C   UNK N   1      27.777  15.120   5.376  0.00  0.00     0.017 A 
HETATM   15  C   UNK N   1      27.325  16.377   4.952  0.00  0.00     0.004 A 
HETATM   16  C   UNK N   1      26.015  16.809   5.199  0.00  0.00    -0.043 A 
HETATM   17  C   UNK N   1      28.206  17.248   4.275  0.00  0.00     0.092 A 
HETATM   18  C   UNK N   1      25.038  15.964   5.945  0.00  0.00     0.049 C 
HETATM   19  C   UNK N   1      25.627  18.073   4.756  0.00  0.00     0.090 A 
HETATM   20  C   UNK N   1      26.549  18.871   4.076  0.00  0.00     0.288 A 
HETATM   21  O   UNK N   1      26.216  19.975   3.681  0.00  0.00    -0.260 OA
HETATM   22  O   UNK N   1      27.790  18.444   3.864  0.00  0.00    -0.275 OA
HETATM   23  C   UNK N   1      29.535  16.876   4.077  0.00  0.00     0.075 A 
ENDBRANCH  11  12
ENDBRANCH   5  11
BRANCH   2  24
HETATM   24  O   UNK N   1      35.048  16.086   6.834  0.00  0.00    -0.393 OA
HETATM   25  H   UNK N   1      35.598  16.192   6.042  0.00  0.00     0.210 HD
ENDBRANCH   2  24
BRANCH   4  26
HETATM   26  C   UNK N   1      30.565  16.722   8.592  0.00  0.00     0.180 C 
BRANCH  26  27
HETATM   27  C   UNK N   1      29.223  17.225   8.003  0.00  0.00     0.173 C 
BRANCH  27  28
HETATM   28  C   UNK N   1      28.113  17.364   9.042  0.00  0.00     0.198 C 
BRANCH  28  29
HETATM   29  O   UNK N   1      27.619  18.671   9.066  0.00  0.00    -0.398 OA
HETATM   30  H   UNK N   1      27.564  19.172   9.895  0.00  0.00     0.209 HD
ENDBRANCH  28  29
ENDBRANCH  27  28
BRANCH  27  31
HETATM   31  O   UNK N   1      29.381  18.429   7.323  0.00  0.00    -0.391 OA
HETATM   32  H   UNK N   1      29.668  19.242   7.767  0.00  0.00     0.210 HD
ENDBRANCH  27  31
ENDBRANCH  26  27
BRANCH  26  33
HETATM   33  O   UNK N   1      31.238  17.833   9.112  0.00  0.00    -0.390 OA
HETATM   34  H   UNK N   1      32.075  18.127   8.718  0.00  0.00     0.210 HD
ENDBRANCH  26  33
ENDBRANCH   4  26
BRANCH   3  35
HETATM   35  N   UNK N   1      33.138  15.116   9.411  0.00  0.00    -0.365 N 
HETATM   36  C   UNK N   1      33.974  15.372  10.364  0.00  0.00     0.107 C 
HETATM   37  C   UNK N   1      34.910  16.540  10.306  0.00  0.00     0.097 C 
ATOM     38  HN  UNK N   1      32.509  14.322   9.532  1.00  0.00     0.161 HD
BRANCH  36  39
HETATM   39  O   UNK N   1      33.991  14.582  11.453  0.00  0.00    -0.350 OA
HETATM   40  H   UNK N   1      34.358  13.720  11.463  0.00  0.00     0.219 HD
ENDBRANCH  36  39
ENDBRANCH   3  35
TORSDOF 13
ENDMDL
MODEL 6
REMARK VINA RESULT:      -6.5     10.382     13.116
REMARK  13 active torsions:
REMARK  status: ('A' for Active; 'I' for Inactive)
REMARK    1  A    between atoms: C_14  and  C_8 
REMARK    2  A    between atoms: O_24  and  C_8 
REMARK    3  A    between atoms: O_25  and  C_10 
REMARK    4  A    between atoms: O_33  and  C_11 
REMARK    5  A    between atoms: C_13  and  O_26 
REMARK    6  A    between atoms: C_18  and  C_14 
REMARK    7  A    between atoms: C_14  and  O_27 
REMARK    8  A    between atoms: C_17  and  N_22 
REMARK    9  A    between atoms: C_19  and  C_18 
REMARK   10  A    between atoms: C_18  and  O_29 
REMARK   11  A    between atoms: C_21  and  C_20 
REMARK   12  A    between atoms: O_31  and  C_20 
REMARK   13  A    between atoms: C_21  and  O_33 
ROOT
HETATM    1  C   UNK N   1      32.926  15.687   9.287  0.00  0.00     0.114 C 
HETATM    2  C   UNK N   1      31.691  16.309   8.641  0.00  0.00     0.149 C 
HETATM    3  C   UNK N   1      31.735  16.260   7.084  0.00  0.00     0.144 C 
HETATM    4  C   UNK N   1      33.015  15.529   6.590  0.00  0.00     0.182 C 
HETATM    5  C   UNK N   1      34.248  16.064   8.599  0.00  0.00     0.260 C 
HETATM    6  O   UNK N   1      34.139  16.177   7.176  0.00  0.00    -0.336 OA
ENDROOT
BRANCH   5   7
HETATM    7  C   UNK N   1      34.721  17.409   9.102  0.00  0.00     0.206 C 
HETATM    8  O   UNK N   1      35.394  17.490  10.118  0.00  0.00    -0.646 OA
BRANCH   7   9
HETATM    9  O   UNK N   1      34.456  18.528   8.401  0.00  0.00    -0.772 OA
HETATM   10  H   UNK N   1      34.748  18.969   7.627  0.00  0.00     0.167 HD
ENDBRANCH   7   9
ENDBRANCH   5   7
BRANCH   5  11
HETATM   11  O   UNK N   1      35.194  15.103   8.952  0.00  0.00    -0.304 OA
BRANCH  11  12
HETATM   12  C   UNK N   1      34.908  14.101   9.810  0.00  0.00     0.075 A 
HETATM   13  C   UNK N   1      34.662  12.811   9.329  0.00  0.00     0.038 A 
HETATM   14  C   UNK N   1      34.539  11.743  10.219  0.00  0.00     0.017 A 
HETATM   15  C   UNK N   1      34.662  11.966  11.598  0.00  0.00     0.004 A 
HETATM   16  C   UNK N   1      34.613  10.913  12.520  0.00  0.00    -0.043 A 
HETATM   17  C   UNK N   1      34.859  13.278  12.081  0.00  0.00     0.092 A 
HETATM   18  C   UNK N   1      34.452   9.496  12.085  0.00  0.00     0.049 C 
HETATM   19  C   UNK N   1      34.747  11.199  13.878  0.00  0.00     0.090 A 
HETATM   20  C   UNK N   1      34.919  12.524  14.284  0.00  0.00     0.288 A 
HETATM   21  O   UNK N   1      35.032  12.784  15.469  0.00  0.00    -0.260 OA
HETATM   22  O   UNK N   1      34.974  13.506  13.388  0.00  0.00    -0.275 OA
HETATM   23  C   UNK N   1      34.982  14.338  11.184  0.00  0.00     0.075 A 
ENDBRANCH  11  12
ENDBRANCH   5  11
BRANCH   2  24
HETATM   24  O   UNK N   1      31.507  17.619   9.088  0.00  0.00    -0.393 OA
HETATM   25  H   UNK N   1      32.143  18.318   9.305  0.00  0.00     0.210 HD
ENDBRANCH   2  24
BRANCH   4  26
HETATM   26  C   UNK N   1      33.273  15.583   5.047  0.00  0.00     0.180 C 
BRANCH  26  27
HETATM   27  C   UNK N   1      33.383  16.956   4.338  0.00  0.00     0.173 C 
BRANCH  27  28
HETATM   28  C   UNK N   1      32.068  17.436   3.727  0.00  0.00     0.198 C 
BRANCH  28  29
HETATM   29  O   UNK N   1      32.038  17.180   2.354  0.00  0.00    -0.398 OA
HETATM   30  H   UNK N   1      31.248  16.811   1.929  0.00  0.00     0.209 HD
ENDBRANCH  28  29
ENDBRANCH  27  28
BRANCH  27  31
HETATM   31  O   UNK N   1      33.886  17.934   5.190  0.00  0.00    -0.391 OA
HETATM   32  H   UNK N   1      34.836  18.112   5.273  0.00  0.00     0.210 HD
ENDBRANCH  27  31
ENDBRANCH  26  27
BRANCH  26  33
HETATM   33  O   UNK N   1      32.257  14.862   4.413  0.00  0.00    -0.390 OA
HETATM   34  H   UNK N   1      31.486  14.555   4.917  0.00  0.00     0.210 HD
ENDBRANCH  26  33
ENDBRANCH   4  26
BRANCH   3  35
HETATM   35  N   UNK N   1      30.535  15.609   6.588  0.00  0.00    -0.365 N 
HETATM   36  C   UNK N   1      29.465  16.231   6.213  0.00  0.00     0.107 C 
HETATM   37  C   UNK N   1      29.374  17.726   6.214  0.00  0.00     0.097 C 
ATOM     38  HN  UNK N   1      30.537  14.591   6.531  1.00  0.00     0.161 HD
BRANCH  36  39
HETATM   39  O   UNK N   1      28.406  15.518   5.787  0.00  0.00    -0.350 OA
HETATM   40  H   UNK N   1      28.479  14.708   5.321  0.00  0.00     0.219 HD
ENDBRANCH  36  39
ENDBRANCH   3  35
TORSDOF 13
ENDMDL
MODEL 7
REMARK VINA RESULT:      -6.4      9.908     12.493
REMARK  13 active torsions:
REMARK  status: ('A' for Active; 'I' for Inactive)
REMARK    1  A    between atoms: C_14  and  C_8 
REMARK    2  A    between atoms: O_24  and  C_8 
REMARK    3  A    between atoms: O_25  and  C_10 
REMARK    4  A    between atoms: O_33  and  C_11 
REMARK    5  A    between atoms: C_13  and  O_26 
REMARK    6  A    between atoms: C_18  and  C_14 
REMARK    7  A    between atoms: C_14  and  O_27 
REMARK    8  A    between atoms: C_17  and  N_22 
REMARK    9  A    between atoms: C_19  and  C_18 
REMARK   10  A    between atoms: C_18  and  O_29 
REMARK   11  A    between atoms: C_21  and  C_20 
REMARK   12  A    between atoms: O_31  and  C_20 
REMARK   13  A    between atoms: C_21  and  O_33 
ROOT
HETATM    1  C   UNK N   1      32.106  16.017   8.540  0.00  0.00     0.114 C 
HETATM    2  C   UNK N   1      30.856  16.887   8.448  0.00  0.00     0.149 C 
HETATM    3  C   UNK N   1      30.407  17.145   6.978  0.00  0.00     0.144 C 
HETATM    4  C   UNK N   1      31.328  16.391   5.978  0.00  0.00     0.182 C 
HETATM    5  C   UNK N   1      33.194  16.375   7.515  0.00  0.00     0.260 C 
HETATM    6  O   UNK N   1      32.671  16.780   6.245  0.00  0.00    -0.336 OA
ENDROOT
BRANCH   5   7
HETATM    7  C   UNK N   1      34.020  17.533   8.029  0.00  0.00     0.206 C 
HETATM    8  O   UNK N   1      34.586  18.284   7.249  0.00  0.00    -0.646 OA
BRANCH   7   9
HETATM    9  O   UNK N   1      34.091  17.784   9.349  0.00  0.00    -0.772 OA
HETATM   10  H   UNK N   1      33.645  17.558  10.142  0.00  0.00     0.167 HD
ENDBRANCH   7   9
ENDBRANCH   5   7
BRANCH   5  11
HETATM   11  O   UNK N   1      34.026  15.265   7.380  0.00  0.00    -0.304 OA
BRANCH  11  12
HETATM   12  C   UNK N   1      34.058  14.281   8.302  0.00  0.00     0.075 A 
HETATM   13  C   UNK N   1      33.280  13.130   8.132  0.00  0.00     0.038 A 
HETATM   14  C   UNK N   1      33.442  12.041   8.990  0.00  0.00     0.017 A 
HETATM   15  C   UNK N   1      34.386  12.102  10.024  0.00  0.00     0.004 A 
HETATM   16  C   UNK N   1      34.629  11.008  10.864  0.00  0.00    -0.043 A 
HETATM   17  C   UNK N   1      35.132  13.285  10.224  0.00  0.00     0.092 A 
HETATM   18  C   UNK N   1      33.912   9.711  10.689  0.00  0.00     0.049 C 
HETATM   19  C   UNK N   1      35.584  11.130  11.872  0.00  0.00     0.090 A 
HETATM   20  C   UNK N   1      36.270  12.337  12.021  0.00  0.00     0.288 A 
HETATM   21  O   UNK N   1      37.103  12.454  12.903  0.00  0.00    -0.260 OA
HETATM   22  O   UNK N   1      36.030  13.358  11.204  0.00  0.00    -0.275 OA
HETATM   23  C   UNK N   1      34.965  14.367   9.361  0.00  0.00     0.075 A 
ENDBRANCH  11  12
ENDBRANCH   5  11
BRANCH   2  24
HETATM   24  O   UNK N   1      31.043  18.094   9.124  0.00  0.00    -0.393 OA
HETATM   25  H   UNK N   1      31.812  18.682   9.187  0.00  0.00     0.210 HD
ENDBRANCH   2  24
BRANCH   4  26
HETATM   26  C   UNK N   1      31.102  16.722   4.465  0.00  0.00     0.180 C 
BRANCH  26  27
HETATM   27  C   UNK N   1      32.312  16.739   3.497  0.00  0.00     0.173 C 
BRANCH  27  28
HETATM   28  C   UNK N   1      32.958  15.370   3.302  0.00  0.00     0.198 C 
BRANCH  28  29
HETATM   29  O   UNK N   1      33.993  15.176   4.221  0.00  0.00    -0.398 OA
HETATM   30  H   UNK N   1      34.185  14.297   4.583  0.00  0.00     0.209 HD
ENDBRANCH  28  29
ENDBRANCH  27  28
BRANCH  27  31
HETATM   31  O   UNK N   1      31.969  17.275   2.260  0.00  0.00    -0.391 OA
HETATM   32  H   UNK N   1      31.060  17.530   2.037  0.00  0.00     0.210 HD
ENDBRANCH  27  31
ENDBRANCH  26  27
BRANCH  26  33
HETATM   33  O   UNK N   1      30.481  17.973   4.385  0.00  0.00    -0.390 OA
HETATM   34  H   UNK N   1      30.682  18.573   3.650  0.00  0.00     0.210 HD
ENDBRANCH  26  33
ENDBRANCH   4  26
BRANCH   3  35
HETATM   35  N   UNK N   1      29.020  16.742   6.820  0.00  0.00    -0.365 N 
HETATM   36  C   UNK N   1      28.009  17.544   6.901  0.00  0.00     0.107 C 
HETATM   37  C   UNK N   1      28.179  19.015   7.129  0.00  0.00     0.097 C 
ATOM     38  HN  UNK N   1      28.831  15.757   6.631  1.00  0.00     0.161 HD
BRANCH  36  39
HETATM   39  O   UNK N   1      26.766  17.051   6.753  0.00  0.00    -0.350 OA
HETATM   40  H   UNK N   1      26.069  17.516   6.333  0.00  0.00     0.219 HD
ENDBRANCH  36  39
ENDBRANCH   3  35
TORSDOF 13
ENDMDL
MODEL 8
REMARK VINA RESULT:      -6.3     10.855     14.291
REMARK  13 active torsions:
REMARK  status: ('A' for Active; 'I' for Inactive)
REMARK    1  A    between atoms: C_14  and  C_8 
REMARK    2  A    between atoms: O_24  and  C_8 
REMARK    3  A    between atoms: O_25  and  C_10 
REMARK    4  A    between atoms: O_33  and  C_11 
REMARK    5  A    between atoms: C_13  and  O_26 
REMARK    6  A    between atoms: C_18  and  C_14 
REMARK    7  A    between atoms: C_14  and  O_27 
REMARK    8  A    between atoms: C_17  and  N_22 
REMARK    9  A    between atoms: C_19  and  C_18 
REMARK   10  A    between atoms: C_18  and  O_29 
REMARK   11  A    between atoms: C_21  and  C_20 
REMARK   12  A    between atoms: O_31  and  C_20 
REMARK   13  A    between atoms: C_21  and  O_33 
ROOT
HETATM    1  C   UNK N   1      33.558  13.966   7.382  0.00  0.00     0.114 C 
HETATM    2  C   UNK N   1      33.842  12.587   7.970  0.00  0.00     0.149 C 
HETATM    3  C   UNK N   1      34.531  12.656   9.366  0.00  0.00     0.144 C 
HETATM    4  C   UNK N   1      34.697  14.131   9.829  0.00  0.00     0.182 C 
HETATM    5  C   UNK N   1      34.706  14.972   7.562  0.00  0.00     0.260 C 
HETATM    6  O   UNK N   1      35.399  14.831   8.807  0.00  0.00    -0.336 OA
ENDROOT
BRANCH   5   7
HETATM    7  C   UNK N   1      35.736  14.773   6.472  0.00  0.00     0.206 C 
HETATM    8  O   UNK N   1      35.655  15.393   5.423  0.00  0.00    -0.646 OA
BRANCH   7   9
HETATM    9  O   UNK N   1      36.785  13.954   6.671  0.00  0.00    -0.772 OA
HETATM   10  H   UNK N   1      37.710  13.931   6.519  0.00  0.00     0.167 HD
ENDBRANCH   7   9
ENDBRANCH   5   7
BRANCH   5  11
HETATM   11  O   UNK N   1      34.168  16.251   7.434  0.00  0.00    -0.304 OA
BRANCH  11  12
HETATM   12  C   UNK N   1      32.840  16.477   7.501  0.00  0.00     0.075 A 
HETATM   13  C   UNK N   1      32.200  16.549   8.743  0.00  0.00     0.038 A 
HETATM   14  C   UNK N   1      30.866  16.953   8.821  0.00  0.00     0.017 A 
HETATM   15  C   UNK N   1      30.168  17.287   7.653  0.00  0.00     0.004 A 
HETATM   16  C   UNK N   1      28.851  17.762   7.693  0.00  0.00    -0.043 A 
HETATM   17  C   UNK N   1      30.803  17.163   6.397  0.00  0.00     0.092 A 
HETATM   18  C   UNK N   1      28.128  17.961   8.983  0.00  0.00     0.049 C 
HETATM   19  C   UNK N   1      28.213  18.082   6.496  0.00  0.00     0.090 A 
HETATM   20  C   UNK N   1      28.897  17.916   5.290  0.00  0.00     0.288 A 
HETATM   21  O   UNK N   1      28.345  18.188   4.239  0.00  0.00    -0.260 OA
HETATM   22  O   UNK N   1      30.152  17.474   5.278  0.00  0.00    -0.275 OA
HETATM   23  C   UNK N   1      32.136  16.761   6.329  0.00  0.00     0.075 A 
ENDBRANCH  11  12
ENDBRANCH   5  11
BRANCH   2  24
HETATM   24  O   UNK N   1      34.602  11.820   7.084  0.00  0.00    -0.393 OA
HETATM   25  H   UNK N   1      35.068  12.058   6.268  0.00  0.00     0.210 HD
ENDBRANCH   2  24
BRANCH   4  26
HETATM   26  C   UNK N   1      35.547  14.344  11.126  0.00  0.00     0.180 C 
BRANCH  26  27
HETATM   27  C   UNK N   1      36.766  13.428  11.399  0.00  0.00     0.173 C 
BRANCH  27  28
HETATM   28  C   UNK N   1      37.926  13.649  10.432  0.00  0.00     0.198 C 
BRANCH  28  29
HETATM   29  O   UNK N   1      38.068  15.005  10.130  0.00  0.00    -0.398 OA
HETATM   30  H   UNK N   1      38.944  15.419  10.073  0.00  0.00     0.209 HD
ENDBRANCH  28  29
ENDBRANCH  27  28
BRANCH  27  31
HETATM   31  O   UNK N   1      37.218  13.555  12.709  0.00  0.00    -0.391 OA
HETATM   32  H   UNK N   1      38.160  13.534  12.938  0.00  0.00     0.210 HD
ENDBRANCH  27  31
ENDBRANCH  26  27
BRANCH  26  33
HETATM   33  O   UNK N   1      34.689  14.242  12.226  0.00  0.00    -0.390 OA
HETATM   34  H   UNK N   1      34.222  15.025  12.556  0.00  0.00     0.210 HD
ENDBRANCH  26  33
ENDBRANCH   4  26
BRANCH   3  35
HETATM   35  N   UNK N   1      33.753  11.891  10.325  0.00  0.00    -0.365 N 
HETATM   36  C   UNK N   1      34.105  10.742  10.805  0.00  0.00     0.107 C 
HETATM   37  C   UNK N   1      35.405  10.094  10.440  0.00  0.00     0.097 C 
ATOM     38  HN  UNK N   1      32.868  12.287  10.643  1.00  0.00     0.161 HD
BRANCH  36  39
HETATM   39  O   UNK N   1      33.292  10.118  11.676  0.00  0.00    -0.350 OA
HETATM   40  H   UNK N   1      33.584   9.747  12.486  0.00  0.00     0.219 HD
ENDBRANCH  36  39
ENDBRANCH   3  35
TORSDOF 13
ENDMDL
MODEL 9
REMARK VINA RESULT:      -6.3      2.376      4.206
REMARK  13 active torsions:
REMARK  status: ('A' for Active; 'I' for Inactive)
REMARK    1  A    between atoms: C_14  and  C_8 
REMARK    2  A    between atoms: O_24  and  C_8 
REMARK    3  A    between atoms: O_25  and  C_10 
REMARK    4  A    between atoms: O_33  and  C_11 
REMARK    5  A    between atoms: C_13  and  O_26 
REMARK    6  A    between atoms: C_18  and  C_14 
REMARK    7  A    between atoms: C_14  and  O_27 
REMARK    8  A    between atoms: C_17  and  N_22 
REMARK    9  A    between atoms: C_19  and  C_18 
REMARK   10  A    between atoms: C_18  and  O_29 
REMARK   11  A    between atoms: C_21  and  C_20 
REMARK   12  A    between atoms: O_31  and  C_20 
REMARK   13  A    between atoms: C_21  and  O_33 
ROOT
HETATM    1  C   UNK N   1      23.821  16.349   5.682  0.00  0.00     0.114 C 
HETATM    2  C   UNK N   1      23.537  17.737   5.114  0.00  0.00     0.149 C 
HETATM    3  C   UNK N   1      22.621  17.698   3.854  0.00  0.00     0.144 C 
HETATM    4  C   UNK N   1      22.182  16.241   3.535  0.00  0.00     0.182 C 
HETATM    5  C   UNK N   1      24.124  15.286   4.613  0.00  0.00     0.260 C 
HETATM    6  O   UNK N   1      23.359  15.449   3.414  0.00  0.00    -0.336 OA
ENDROOT
BRANCH   5   7
HETATM    7  C   UNK N   1      25.579  15.367   4.209  0.00  0.00     0.206 C 
HETATM    8  O   UNK N   1      25.918  16.039   3.247  0.00  0.00    -0.646 OA
BRANCH   7   9
HETATM    9  O   UNK N   1      26.523  14.746   4.941  0.00  0.00    -0.772 OA
HETATM   10  H   UNK N   1      26.597  14.052   5.567  0.00  0.00     0.167 HD
ENDBRANCH   7   9
ENDBRANCH   5   7
BRANCH   5  11
HETATM   11  O   UNK N   1      23.892  14.037   5.186  0.00  0.00    -0.304 OA
BRANCH  11  12
HETATM   12  C   UNK N   1      23.417  13.904   6.442  0.00  0.00     0.075 A 
HETATM   13  C   UNK N   1      22.055  14.092   6.703  0.00  0.00     0.038 A 
HETATM   14  C   UNK N   1      21.534  13.787   7.961  0.00  0.00     0.017 A 
HETATM   15  C   UNK N   1      22.378  13.292   8.964  0.00  0.00     0.004 A 
HETATM   16  C   UNK N   1      21.884  12.909  10.218  0.00  0.00    -0.043 A 
HETATM   17  C   UNK N   1      23.761  13.152   8.712  0.00  0.00     0.092 A 
HETATM   18  C   UNK N   1      20.431  12.986  10.545  0.00  0.00     0.049 C 
HETATM   19  C   UNK N   1      22.774  12.419  11.172  0.00  0.00     0.090 A 
HETATM   20  C   UNK N   1      24.131  12.327  10.858  0.00  0.00     0.288 A 
HETATM   21  O   UNK N   1      24.917  11.904  11.688  0.00  0.00    -0.260 OA
HETATM   22  O   UNK N   1      24.575  12.686   9.657  0.00  0.00    -0.275 OA
HETATM   23  C   UNK N   1      24.272  13.458   7.452  0.00  0.00     0.075 A 
ENDBRANCH  11  12
ENDBRANCH   5  11
BRANCH   2  24
HETATM   24  O   UNK N   1      24.728  18.410   4.836  0.00  0.00    -0.393 OA
HETATM   25  H   UNK N   1      24.915  19.350   4.689  0.00  0.00     0.210 HD
ENDBRANCH   2  24
BRANCH   4  26
HETATM   26  C   UNK N   1      21.419  16.044   2.183  0.00  0.00     0.180 C 
BRANCH  26  27
HETATM   27  C   UNK N   1      19.885  15.823   2.196  0.00  0.00     0.173 C 
BRANCH  27  28
HETATM   28  C   UNK N   1      19.478  14.352   2.189  0.00  0.00     0.198 C 
BRANCH  28  29
HETATM   29  O   UNK N   1      18.405  14.140   1.319  0.00  0.00    -0.398 OA
HETATM   30  H   UNK N   1      17.961  14.882   0.879  0.00  0.00     0.209 HD
ENDBRANCH  28  29
ENDBRANCH  27  28
BRANCH  27  31
HETATM   31  O   UNK N   1      19.285  16.469   3.273  0.00  0.00    -0.391 OA
HETATM   32  H   UNK N   1      19.729  17.172   3.771  0.00  0.00     0.210 HD
ENDBRANCH  27  31
ENDBRANCH  26  27
BRANCH  26  33
HETATM   33  O   UNK N   1      21.994  14.957   1.516  0.00  0.00    -0.390 OA
HETATM   34  H   UNK N   1      21.434  14.258   1.144  0.00  0.00     0.210 HD
ENDBRANCH  26  33
ENDBRANCH   4  26
BRANCH   3  35
HETATM   35  N   UNK N   1      21.470  18.557   4.069  0.00  0.00    -0.365 N 
HETATM   36  C   UNK N   1      21.348  19.753   3.593  0.00  0.00     0.107 C 
HETATM   37  C   UNK N   1      22.395  20.369   2.716  0.00  0.00     0.097 C 
ATOM     38  HN  UNK N   1      20.703  18.190   4.633  1.00  0.00     0.161 HD
BRANCH  36  39
HETATM   39  O   UNK N   1      20.240  20.463   3.874  0.00  0.00    -0.350 OA
HETATM   40  H   UNK N   1      20.056  21.305   3.508  0.00  0.00     0.219 HD
ENDBRANCH  36  39
ENDBRANCH   3  35
TORSDOF 13
ENDMDL
