MODEL 1
REMARK VINA RESULT:      -7.6      0.000      0.000
REMARK  5 active torsions:
REMARK  status: ('A' for Active; 'I' for Inactive)
REMARK    1  A    between atoms: C_17  and  C_21 
REMARK    2  A    between atoms: C_21  and  C_23 
REMARK    3  A    between atoms: C_23  and  O_24 
REMARK    4  A    between atoms: O_24  and  C_25 
REMARK    5  A    between atoms: C_25  and  C_27 
ROOT
HETATM    1  C   UNK N   1      35.570  13.295  17.618  0.00  0.00     0.010 C 
HETATM    2  C   UNK N   1      35.157  12.724  18.994  0.00  0.00     0.035 C 
HETATM    3  C   UNK N   1      35.551  11.282  19.181  0.00  0.00    -0.068 C 
HETATM    4  C   UNK N   1      36.177  10.904  20.306  0.00  0.00     0.053 C 
HETATM    5  C   UNK N   1      36.963   8.700  19.177  0.00  0.00     0.084 C 
HETATM    6  C   UNK N   1      36.603   9.462  17.888  0.00  0.00     0.022 C 
HETATM    7  C   UNK N   1      35.308  10.270  18.072  0.00  0.00    -0.016 C 
HETATM    8  C   UNK N   1      34.181   9.313  18.476  0.00  0.00     0.020 C 
HETATM    9  C   UNK N   1      35.496  10.304  14.298  0.00  0.00     0.011 C 
HETATM   10  C   UNK N   1      35.596  13.898  13.043  0.00  0.00     0.013 C 
HETATM   11  C   UNK N   1      35.857  14.077  14.561  0.00  0.00     0.006 C 
HETATM   12  C   UNK N   1      34.899  11.000  16.779  0.00  0.00     0.002 C 
HETATM   13  C   UNK N   1      35.415  12.739  15.129  0.00  0.00    -0.001 C 
HETATM   14  C   UNK N   1      35.812  12.237  16.519  0.00  0.00    -0.004 C 
HETATM   15  C   UNK N   1      35.909  11.757  14.060  0.00  0.00    -0.030 C 
HETATM   16  C   UNK N   1      37.448  11.769  13.952  0.00  0.00     0.016 C 
HETATM   17  C   UNK N   1      35.254  12.404  12.843  0.00  0.00     0.066 C 
HETATM   18  C   UNK N   1      36.741   9.539  20.415  0.00  0.00     0.149 C 
HETATM   19  O   UNK N   1      37.065   9.103  21.507  0.00  0.00    -0.293 OA
HETATM   20  C   UNK N   1      34.735  10.012  15.597  0.00  0.00     0.007 C 
ENDROOT
BRANCH  17  21
HETATM   21  C   UNK N   1      35.592  11.847  11.476  0.00  0.00     0.155 C 
HETATM   22  O   UNK N   1      34.919  10.961  10.974  0.00  0.00    -0.295 OA
BRANCH  21  23
HETATM   23  C   UNK N   1      36.693  12.473  10.669  0.00  0.00     0.257 C 
BRANCH  23  24
HETATM   24  O   UNK N   1      36.172  13.250   9.662  0.00  0.00    -0.313 OA
BRANCH  24  25
HETATM   25  C   UNK N   1      36.175  14.606   9.698  0.00  0.00     0.266 C 
HETATM   26  O   UNK N   1      37.164  15.212  10.084  0.00  0.00    -0.264 OA
BRANCH  25  27
HETATM   27  C   UNK N   1      34.941  15.366   9.285  0.00  0.00     0.037 C 
HETATM   28  C   UNK N   1      33.706  14.685   9.839  0.00  0.00     0.025 C 
HETATM   29  C   UNK N   1      34.972  16.799   9.792  0.00  0.00     0.025 C 
HETATM   30  C   UNK N   1      34.853  15.400   7.770  0.00  0.00     0.025 C 
ENDBRANCH  25  27
ENDBRANCH  24  25
ENDBRANCH  23  24
ENDBRANCH  21  23
ENDBRANCH  17  21
TORSDOF 5
ENDMDL
MODEL 2
REMARK VINA RESULT:      -7.4      2.547      5.066
REMARK  5 active torsions:
REMARK  status: ('A' for Active; 'I' for Inactive)
REMARK    1  A    between atoms: C_17  and  C_21 
REMARK    2  A    between atoms: C_21  and  C_23 
REMARK    3  A    between atoms: C_23  and  O_24 
REMARK    4  A    between atoms: O_24  and  C_25 
REMARK    5  A    between atoms: C_25  and  C_27 
ROOT
HETATM    1  C   UNK N   1      37.544  11.300  12.519  0.00  0.00     0.010 C 
HETATM    2  C   UNK N   1      37.984  11.157  13.994  0.00  0.00     0.035 C 
HETATM    3  C   UNK N   1      37.005  11.761  14.966  0.00  0.00    -0.068 C 
HETATM    4  C   UNK N   1      36.610  11.054  16.036  0.00  0.00     0.053 C 
HETATM    5  C   UNK N   1      34.574  12.632  16.377  0.00  0.00     0.084 C 
HETATM    6  C   UNK N   1      34.891  13.034  14.924  0.00  0.00     0.022 C 
HETATM    7  C   UNK N   1      36.409  13.135  14.703  0.00  0.00    -0.016 C 
HETATM    8  C   UNK N   1      36.986  14.153  15.691  0.00  0.00     0.020 C 
HETATM    9  C   UNK N   1      35.237  15.028  11.649  0.00  0.00     0.011 C 
HETATM   10  C   UNK N   1      36.564  13.347   8.500  0.00  0.00     0.013 C 
HETATM   11  C   UNK N   1      36.851  12.276   9.585  0.00  0.00     0.006 C 
HETATM   12  C   UNK N   1      36.750  13.586  13.270  0.00  0.00     0.002 C 
HETATM   13  C   UNK N   1      36.720  13.072  10.873  0.00  0.00    -0.001 C 
HETATM   14  C   UNK N   1      36.526  12.429  12.249  0.00  0.00    -0.004 C 
HETATM   15  C   UNK N   1      35.538  13.998  10.559  0.00  0.00    -0.030 C 
HETATM   16  C   UNK N   1      34.239  13.197  10.333  0.00  0.00     0.016 C 
HETATM   17  C   UNK N   1      36.064  14.598   9.258  0.00  0.00     0.066 C 
HETATM   18  C   UNK N   1      35.506  11.556  16.887  0.00  0.00     0.149 C 
HETATM   19  O   UNK N   1      35.324  11.072  17.991  0.00  0.00    -0.293 OA
HETATM   20  C   UNK N   1      36.081  14.940  12.927  0.00  0.00     0.007 C 
ENDROOT
BRANCH  17  21
HETATM   21  C   UNK N   1      35.138  15.497   8.468  0.00  0.00     0.155 C 
HETATM   22  O   UNK N   1      34.918  16.644   8.826  0.00  0.00    -0.295 OA
BRANCH  21  23
HETATM   23  C   UNK N   1      34.576  15.022   7.159  0.00  0.00     0.257 C 
BRANCH  23  24
HETATM   24  O   UNK N   1      34.900  15.895   6.148  0.00  0.00    -0.313 OA
BRANCH  24  25
HETATM   25  C   UNK N   1      34.036  16.821   5.665  0.00  0.00     0.266 C 
HETATM   26  O   UNK N   1      34.060  17.968   6.088  0.00  0.00    -0.264 OA
BRANCH  25  27
HETATM   27  C   UNK N   1      33.022  16.425   4.623  0.00  0.00     0.037 C 
HETATM   28  C   UNK N   1      31.778  15.880   5.293  0.00  0.00     0.025 C 
HETATM   29  C   UNK N   1      32.625  17.608   3.753  0.00  0.00     0.025 C 
HETATM   30  C   UNK N   1      33.615  15.354   3.725  0.00  0.00     0.025 C 
ENDBRANCH  25  27
ENDBRANCH  24  25
ENDBRANCH  23  24
ENDBRANCH  21  23
ENDBRANCH  17  21
TORSDOF 5
ENDMDL
MODEL 3
REMARK VINA RESULT:      -7.4     24.657     26.652
REMARK  5 active torsions:
REMARK  status: ('A' for Active; 'I' for Inactive)
REMARK    1  A    between atoms: C_17  and  C_21 
REMARK    2  A    between atoms: C_21  and  C_23 
REMARK    3  A    between atoms: C_23  and  O_24 
REMARK    4  A    between atoms: O_24  and  C_25 
REMARK    5  A    between atoms: C_25  and  C_27 
ROOT
HETATM    1  C   UNK N   1      25.792  24.373  -4.660  0.00  0.00     0.010 C 
HETATM    2  C   UNK N   1      26.494  25.402  -3.744  0.00  0.00     0.035 C 
HETATM    3  C   UNK N   1      27.090  26.561  -4.500  0.00  0.00    -0.068 C 
HETATM    4  C   UNK N   1      26.855  27.815  -4.087  0.00  0.00     0.053 C 
HETATM    5  C   UNK N   1      27.600  28.757  -6.390  0.00  0.00     0.084 C 
HETATM    6  C   UNK N   1      27.385  27.298  -6.837  0.00  0.00     0.022 C 
HETATM    7  C   UNK N   1      27.894  26.317  -5.768  0.00  0.00    -0.016 C 
HETATM    8  C   UNK N   1      29.378  26.597  -5.507  0.00  0.00     0.020 C 
HETATM    9  C   UNK N   1      27.665  23.939  -8.695  0.00  0.00     0.011 C 
HETATM   10  C   UNK N   1      25.321  21.061  -7.839  0.00  0.00     0.013 C 
HETATM   11  C   UNK N   1      25.029  22.068  -6.696  0.00  0.00     0.006 C 
HETATM   12  C   UNK N   1      27.736  24.852  -6.214  0.00  0.00     0.002 C 
HETATM   13  C   UNK N   1      26.220  23.009  -6.778  0.00  0.00    -0.001 C 
HETATM   14  C   UNK N   1      26.246  24.398  -6.136  0.00  0.00    -0.004 C 
HETATM   15  C   UNK N   1      26.430  23.130  -8.292  0.00  0.00    -0.030 C 
HETATM   16  C   UNK N   1      25.220  23.797  -8.978  0.00  0.00     0.016 C 
HETATM   17  C   UNK N   1      26.518  21.644  -8.625  0.00  0.00     0.066 C 
HETATM   18  C   UNK N   1      27.270  28.960  -4.929  0.00  0.00     0.149 C 
HETATM   19  O   UNK N   1      27.307  30.082  -4.452  0.00  0.00    -0.293 OA
HETATM   20  C   UNK N   1      28.462  24.585  -7.556  0.00  0.00     0.007 C 
ENDROOT
BRANCH  17  21
HETATM   21  C   UNK N   1      26.580  21.247 -10.085  0.00  0.00     0.155 C 
HETATM   22  O   UNK N   1      25.560  21.106 -10.741  0.00  0.00    -0.295 OA
BRANCH  21  23
HETATM   23  C   UNK N   1      27.911  21.147 -10.774  0.00  0.00     0.257 C 
BRANCH  23  24
HETATM   24  O   UNK N   1      28.764  20.337 -10.063  0.00  0.00    -0.313 OA
BRANCH  24  25
HETATM   25  C   UNK N   1      29.713  20.819  -9.224  0.00  0.00     0.266 C 
HETATM   26  O   UNK N   1      30.398  21.778  -9.552  0.00  0.00    -0.264 OA
BRANCH  25  27
HETATM   27  C   UNK N   1      29.942  20.151  -7.892  0.00  0.00     0.037 C 
HETATM   28  C   UNK N   1      29.053  18.931  -7.768  0.00  0.00     0.025 C 
HETATM   29  C   UNK N   1      31.389  19.715  -7.728  0.00  0.00     0.025 C 
HETATM   30  C   UNK N   1      29.610  21.125  -6.777  0.00  0.00     0.025 C 
ENDBRANCH  25  27
ENDBRANCH  24  25
ENDBRANCH  23  24
ENDBRANCH  21  23
ENDBRANCH  17  21
TORSDOF 5
ENDMDL
MODEL 4
REMARK VINA RESULT:      -7.2     20.603     23.784
REMARK  5 active torsions:
REMARK  status: ('A' for Active; 'I' for Inactive)
REMARK    1  A    between atoms: C_17  and  C_21 
REMARK    2  A    between atoms: C_21  and  C_23 
REMARK    3  A    between atoms: C_23  and  O_24 
REMARK    4  A    between atoms: O_24  and  C_25 
REMARK    5  A    between atoms: C_25  and  C_27 
ROOT
HETATM    1  C   UNK N   1      32.635  21.412  -2.692  0.00  0.00     0.010 C 
HETATM    2  C   UNK N   1      33.863  20.631  -3.214  0.00  0.00     0.035 C 
HETATM    3  C   UNK N   1      34.634  21.377  -4.272  0.00  0.00    -0.068 C 
HETATM    4  C   UNK N   1      35.968  21.481  -4.172  0.00  0.00     0.053 C 
HETATM    5  C   UNK N   1      35.982  23.439  -5.880  0.00  0.00     0.084 C 
HETATM    6  C   UNK N   1      34.481  23.488  -5.540  0.00  0.00     0.022 C 
HETATM    7  C   UNK N   1      33.901  22.071  -5.409  0.00  0.00    -0.016 C 
HETATM    8  C   UNK N   1      34.141  21.317  -6.722  0.00  0.00     0.020 C 
HETATM    9  C   UNK N   1      30.672  24.001  -5.761  0.00  0.00     0.011 C 
HETATM   10  C   UNK N   1      28.465  23.387  -2.718  0.00  0.00     0.013 C 
HETATM   11  C   UNK N   1      29.827  22.813  -2.251  0.00  0.00     0.006 C 
HETATM   12  C   UNK N   1      32.389  22.094  -5.120  0.00  0.00     0.002 C 
HETATM   13  C   UNK N   1      30.586  22.668  -3.560  0.00  0.00    -0.001 C 
HETATM   14  C   UNK N   1      32.106  22.507  -3.643  0.00  0.00    -0.004 C 
HETATM   15  C   UNK N   1      30.153  23.925  -4.323  0.00  0.00    -0.030 C 
HETATM   16  C   UNK N   1      30.627  25.209  -3.612  0.00  0.00     0.016 C 
HETATM   17  C   UNK N   1      28.642  23.744  -4.212  0.00  0.00     0.066 C 
HETATM   18  C   UNK N   1      36.710  22.372  -5.094  0.00  0.00     0.149 C 
HETATM   19  O   UNK N   1      37.921  22.271  -5.191  0.00  0.00    -0.293 OA
HETATM   20  C   UNK N   1      31.614  22.877  -6.208  0.00  0.00     0.007 C 
ENDROOT
BRANCH  17  21
HETATM   21  C   UNK N   1      27.755  24.864  -4.712  0.00  0.00     0.155 C 
HETATM   22  O   UNK N   1      27.748  25.181  -5.891  0.00  0.00    -0.295 OA
BRANCH  21  23
HETATM   23  C   UNK N   1      26.777  25.515  -3.776  0.00  0.00     0.257 C 
BRANCH  23  24
HETATM   24  O   UNK N   1      26.189  26.605  -4.372  0.00  0.00    -0.313 OA
BRANCH  24  25
HETATM   25  C   UNK N   1      26.199  27.843  -3.820  0.00  0.00     0.266 C 
HETATM   26  O   UNK N   1      25.440  28.116  -2.901  0.00  0.00    -0.264 OA
BRANCH  25  27
HETATM   27  C   UNK N   1      27.132  28.895  -4.362  0.00  0.00     0.037 C 
HETATM   28  C   UNK N   1      26.587  30.275  -4.056  0.00  0.00     0.025 C 
HETATM   29  C   UNK N   1      28.520  28.778  -3.753  0.00  0.00     0.025 C 
HETATM   30  C   UNK N   1      27.257  28.731  -5.866  0.00  0.00     0.025 C 
ENDBRANCH  25  27
ENDBRANCH  24  25
ENDBRANCH  23  24
ENDBRANCH  21  23
ENDBRANCH  17  21
TORSDOF 5
ENDMDL
MODEL 5
REMARK VINA RESULT:      -7.1      2.298      8.889
REMARK  5 active torsions:
REMARK  status: ('A' for Active; 'I' for Inactive)
REMARK    1  A    between atoms: C_17  and  C_21 
REMARK    2  A    between atoms: C_21  and  C_23 
REMARK    3  A    between atoms: C_23  and  O_24 
REMARK    4  A    between atoms: O_24  and  C_25 
REMARK    5  A    between atoms: C_25  and  C_27 
ROOT
HETATM    1  C   UNK N   1      35.313  13.213  15.667  0.00  0.00     0.010 C 
HETATM    2  C   UNK N   1      35.702  13.495  14.198  0.00  0.00     0.035 C 
HETATM    3  C   UNK N   1      35.671  12.264  13.329  0.00  0.00    -0.068 C 
HETATM    4  C   UNK N   1      35.041  12.301  12.146  0.00  0.00     0.053 C 
HETATM    5  C   UNK N   1      34.976   9.706  12.052  0.00  0.00     0.084 C 
HETATM    6  C   UNK N   1      35.272   9.839  13.558  0.00  0.00     0.022 C 
HETATM    7  C   UNK N   1      36.288  10.963  13.820  0.00  0.00    -0.016 C 
HETATM    8  C   UNK N   1      37.569  10.664  13.035  0.00  0.00     0.020 C 
HETATM    9  C   UNK N   1      36.521   9.169  17.137  0.00  0.00     0.011 C 
HETATM   10  C   UNK N   1      35.646  11.565  19.965  0.00  0.00     0.013 C 
HETATM   11  C   UNK N   1      35.179  12.355  18.715  0.00  0.00     0.006 C 
HETATM   12  C   UNK N   1      36.638  11.082  15.315  0.00  0.00     0.002 C 
HETATM   13  C   UNK N   1      35.883  11.623  17.584  0.00  0.00    -0.001 C 
HETATM   14  C   UNK N   1      35.474  11.743  16.114  0.00  0.00    -0.004 C 
HETATM   15  C   UNK N   1      35.779  10.160  18.035  0.00  0.00    -0.030 C 
HETATM   16  C   UNK N   1      34.310   9.692  18.095  0.00  0.00     0.016 C 
HETATM   17  C   UNK N   1      36.379  10.314  19.430  0.00  0.00     0.066 C 
HETATM   18  C   UNK N   1      34.836  11.052  11.378  0.00  0.00     0.149 C 
HETATM   19  O   UNK N   1      34.515  11.108  10.203  0.00  0.00    -0.293 OA
HETATM   20  C   UNK N   1      37.181   9.746  15.879  0.00  0.00     0.007 C 
ENDROOT
BRANCH  17  21
HETATM   21  C   UNK N   1      36.349   9.112  20.350  0.00  0.00     0.155 C 
HETATM   22  O   UNK N   1      36.981   8.101  20.084  0.00  0.00    -0.295 OA
BRANCH  21  23
HETATM   23  C   UNK N   1      35.637   9.201  21.669  0.00  0.00     0.257 C 
BRANCH  23  24
HETATM   24  O   UNK N   1      34.558   8.350  21.694  0.00  0.00    -0.313 OA
BRANCH  24  25
HETATM   25  C   UNK N   1      33.291   8.756  21.434  0.00  0.00     0.266 C 
HETATM   26  O   UNK N   1      32.945   9.903  21.683  0.00  0.00    -0.264 OA
BRANCH  25  27
HETATM   27  C   UNK N   1      32.297   7.780  20.860  0.00  0.00     0.037 C 
HETATM   28  C   UNK N   1      31.644   6.992  21.977  0.00  0.00     0.025 C 
HETATM   29  C   UNK N   1      31.209   8.490  20.069  0.00  0.00     0.025 C 
HETATM   30  C   UNK N   1      33.014   6.821  19.927  0.00  0.00     0.025 C 
ENDBRANCH  25  27
ENDBRANCH  24  25
ENDBRANCH  23  24
ENDBRANCH  21  23
ENDBRANCH  17  21
TORSDOF 5
ENDMDL
MODEL 6
REMARK VINA RESULT:      -7.0      2.455      4.117
REMARK  5 active torsions:
REMARK  status: ('A' for Active; 'I' for Inactive)
REMARK    1  A    between atoms: C_17  and  C_21 
REMARK    2  A    between atoms: C_21  and  C_23 
REMARK    3  A    between atoms: C_23  and  O_24 
REMARK    4  A    between atoms: O_24  and  C_25 
REMARK    5  A    between atoms: C_25  and  C_27 
ROOT
HETATM    1  C   UNK N   1      35.780   7.454  16.546  0.00  0.00     0.010 C 
HETATM    2  C   UNK N   1      35.610   6.493  17.744  0.00  0.00     0.035 C 
HETATM    3  C   UNK N   1      34.621   6.989  18.767  0.00  0.00    -0.068 C 
HETATM    4  C   UNK N   1      33.667   6.163  19.225  0.00  0.00     0.053 C 
HETATM    5  C   UNK N   1      32.301   8.179  20.131  0.00  0.00     0.084 C 
HETATM    6  C   UNK N   1      33.216   8.975  19.180  0.00  0.00     0.022 C 
HETATM    7  C   UNK N   1      34.655   8.438  19.228  0.00  0.00    -0.016 C 
HETATM    8  C   UNK N   1      35.165   8.515  20.671  0.00  0.00     0.020 C 
HETATM    9  C   UNK N   1      35.322  11.776  17.588  0.00  0.00     0.011 C 
HETATM   10  C   UNK N   1      37.001  11.243  14.211  0.00  0.00     0.013 C 
HETATM   11  C   UNK N   1      36.515   9.813  14.561  0.00  0.00     0.006 C 
HETATM   12  C   UNK N   1      35.600   9.251  18.324  0.00  0.00     0.002 C 
HETATM   13  C   UNK N   1      36.226   9.920  16.050  0.00  0.00    -0.001 C 
HETATM   14  C   UNK N   1      35.365   8.916  16.819  0.00  0.00    -0.004 C 
HETATM   15  C   UNK N   1      35.613  11.322  16.156  0.00  0.00    -0.030 C 
HETATM   16  C   UNK N   1      34.282  11.416  15.381  0.00  0.00     0.016 C 
HETATM   17  C   UNK N   1      36.724  12.106  15.464  0.00  0.00     0.066 C 
HETATM   18  C   UNK N   1      32.577   6.693  20.076  0.00  0.00     0.149 C 
HETATM   19  O   UNK N   1      31.873   5.925  20.708  0.00  0.00    -0.293 OA
HETATM   20  C   UNK N   1      35.591  10.754  18.699  0.00  0.00     0.007 C 
ENDROOT
BRANCH  17  21
HETATM   21  C   UNK N   1      36.490  13.576  15.190  0.00  0.00     0.155 C 
HETATM   22  O   UNK N   1      36.484  14.391  16.099  0.00  0.00    -0.295 OA
BRANCH  21  23
HETATM   23  C   UNK N   1      36.388  14.062  13.773  0.00  0.00     0.257 C 
BRANCH  23  24
HETATM   24  O   UNK N   1      35.150  13.774  13.250  0.00  0.00    -0.313 OA
BRANCH  24  25
HETATM   25  C   UNK N   1      34.854  13.908  11.934  0.00  0.00     0.266 C 
HETATM   26  O   UNK N   1      34.375  14.951  11.512  0.00  0.00    -0.264 OA
BRANCH  25  27
HETATM   27  C   UNK N   1      35.093  12.755  10.993  0.00  0.00     0.037 C 
HETATM   28  C   UNK N   1      36.569  12.652  10.667  0.00  0.00     0.025 C 
HETATM   29  C   UNK N   1      34.639  11.437  11.600  0.00  0.00     0.025 C 
HETATM   30  C   UNK N   1      34.314  12.982   9.710  0.00  0.00     0.025 C 
ENDBRANCH  25  27
ENDBRANCH  24  25
ENDBRANCH  23  24
ENDBRANCH  21  23
ENDBRANCH  17  21
TORSDOF 5
ENDMDL
MODEL 7
REMARK VINA RESULT:      -6.9      2.251      3.518
REMARK  5 active torsions:
REMARK  status: ('A' for Active; 'I' for Inactive)
REMARK    1  A    between atoms: C_17  and  C_21 
REMARK    2  A    between atoms: C_21  and  C_23 
REMARK    3  A    between atoms: C_23  and  O_24 
REMARK    4  A    between atoms: O_24  and  C_25 
REMARK    5  A    between atoms: C_25  and  C_27 
ROOT
HETATM    1  C   UNK N   1      35.475  13.350  17.134  0.00  0.00     0.010 C 
HETATM    2  C   UNK N   1      35.034  12.884  18.540  0.00  0.00     0.035 C 
HETATM    3  C   UNK N   1      35.493  11.487  18.873  0.00  0.00    -0.068 C 
HETATM    4  C   UNK N   1      36.090  11.247  20.050  0.00  0.00     0.053 C 
HETATM    5  C   UNK N   1      37.032   8.996  19.157  0.00  0.00     0.084 C 
HETATM    6  C   UNK N   1      36.687   9.618  17.791  0.00  0.00     0.022 C 
HETATM    7  C   UNK N   1      35.347  10.369  17.853  0.00  0.00    -0.016 C 
HETATM    8  C   UNK N   1      34.254   9.393  18.302  0.00  0.00     0.020 C 
HETATM    9  C   UNK N   1      35.687  10.073  14.101  0.00  0.00     0.011 C 
HETATM   10  C   UNK N   1      35.658  13.541  12.526  0.00  0.00     0.013 C 
HETATM   11  C   UNK N   1      35.848  13.870  14.030  0.00  0.00     0.006 C 
HETATM   12  C   UNK N   1      34.955  10.956  16.485  0.00  0.00     0.002 C 
HETATM   13  C   UNK N   1      35.450  12.566  14.702  0.00  0.00    -0.001 C 
HETATM   14  C   UNK N   1      35.815  12.213  16.146  0.00  0.00    -0.004 C 
HETATM   15  C   UNK N   1      36.037  11.520  13.746  0.00  0.00    -0.030 C 
HETATM   16  C   UNK N   1      37.576  11.605  13.693  0.00  0.00     0.016 C 
HETATM   17  C   UNK N   1      35.400  12.018  12.452  0.00  0.00     0.066 C 
HETATM   18  C   UNK N   1      36.717   9.930  20.304  0.00  0.00     0.149 C 
HETATM   19  O   UNK N   1      37.017   9.611  21.442  0.00  0.00    -0.293 OA
HETATM   20  C   UNK N   1      34.889   9.859  15.393  0.00  0.00     0.007 C 
ENDROOT
BRANCH  17  21
HETATM   21  C   UNK N   1      35.822  11.360  11.156  0.00  0.00     0.155 C 
HETATM   22  O   UNK N   1      36.817  11.734  10.556  0.00  0.00    -0.295 OA
BRANCH  21  23
HETATM   23  C   UNK N   1      35.082  10.151  10.659  0.00  0.00     0.257 C 
BRANCH  23  24
HETATM   24  O   UNK N   1      33.737  10.267  10.918  0.00  0.00    -0.313 OA
BRANCH  24  25
HETATM   25  C   UNK N   1      32.780   9.833  10.061  0.00  0.00     0.266 C 
HETATM   26  O   UNK N   1      32.009  10.628   9.542  0.00  0.00    -0.264 OA
BRANCH  25  27
HETATM   27  C   UNK N   1      32.651   8.360   9.768  0.00  0.00     0.037 C 
HETATM   28  C   UNK N   1      33.452   7.562  10.777  0.00  0.00     0.025 C 
HETATM   29  C   UNK N   1      31.202   7.904   9.832  0.00  0.00     0.025 C 
HETATM   30  C   UNK N   1      33.178   8.075   8.374  0.00  0.00     0.025 C 
ENDBRANCH  25  27
ENDBRANCH  24  25
ENDBRANCH  23  24
ENDBRANCH  21  23
ENDBRANCH  17  21
TORSDOF 5
ENDMDL
MODEL 8
REMARK VINA RESULT:      -6.9      2.548      5.035
REMARK  5 active torsions:
REMARK  status: ('A' for Active; 'I' for Inactive)
REMARK    1  A    between atoms: C_17  and  C_21 
REMARK    2  A    between atoms: C_21  and  C_23 
REMARK    3  A    between atoms: C_23  and  O_24 
REMARK    4  A    between atoms: O_24  and  C_25 
REMARK    5  A    between atoms: C_25  and  C_27 
ROOT
HETATM    1  C   UNK N   1      34.084  10.425  12.470  0.00  0.00     0.010 C 
HETATM    2  C   UNK N   1      34.565   9.860  13.826  0.00  0.00     0.035 C 
HETATM    3  C   UNK N   1      35.219  10.897  14.701  0.00  0.00    -0.068 C 
HETATM    4  C   UNK N   1      34.852  11.009  15.987  0.00  0.00     0.053 C 
HETATM    5  C   UNK N   1      35.929  13.369  16.131  0.00  0.00     0.084 C 
HETATM    6  C   UNK N   1      35.869  13.275  14.595  0.00  0.00     0.022 C 
HETATM    7  C   UNK N   1      36.239  11.862  14.117  0.00  0.00    -0.016 C 
HETATM    8  C   UNK N   1      37.640  11.517  14.632  0.00  0.00     0.020 C 
HETATM    9  C   UNK N   1      36.636  13.716  10.848  0.00  0.00     0.011 C 
HETATM   10  C   UNK N   1      34.334  12.203   8.218  0.00  0.00     0.013 C 
HETATM   11  C   UNK N   1      33.800  11.561   9.525  0.00  0.00     0.006 C 
HETATM   12  C   UNK N   1      36.236  11.758  12.580  0.00  0.00     0.002 C 
HETATM   13  C   UNK N   1      34.937  11.814  10.502  0.00  0.00    -0.001 C 
HETATM   14  C   UNK N   1      34.780  11.728  12.022  0.00  0.00    -0.004 C 
HETATM   15  C   UNK N   1      35.395  13.222  10.103  0.00  0.00    -0.030 C 
HETATM   16  C   UNK N   1      34.285  14.266  10.347  0.00  0.00     0.016 C 
HETATM   17  C   UNK N   1      35.616  12.972   8.614  0.00  0.00     0.066 C 
HETATM   18  C   UNK N   1      35.344  12.145  16.800  0.00  0.00     0.149 C 
HETATM   19  O   UNK N   1      35.241  12.111  18.014  0.00  0.00    -0.293 OA
HETATM   20  C   UNK N   1      37.193  12.793  11.939  0.00  0.00     0.007 C 
ENDROOT
BRANCH  17  21
HETATM   21  C   UNK N   1      35.945  14.161   7.738  0.00  0.00     0.155 C 
HETATM   22  O   UNK N   1      36.938  14.162   7.027  0.00  0.00    -0.295 OA
BRANCH  21  23
HETATM   23  C   UNK N   1      34.978  15.307   7.642  0.00  0.00     0.257 C 
BRANCH  23  24
HETATM   24  O   UNK N   1      35.072  15.917   6.414  0.00  0.00    -0.313 OA
BRANCH  24  25
HETATM   25  C   UNK N   1      34.180  16.840   5.977  0.00  0.00     0.266 C 
HETATM   26  O   UNK N   1      34.229  17.990   6.390  0.00  0.00    -0.264 OA
BRANCH  25  27
HETATM   27  C   UNK N   1      33.106  16.437   4.999  0.00  0.00     0.037 C 
HETATM   28  C   UNK N   1      33.615  15.324   4.106  0.00  0.00     0.025 C 
HETATM   29  C   UNK N   1      31.855  15.951   5.713  0.00  0.00     0.025 C 
HETATM   30  C   UNK N   1      32.731  17.632   4.142  0.00  0.00     0.025 C 
ENDBRANCH  25  27
ENDBRANCH  24  25
ENDBRANCH  23  24
ENDBRANCH  21  23
ENDBRANCH  17  21
TORSDOF 5
ENDMDL
MODEL 9
REMARK VINA RESULT:      -6.9     21.893     25.067
REMARK  5 active torsions:
REMARK  status: ('A' for Active; 'I' for Inactive)
REMARK    1  A    between atoms: C_17  and  C_21 
REMARK    2  A    between atoms: C_21  and  C_23 
REMARK    3  A    between atoms: C_23  and  O_24 
REMARK    4  A    between atoms: O_24  and  C_25 
REMARK    5  A    between atoms: C_25  and  C_27 
ROOT
HETATM    1  C   UNK N   1      30.653  21.654  -3.935  0.00  0.00     0.010 C 
HETATM    2  C   UNK N   1      31.325  20.324  -4.348  0.00  0.00     0.035 C 
HETATM    3  C   UNK N   1      31.630  20.247  -5.821  0.00  0.00    -0.068 C 
HETATM    4  C   UNK N   1      32.848  19.857  -6.228  0.00  0.00     0.053 C 
HETATM    5  C   UNK N   1      32.417  20.840  -8.594  0.00  0.00     0.084 C 
HETATM    6  C   UNK N   1      31.289  21.592  -7.862  0.00  0.00     0.022 C 
HETATM    7  C   UNK N   1      30.590  20.676  -6.844  0.00  0.00    -0.016 C 
HETATM    8  C   UNK N   1      30.043  19.448  -7.579  0.00  0.00     0.020 C 
HETATM    9  C   UNK N   1      27.990  23.408  -7.067  0.00  0.00     0.011 C 
HETATM   10  C   UNK N   1      27.400  24.912  -3.618  0.00  0.00     0.013 C 
HETATM   11  C   UNK N   1      28.691  24.083  -3.393  0.00  0.00     0.006 C 
HETATM   12  C   UNK N   1      29.425  21.391  -6.136  0.00  0.00     0.002 C 
HETATM   13  C   UNK N   1      28.705  23.166  -4.605  0.00  0.00    -0.001 C 
HETATM   14  C   UNK N   1      29.950  22.413  -5.082  0.00  0.00    -0.004 C 
HETATM   15  C   UNK N   1      28.202  24.096  -5.717  0.00  0.00    -0.030 C 
HETATM   16  C   UNK N   1      29.181  25.263  -5.962  0.00  0.00     0.016 C 
HETATM   17  C   UNK N   1      26.916  24.571  -5.046  0.00  0.00     0.066 C 
HETATM   18  C   UNK N   1      33.220  19.965  -7.657  0.00  0.00     0.149 C 
HETATM   19  O   UNK N   1      34.201  19.375  -8.075  0.00  0.00    -0.293 OA
HETATM   20  C   UNK N   1      28.388  21.930  -7.152  0.00  0.00     0.007 C 
ENDROOT
BRANCH  17  21
HETATM   21  C   UNK N   1      26.121  25.661  -5.731  0.00  0.00     0.155 C 
HETATM   22  O   UNK N   1      24.948  25.493  -6.025  0.00  0.00    -0.295 OA
BRANCH  21  23
HETATM   23  C   UNK N   1      26.739  27.014  -5.941  0.00  0.00     0.257 C 
BRANCH  23  24
HETATM   24  O   UNK N   1      25.936  27.999  -5.420  0.00  0.00    -0.313 OA
BRANCH  24  25
HETATM   25  C   UNK N   1      26.099  28.503  -4.172  0.00  0.00     0.266 C 
HETATM   26  O   UNK N   1      25.437  28.071  -3.239  0.00  0.00    -0.264 OA
BRANCH  25  27
HETATM   27  C   UNK N   1      27.085  29.620  -3.941  0.00  0.00     0.037 C 
HETATM   28  C   UNK N   1      28.088  29.212  -2.881  0.00  0.00     0.025 C 
HETATM   29  C   UNK N   1      27.840  29.969  -5.213  0.00  0.00     0.025 C 
HETATM   30  C   UNK N   1      26.342  30.859  -3.474  0.00  0.00     0.025 C 
ENDBRANCH  25  27
ENDBRANCH  24  25
ENDBRANCH  23  24
ENDBRANCH  21  23
ENDBRANCH  17  21
TORSDOF 5
ENDMDL
