REMARK  16 active torsions:
REMARK  status: ('A' for Active; 'I' for Inactive)
REMARK    1  A    between atoms: C_3  and  C_2 
REMARK    2  A    between atoms: C_4  and  C_2 
REMARK    3  A    between atoms: C_5  and  C_3 
REMARK    4  A    between atoms: C_8  and  C_4 
REMARK    5  A    between atoms: C_9  and  C_5 
REMARK    6  A    between atoms: C_10  and  C_6 
REMARK    7  A    between atoms: N_12  and  C_6 
REMARK    8  A    between atoms: N_13  and  C_7 
REMARK    9  A    between atoms: P_25  and  C_7 
REMARK   10  A    between atoms: C_11  and  C_8 
REMARK   11  A    between atoms: C_8  and  N_15 
REMARK   12  A    between atoms: C_9  and  O_17 
REMARK   13  A    between atoms: C_10  and  O_19 
REMARK   14  A    between atoms: O_21  and  C_11 
REMARK   15  A    between atoms: P_25  and  O_22 
REMARK   16  A    between atoms: P_25  and  O_23 
ROOT
HETATM    1  C   UNK N   1       1.743  -3.086   0.079  0.00  0.00     0.003 C 
ENDROOT
BRANCH   1   2
HETATM    2  C   UNK N   1       1.915  -2.306   1.379  0.00  0.00     0.008 C 
BRANCH   2   3
HETATM    3  C   UNK N   1       1.370  -0.891   1.258  0.00  0.00     0.083 C 
BRANCH   3   4
HETATM    4  C   UNK N   1      -0.059  -0.903   0.828  0.00  0.00     0.111 C 
HETATM    5  N   UNK N   1      -0.358  -0.448  -0.342  0.00  0.00    -0.359 N 
ATOM      6  HN  UNK N   1       0.409  -0.094  -0.914  1.00  0.00     0.162 HD
BRANCH   5   7
HETATM    7  C   UNK N   1      -1.690  -0.397  -0.911  0.00  0.00     0.190 C 
HETATM    8  C   UNK N   1      -2.330  -1.775  -0.972  0.00  0.00     0.045 C 
BRANCH   7   9
HETATM    9  P   UNK N   1      -2.779   0.811   0.007  0.00  0.00     0.258 P 
HETATM   10  O   UNK N   1      -3.076   0.349   1.458  0.00  0.00    -0.652 OA
BRANCH   9  11
HETATM   11  O   UNK N   1      -4.349   1.037  -0.696  0.00  0.00    -0.328 OA
HETATM   12  H   UNK N   1      -4.678   1.861  -1.089  0.00  0.00     0.220 HD
ENDBRANCH   9  11
BRANCH   9  13
HETATM   13  O   UNK N   1      -2.086   2.390   0.194  0.00  0.00    -0.328 OA
HETATM   14  H   UNK N   1      -1.127   2.496   0.298  0.00  0.00     0.220 HD
ENDBRANCH   9  13
ENDBRANCH   7   9
ENDBRANCH   5   7
BRANCH   4  15
HETATM   15  O   UNK N   1      -1.000  -1.423   1.644  0.00  0.00    -0.350 OA
ATOM     16  HO  UNK N   1      -1.910  -1.431   1.370  1.00  0.00     0.219 HD
ENDBRANCH   4  15
ENDBRANCH   3   4
ENDBRANCH   2   3
ENDBRANCH   1   2
BRANCH   1  17
HETATM   17  C   UNK N   1       2.661  -2.620  -1.057  0.00  0.00     0.036 C 
BRANCH  17  18
HETATM   18  C   UNK N   1       4.172  -2.832  -0.805  0.00  0.00     0.181 C 
BRANCH  18  19
HETATM   19  C   UNK N   1       4.828  -1.597  -0.236  0.00  0.00     0.163 C 
HETATM   20  O   UNK N   1       4.181  -0.587  -0.008  0.00  0.00    -0.648 OA
BRANCH  19  21
HETATM   21  O   UNK N   1       6.154  -1.599  -0.002  0.00  0.00    -0.775 OA
HETATM   22  H   UNK N   1       6.615  -2.399   0.160  0.00  0.00     0.167 HD
ENDBRANCH  19  21
ENDBRANCH  18  19
BRANCH  18  23
HETATM   23  N   UNK N   1       4.418  -3.957   0.082  0.00  0.00    -0.359 N 
HETATM   24  C   UNK N   1       4.034  -5.164  -0.167  0.00  0.00     0.129 C 
ATOM     25  HN  UNK N   1       4.923  -3.782   0.951  1.00  0.00     0.162 HD
BRANCH  24  26
HETATM   26  C   UNK N   1       4.294  -6.237   0.834  0.00  0.00     0.195 C 
BRANCH  26  27
HETATM   27  N   UNK N   1       5.064  -7.306   0.226  0.00  0.00    -0.423 N 
HETATM   28  H   UNK N   1       4.684  -8.150  -0.201  0.00  0.00     0.150 HD
HETATM   29  H   UNK N   1       6.079  -7.204   0.226  0.00  0.00     0.150 HD
ENDBRANCH  26  27
ENDBRANCH  24  26
BRANCH  24  30
HETATM   30  O   UNK N   1       3.370  -5.461  -1.304  0.00  0.00    -0.348 OA
HETATM   31  H   UNK N   1       2.961  -5.165  -2.093  0.00  0.00     0.219 HD
ENDBRANCH  24  30
ENDBRANCH  18  23
ENDBRANCH  17  18
ENDBRANCH   1  17
TORSDOF 16
