MODEL 1
REMARK VINA RESULT:      -4.4      0.000      0.000
REMARK  4 active torsions:
REMARK  status: ('A' for Active; 'I' for Inactive)
REMARK    1  A    between atoms: O_1  and  C_2 
REMARK    2  A    between atoms: C_2  and  C_4 
REMARK    3  A    between atoms: C_5  and  C_6 
REMARK    4  A    between atoms: C_6  and  O_7 
ROOT
HETATM    1  C   UNK N   1      22.461  12.114  11.581  0.00  0.00     0.088 C 
HETATM    2  C   UNK N   1      22.319  12.899  10.514  0.00  0.00     0.088 C 
ENDROOT
BRANCH   1   3
HETATM    3  C   UNK N   1      23.699  12.107  12.367  0.00  0.00     0.165 C 
HETATM    4  O   UNK N   1      23.664  12.032  13.587  0.00  0.00    -0.647 OA
BRANCH   3   5
HETATM    5  O   UNK N   1      24.884  12.184  11.737  0.00  0.00    -0.773 OA
HETATM    6  H   UNK N   1      25.644  11.792  12.120  0.00  0.00     0.167 HD
ENDBRANCH   3   5
ENDBRANCH   1   3
BRANCH   2   7
HETATM    7  C   UNK N   1      21.073  12.890   9.742  0.00  0.00     0.165 C 
HETATM    8  O   UNK N   1      20.030  13.217  10.278  0.00  0.00    -0.647 OA
BRANCH   7   9
HETATM    9  O   UNK N   1      21.077  12.523   8.445  0.00  0.00    -0.773 OA
HETATM   10  H   UNK N   1      20.341  12.724   7.899  0.00  0.00     0.167 HD
ENDBRANCH   7   9
ENDBRANCH   2   7
TORSDOF 4
ENDMDL
MODEL 2
REMARK VINA RESULT:      -4.4      0.094      4.231
REMARK  4 active torsions:
REMARK  status: ('A' for Active; 'I' for Inactive)
REMARK    1  A    between atoms: O_1  and  C_2 
REMARK    2  A    between atoms: C_2  and  C_4 
REMARK    3  A    between atoms: C_5  and  C_6 
REMARK    4  A    between atoms: C_6  and  O_7 
ROOT
HETATM    1  C   UNK N   1      22.305  12.937  10.507  0.00  0.00     0.088 C 
HETATM    2  C   UNK N   1      22.488  12.074  11.505  0.00  0.00     0.088 C 
ENDROOT
BRANCH   1   3
HETATM    3  C   UNK N   1      21.081  12.927   9.701  0.00  0.00     0.165 C 
HETATM    4  O   UNK N   1      21.097  12.525   8.546  0.00  0.00    -0.647 OA
BRANCH   3   5
HETATM    5  O   UNK N   1      19.930  13.364  10.239  0.00  0.00    -0.773 OA
HETATM    6  H   UNK N   1      19.269  13.740   9.690  0.00  0.00     0.167 HD
ENDBRANCH   3   5
ENDBRANCH   1   3
BRANCH   2   7
HETATM    7  C   UNK N   1      23.720  12.101  12.299  0.00  0.00     0.165 C 
HETATM    8  O   UNK N   1      23.657  12.030  13.512  0.00  0.00    -0.647 OA
BRANCH   7   9
HETATM    9  O   UNK N   1      24.919  12.205  11.693  0.00  0.00    -0.773 OA
HETATM   10  H   UNK N   1      25.060  12.868  11.044  0.00  0.00     0.167 HD
ENDBRANCH   7   9
ENDBRANCH   2   7
TORSDOF 4
ENDMDL
MODEL 3
REMARK VINA RESULT:      -4.3     12.239     13.670
REMARK  4 active torsions:
REMARK  status: ('A' for Active; 'I' for Inactive)
REMARK    1  A    between atoms: O_1  and  C_2 
REMARK    2  A    between atoms: C_2  and  C_4 
REMARK    3  A    between atoms: C_5  and  C_6 
REMARK    4  A    between atoms: C_6  and  O_7 
ROOT
HETATM    1  C   UNK N   1      34.277  17.111   9.135  0.00  0.00     0.088 C 
HETATM    2  C   UNK N   1      35.122  16.675  10.068  0.00  0.00     0.088 C 
ENDROOT
BRANCH   1   3
HETATM    3  C   UNK N   1      34.664  18.153   8.178  0.00  0.00     0.165 C 
HETATM    4  O   UNK N   1      34.403  18.036   6.989  0.00  0.00    -0.647 OA
BRANCH   3   5
HETATM    5  O   UNK N   1      35.311  19.246   8.616  0.00  0.00    -0.773 OA
HETATM    6  H   UNK N   1      35.251  19.497   9.517  0.00  0.00     0.167 HD
ENDBRANCH   3   5
ENDBRANCH   1   3
BRANCH   2   7
HETATM    7  C   UNK N   1      34.715  15.633  11.015  0.00  0.00     0.165 C 
HETATM    8  O   UNK N   1      35.533  15.162  11.782  0.00  0.00    -0.647 OA
BRANCH   7   9
HETATM    9  O   UNK N   1      33.440  15.194  11.038  0.00  0.00    -0.773 OA
HETATM   10  H   UNK N   1      32.858  15.407  10.335  0.00  0.00     0.167 HD
ENDBRANCH   7   9
ENDBRANCH   2   7
TORSDOF 4
ENDMDL
MODEL 4
REMARK VINA RESULT:      -4.2     11.009     11.861
REMARK  4 active torsions:
REMARK  status: ('A' for Active; 'I' for Inactive)
REMARK    1  A    between atoms: O_1  and  C_2 
REMARK    2  A    between atoms: C_2  and  C_4 
REMARK    3  A    between atoms: C_5  and  C_6 
REMARK    4  A    between atoms: C_6  and  O_7 
ROOT
HETATM    1  C   UNK N   1      20.268  18.381   2.098  0.00  0.00     0.088 C 
HETATM    2  C   UNK N   1      20.708  19.599   1.783  0.00  0.00     0.088 C 
ENDROOT
BRANCH   1   3
HETATM    3  C   UNK N   1      20.049  17.358   1.071  0.00  0.00     0.165 C 
HETATM    4  O   UNK N   1      20.401  17.547  -0.085  0.00  0.00    -0.647 OA
BRANCH   3   5
HETATM    5  O   UNK N   1      19.454  16.200   1.407  0.00  0.00    -0.773 OA
HETATM    6  H   UNK N   1      18.694  15.911   0.941  0.00  0.00     0.167 HD
ENDBRANCH   3   5
ENDBRANCH   1   3
BRANCH   2   7
HETATM    7  C   UNK N   1      20.921  20.608   2.825  0.00  0.00     0.165 C 
HETATM    8  O   UNK N   1      20.281  20.551   3.859  0.00  0.00    -0.647 OA
BRANCH   7   9
HETATM    9  O   UNK N   1      21.819  21.596   2.643  0.00  0.00    -0.773 OA
HETATM   10  H   UNK N   1      22.680  21.395   2.331  0.00  0.00     0.167 HD
ENDBRANCH   7   9
ENDBRANCH   2   7
TORSDOF 4
ENDMDL
MODEL 5
REMARK VINA RESULT:      -4.2     10.993     11.599
REMARK  4 active torsions:
REMARK  status: ('A' for Active; 'I' for Inactive)
REMARK    1  A    between atoms: O_1  and  C_2 
REMARK    2  A    between atoms: C_2  and  C_4 
REMARK    3  A    between atoms: C_5  and  C_6 
REMARK    4  A    between atoms: C_6  and  O_7 
ROOT
HETATM    1  C   UNK N   1      20.700  19.558   1.807  0.00  0.00     0.088 C 
HETATM    2  C   UNK N   1      20.228  18.351   2.117  0.00  0.00     0.088 C 
ENDROOT
BRANCH   1   3
HETATM    3  C   UNK N   1      20.906  20.585   2.832  0.00  0.00     0.165 C 
HETATM    4  O   UNK N   1      20.305  20.536   3.896  0.00  0.00    -0.647 OA
BRANCH   3   5
HETATM    5  O   UNK N   1      21.766  21.592   2.598  0.00  0.00    -0.773 OA
HETATM    6  H   UNK N   1      22.423  21.804   3.232  0.00  0.00     0.167 HD
ENDBRANCH   3   5
ENDBRANCH   1   3
BRANCH   2   7
HETATM    7  C   UNK N   1      20.030  17.338   1.076  0.00  0.00     0.165 C 
HETATM    8  O   UNK N   1      20.403  17.560  -0.061  0.00  0.00    -0.647 OA
BRANCH   7   9
HETATM    9  O   UNK N   1      19.437  16.164   1.372  0.00  0.00    -0.773 OA
HETATM   10  H   UNK N   1      18.632  16.154   1.854  0.00  0.00     0.167 HD
ENDBRANCH   7   9
ENDBRANCH   2   7
TORSDOF 4
ENDMDL
MODEL 6
REMARK VINA RESULT:      -4.1     11.165     12.628
REMARK  4 active torsions:
REMARK  status: ('A' for Active; 'I' for Inactive)
REMARK    1  A    between atoms: O_1  and  C_2 
REMARK    2  A    between atoms: C_2  and  C_4 
REMARK    3  A    between atoms: C_5  and  C_6 
REMARK    4  A    between atoms: C_6  and  O_7 
ROOT
HETATM    1  C   UNK N   1      33.643  15.929   8.579  0.00  0.00     0.088 C 
HETATM    2  C   UNK N   1      33.773  17.216   8.898  0.00  0.00     0.088 C 
ENDROOT
BRANCH   1   3
HETATM    3  C   UNK N   1      32.904  14.999   9.438  0.00  0.00     0.165 C 
HETATM    4  O   UNK N   1      32.253  14.085   8.953  0.00  0.00    -0.647 OA
BRANCH   3   5
HETATM    5  O   UNK N   1      32.945  15.155  10.772  0.00  0.00    -0.773 OA
HETATM    6  H   UNK N   1      32.677  14.453  11.334  0.00  0.00     0.167 HD
ENDBRANCH   3   5
ENDBRANCH   1   3
BRANCH   2   7
HETATM    7  C   UNK N   1      34.516  18.129   8.024  0.00  0.00     0.165 C 
HETATM    8  O   UNK N   1      34.486  17.969   6.818  0.00  0.00    -0.647 OA
BRANCH   7   9
HETATM    9  O   UNK N   1      35.231  19.144   8.550  0.00  0.00    -0.773 OA
HETATM   10  H   UNK N   1      36.139  19.239   8.333  0.00  0.00     0.167 HD
ENDBRANCH   7   9
ENDBRANCH   2   7
TORSDOF 4
ENDMDL
MODEL 7
REMARK VINA RESULT:      -4.0     10.970     12.399
REMARK  4 active torsions:
REMARK  status: ('A' for Active; 'I' for Inactive)
REMARK    1  A    between atoms: O_1  and  C_2 
REMARK    2  A    between atoms: C_2  and  C_4 
REMARK    3  A    between atoms: C_5  and  C_6 
REMARK    4  A    between atoms: C_6  and  O_7 
ROOT
HETATM    1  C   UNK N   1      32.055  17.565   7.854  0.00  0.00     0.088 C 
HETATM    2  C   UNK N   1      33.114  17.958   8.561  0.00  0.00     0.088 C 
ENDROOT
BRANCH   1   3
HETATM    3  C   UNK N   1      30.787  17.219   8.504  0.00  0.00     0.165 C 
HETATM    4  O   UNK N   1      29.721  17.574   8.021  0.00  0.00    -0.647 OA
BRANCH   3   5
HETATM    5  O   UNK N   1      30.799  16.505   9.642  0.00  0.00    -0.773 OA
HETATM    6  H   UNK N   1      31.538  16.551  10.217  0.00  0.00     0.167 HD
ENDBRANCH   3   5
ENDBRANCH   1   3
BRANCH   2   7
HETATM    7  C   UNK N   1      34.372  18.299   7.891  0.00  0.00     0.165 C 
HETATM    8  O   UNK N   1      34.625  17.819   6.801  0.00  0.00    -0.647 OA
BRANCH   7   9
HETATM    9  O   UNK N   1      35.249  19.141   8.475  0.00  0.00    -0.773 OA
HETATM   10  H   UNK N   1      36.132  18.864   8.630  0.00  0.00     0.167 HD
ENDBRANCH   7   9
ENDBRANCH   2   7
TORSDOF 4
ENDMDL
MODEL 8
REMARK VINA RESULT:      -3.9     10.906     11.977
REMARK  4 active torsions:
REMARK  status: ('A' for Active; 'I' for Inactive)
REMARK    1  A    between atoms: O_1  and  C_2 
REMARK    2  A    between atoms: C_2  and  C_4 
REMARK    3  A    between atoms: C_5  and  C_6 
REMARK    4  A    between atoms: C_6  and  O_7 
ROOT
HETATM    1  C   UNK N   1      33.001  17.849   8.428  0.00  0.00     0.088 C 
HETATM    2  C   UNK N   1      31.921  17.570   7.700  0.00  0.00     0.088 C 
ENDROOT
BRANCH   1   3
HETATM    3  C   UNK N   1      34.267  18.242   7.802  0.00  0.00     0.165 C 
HETATM    4  O   UNK N   1      34.613  17.755   6.735  0.00  0.00    -0.647 OA
BRANCH   3   5
HETATM    5  O   UNK N   1      35.053  19.148   8.408  0.00  0.00    -0.773 OA
HETATM    6  H   UNK N   1      35.572  19.737   7.895  0.00  0.00     0.167 HD
ENDBRANCH   3   5
ENDBRANCH   1   3
BRANCH   2   7
HETATM    7  C   UNK N   1      30.666  17.179   8.347  0.00  0.00     0.165 C 
HETATM    8  O   UNK N   1      29.672  16.991   7.670  0.00  0.00    -0.647 OA
BRANCH   7   9
HETATM    9  O   UNK N   1      30.607  17.027   9.685  0.00  0.00    -0.773 OA
HETATM   10  H   UNK N   1      31.316  16.616  10.141  0.00  0.00     0.167 HD
ENDBRANCH   7   9
ENDBRANCH   2   7
TORSDOF 4
ENDMDL
MODEL 9
REMARK VINA RESULT:      -3.9      9.420     11.159
REMARK  4 active torsions:
REMARK  status: ('A' for Active; 'I' for Inactive)
REMARK    1  A    between atoms: O_1  and  C_2 
REMARK    2  A    between atoms: C_2  and  C_4 
REMARK    3  A    between atoms: C_5  and  C_6 
REMARK    4  A    between atoms: C_6  and  O_7 
ROOT
HETATM    1  C   UNK N   1      20.786  18.838   3.120  0.00  0.00     0.088 C 
HETATM    2  C   UNK N   1      20.375  19.194   1.904  0.00  0.00     0.088 C 
ENDROOT
BRANCH   1   3
HETATM    3  C   UNK N   1      20.282  17.627   3.774  0.00  0.00     0.165 C 
HETATM    4  O   UNK N   1      21.006  16.966   4.506  0.00  0.00    -0.647 OA
BRANCH   3   5
HETATM    5  O   UNK N   1      19.012  17.241   3.566  0.00  0.00    -0.773 OA
HETATM    6  H   UNK N   1      18.320  17.874   3.592  0.00  0.00     0.167 HD
ENDBRANCH   3   5
ENDBRANCH   1   3
BRANCH   2   7
HETATM    7  C   UNK N   1      20.892  20.409   1.268  0.00  0.00     0.165 C 
HETATM    8  O   UNK N   1      21.518  21.217   1.929  0.00  0.00    -0.647 OA
BRANCH   7   9
HETATM    9  O   UNK N   1      20.678  20.636  -0.044  0.00  0.00    -0.773 OA
HETATM   10  H   UNK N   1      21.182  21.286  -0.495  0.00  0.00     0.167 HD
ENDBRANCH   7   9
ENDBRANCH   2   7
TORSDOF 4
ENDMDL
