MODEL 1
REMARK VINA RESULT:      -7.5      0.000      0.000
REMARK  0 active torsions:
REMARK  status: ('A' for Active; 'I' for Inactive)
ROOT
HETATM    1  C   UNK N   1      31.539  24.034  -3.523  0.00  0.00     0.024 C 
HETATM    2  C   UNK N   1      30.649  22.810  -3.334  0.00  0.00     0.021 C 
HETATM    3  C   UNK N   1      29.626  23.037  -2.214  0.00  0.00     0.018 C 
HETATM    4  C   UNK N   1      28.318  23.726  -2.681  0.00  0.00     0.007 C 
HETATM    5  C   UNK N   1      28.405  24.395  -4.070  0.00  0.00    -0.002 C 
HETATM    6  C   UNK N   1      27.081  25.102  -4.425  0.00  0.00     0.019 C 
HETATM    7  C   UNK N   1      27.188  26.589  -4.140  0.00  0.00     0.017 C 
HETATM    8  C   UNK N   1      25.819  27.257  -4.248  0.00  0.00     0.079 C 
HETATM    9  C   UNK N   1      25.053  26.870  -5.488  0.00  0.00     0.130 C 
HETATM   10  O   UNK N   1      24.012  27.455  -5.743  0.00  0.00    -0.298 OA
HETATM   11  C   UNK N   1      25.508  25.771  -6.412  0.00  0.00     0.112 C 
HETATM   12  C   UNK N   1      26.577  24.885  -5.840  0.00  0.00    -0.072 C 
HETATM   13  C   UNK N   1      26.999  23.854  -6.580  0.00  0.00    -0.023 C 
HETATM   14  C   UNK N   1      27.958  22.846  -6.037  0.00  0.00     0.033 C 
HETATM   15  C   UNK N   1      29.025  23.518  -5.194  0.00  0.00    -0.001 C 
HETATM   16  C   UNK N   1      29.887  22.422  -4.578  0.00  0.00     0.006 C 
HETATM   17  C   UNK N   1      30.769  21.536  -5.434  0.00  0.00     0.013 C 
HETATM   18  C   UNK N   1      31.520  20.713  -4.387  0.00  0.00     0.079 C 
HETATM   19  C   UNK N   1      31.495  21.597  -3.182  0.00  0.00     0.135 C 
HETATM   20  O   UNK N   1      32.186  21.382  -2.200  0.00  0.00    -0.297 OA
ENDROOT
TORSDOF 0
ENDMDL
MODEL 2
REMARK VINA RESULT:      -7.4     22.362     25.780
REMARK  0 active torsions:
REMARK  status: ('A' for Active; 'I' for Inactive)
ROOT
HETATM    1  C   UNK N   1      36.760  11.081  13.347  0.00  0.00     0.024 C 
HETATM    2  C   UNK N   1      35.526  11.960  13.521  0.00  0.00     0.021 C 
HETATM    3  C   UNK N   1      34.248  11.114  13.589  0.00  0.00     0.018 C 
HETATM    4  C   UNK N   1      33.899  10.606  15.012  0.00  0.00     0.007 C 
HETATM    5  C   UNK N   1      35.054  10.707  16.031  0.00  0.00    -0.002 C 
HETATM    6  C   UNK N   1      34.636  10.128  17.398  0.00  0.00     0.019 C 
HETATM    7  C   UNK N   1      35.155   8.710  17.547  0.00  0.00     0.017 C 
HETATM    8  C   UNK N   1      34.543   8.040  18.776  0.00  0.00     0.079 C 
HETATM    9  C   UNK N   1      34.583   8.898  20.016  0.00  0.00     0.130 C 
HETATM   10  O   UNK N   1      34.251   8.406  21.082  0.00  0.00    -0.298 OA
HETATM   11  C   UNK N   1      34.991  10.348  19.986  0.00  0.00     0.112 C 
HETATM   12  C   UNK N   1      35.031  10.950  18.611  0.00  0.00    -0.072 C 
HETATM   13  C   UNK N   1      35.336  12.249  18.504  0.00  0.00    -0.023 C 
HETATM   14  C   UNK N   1      35.266  12.960  17.193  0.00  0.00     0.033 C 
HETATM   15  C   UNK N   1      35.786  12.079  16.074  0.00  0.00    -0.001 C 
HETATM   16  C   UNK N   1      35.570  12.820  14.760  0.00  0.00     0.006 C 
HETATM   17  C   UNK N   1      36.322  14.097  14.441  0.00  0.00     0.013 C 
HETATM   18  C   UNK N   1      35.888  14.382  13.003  0.00  0.00     0.079 C 
HETATM   19  C   UNK N   1      35.523  13.027  12.486  0.00  0.00     0.135 C 
HETATM   20  O   UNK N   1      35.335  12.809  11.301  0.00  0.00    -0.297 OA
ENDROOT
TORSDOF 0
ENDMDL
MODEL 3
REMARK VINA RESULT:      -7.1      1.998      2.712
REMARK  0 active torsions:
REMARK  status: ('A' for Active; 'I' for Inactive)
ROOT
HETATM    1  C   UNK N   1      30.431  24.773  -3.962  0.00  0.00     0.024 C 
HETATM    2  C   UNK N   1      29.619  23.530  -3.611  0.00  0.00     0.021 C 
HETATM    3  C   UNK N   1      28.173  23.895  -3.254  0.00  0.00     0.018 C 
HETATM    4  C   UNK N   1      27.222  23.984  -4.476  0.00  0.00     0.007 C 
HETATM    5  C   UNK N   1      27.937  24.064  -5.841  0.00  0.00    -0.002 C 
HETATM    6  C   UNK N   1      26.917  24.208  -6.990  0.00  0.00     0.019 C 
HETATM    7  C   UNK N   1      26.802  25.662  -7.410  0.00  0.00     0.017 C 
HETATM    8  C   UNK N   1      25.625  25.855  -8.364  0.00  0.00     0.079 C 
HETATM    9  C   UNK N   1      25.573  24.834  -9.474  0.00  0.00     0.130 C 
HETATM   10  O   UNK N   1      24.758  24.983 -10.370  0.00  0.00    -0.298 OA
HETATM   11  C   UNK N   1      26.469  23.625  -9.506  0.00  0.00     0.112 C 
HETATM   12  C   UNK N   1      27.170  23.340  -8.209  0.00  0.00    -0.072 C 
HETATM   13  C   UNK N   1      27.946  22.252  -8.141  0.00  0.00    -0.023 C 
HETATM   14  C   UNK N   1      28.570  21.819  -6.855  0.00  0.00     0.033 C 
HETATM   15  C   UNK N   1      29.064  23.016  -6.066  0.00  0.00    -0.001 C 
HETATM   16  C   UNK N   1      29.572  22.509  -4.722  0.00  0.00     0.006 C 
HETATM   17  C   UNK N   1      30.799  21.625  -4.624  0.00  0.00     0.013 C 
HETATM   18  C   UNK N   1      30.989  21.495  -3.113  0.00  0.00     0.079 C 
HETATM   19  C   UNK N   1      30.343  22.736  -2.584  0.00  0.00     0.135 C 
HETATM   20  O   UNK N   1      30.483  23.104  -1.430  0.00  0.00    -0.297 OA
ENDROOT
TORSDOF 0
ENDMDL
MODEL 4
REMARK VINA RESULT:      -7.0     11.418     12.836
REMARK  0 active torsions:
REMARK  status: ('A' for Active; 'I' for Inactive)
ROOT
HETATM    1  C   UNK N   1      33.087  15.496   6.149  0.00  0.00     0.024 C 
HETATM    2  C   UNK N   1      32.699  16.970   6.120  0.00  0.00     0.021 C 
HETATM    3  C   UNK N   1      32.722  17.521   4.688  0.00  0.00     0.018 C 
HETATM    4  C   UNK N   1      31.397  17.315   3.909  0.00  0.00     0.007 C 
HETATM    5  C   UNK N   1      30.434  16.287   4.541  0.00  0.00    -0.002 C 
HETATM    6  C   UNK N   1      29.174  16.105   3.670  0.00  0.00     0.019 C 
HETATM    7  C   UNK N   1      29.306  14.861   2.811  0.00  0.00     0.017 C 
HETATM    8  C   UNK N   1      28.189  14.804   1.771  0.00  0.00     0.079 C 
HETATM    9  C   UNK N   1      26.819  15.079   2.339  0.00  0.00     0.130 C 
HETATM   10  O   UNK N   1      25.843  14.918   1.624  0.00  0.00    -0.298 OA
HETATM   11  C   UNK N   1      26.609  15.570   3.747  0.00  0.00     0.112 C 
HETATM   12  C   UNK N   1      27.854  16.074   4.419  0.00  0.00    -0.072 C 
HETATM   13  C   UNK N   1      27.741  16.575   5.654  0.00  0.00    -0.023 C 
HETATM   14  C   UNK N   1      28.899  17.221   6.341  0.00  0.00     0.033 C 
HETATM   15  C   UNK N   1      30.181  16.460   6.066  0.00  0.00    -0.001 C 
HETATM   16  C   UNK N   1      31.330  17.243   6.693  0.00  0.00     0.006 C 
HETATM   17  C   UNK N   1      31.451  17.398   8.195  0.00  0.00     0.013 C 
HETATM   18  C   UNK N   1      32.792  18.118   8.342  0.00  0.00     0.079 C 
HETATM   19  C   UNK N   1      33.524  17.723   7.100  0.00  0.00     0.135 C 
HETATM   20  O   UNK N   1      34.719  17.922   6.956  0.00  0.00    -0.297 OA
ENDROOT
TORSDOF 0
ENDMDL
MODEL 5
REMARK VINA RESULT:      -6.9     20.539     23.911
REMARK  0 active torsions:
REMARK  status: ('A' for Active; 'I' for Inactive)
ROOT
HETATM    1  C   UNK N   1      34.536  10.140  15.963  0.00  0.00     0.024 C 
HETATM    2  C   UNK N   1      35.753  10.861  16.533  0.00  0.00     0.021 C 
HETATM    3  C   UNK N   1      37.057  10.242  16.016  0.00  0.00     0.018 C 
HETATM    4  C   UNK N   1      37.540  10.822  14.661  0.00  0.00     0.007 C 
HETATM    5  C   UNK N   1      36.471  11.627  13.890  0.00  0.00    -0.002 C 
HETATM    6  C   UNK N   1      37.021  12.114  12.533  0.00  0.00     0.019 C 
HETATM    7  C   UNK N   1      36.560  11.190  11.420  0.00  0.00     0.017 C 
HETATM    8  C   UNK N   1      37.293  11.511  10.119  0.00  0.00     0.079 C 
HETATM    9  C   UNK N   1      37.330  12.983   9.791  0.00  0.00     0.130 C 
HETATM   10  O   UNK N   1      37.765  13.332   8.706  0.00  0.00    -0.298 OA
HETATM   11  C   UNK N   1      36.877  14.041  10.762  0.00  0.00     0.112 C 
HETATM   12  C   UNK N   1      36.703  13.553  12.172  0.00  0.00    -0.072 C 
HETATM   13  C   UNK N   1      36.350  14.445  13.105  0.00  0.00    -0.023 C 
HETATM   14  C   UNK N   1      36.289  14.076  14.551  0.00  0.00     0.033 C 
HETATM   15  C   UNK N   1      35.703  12.688  14.728  0.00  0.00    -0.001 C 
HETATM   16  C   UNK N   1      35.786  12.335  16.208  0.00  0.00     0.006 C 
HETATM   17  C   UNK N   1      34.970  13.082  17.244  0.00  0.00     0.013 C 
HETATM   18  C   UNK N   1      35.274  12.302  18.524  0.00  0.00     0.079 C 
HETATM   19  C   UNK N   1      35.636  10.944  18.013  0.00  0.00     0.135 C 
HETATM   20  O   UNK N   1      35.730   9.974  18.747  0.00  0.00    -0.297 OA
ENDROOT
TORSDOF 0
ENDMDL
MODEL 6
REMARK VINA RESULT:      -6.8     11.074     13.130
REMARK  0 active torsions:
REMARK  status: ('A' for Active; 'I' for Inactive)
ROOT
HETATM    1  C   UNK N   1      26.790  14.986   5.291  0.00  0.00     0.024 C 
HETATM    2  C   UNK N   1      26.817  16.152   4.308  0.00  0.00     0.021 C 
HETATM    3  C   UNK N   1      26.892  17.496   5.044  0.00  0.00     0.018 C 
HETATM    4  C   UNK N   1      28.334  17.951   5.386  0.00  0.00     0.007 C 
HETATM    5  C   UNK N   1      29.400  16.840   5.278  0.00  0.00    -0.002 C 
HETATM    6  C   UNK N   1      30.790  17.368   5.692  0.00  0.00     0.019 C 
HETATM    7  C   UNK N   1      31.094  16.973   7.126  0.00  0.00     0.017 C 
HETATM    8  C   UNK N   1      32.344  17.694   7.627  0.00  0.00     0.079 C 
HETATM    9  C   UNK N   1      33.502  17.642   6.662  0.00  0.00     0.130 C 
HETATM   10  O   UNK N   1      34.588  18.062   7.024  0.00  0.00    -0.298 OA
HETATM   11  C   UNK N   1      33.363  17.117   5.257  0.00  0.00     0.112 C 
HETATM   12  C   UNK N   1      31.943  16.964   4.792  0.00  0.00    -0.072 C 
HETATM   13  C   UNK N   1      31.736  16.550   3.536  0.00  0.00    -0.023 C 
HETATM   14  C   UNK N   1      30.364  16.501   2.949  0.00  0.00     0.033 C 
HETATM   15  C   UNK N   1      29.359  16.002   3.969  0.00  0.00    -0.001 C 
HETATM   16  C   UNK N   1      27.974  16.096   3.340  0.00  0.00     0.006 C 
HETATM   17  C   UNK N   1      27.582  15.229   2.161  0.00  0.00     0.013 C 
HETATM   18  C   UNK N   1      26.103  15.571   1.980  0.00  0.00     0.079 C 
HETATM   19  C   UNK N   1      25.692  16.020   3.346  0.00  0.00     0.135 C 
HETATM   20  O   UNK N   1      24.522  16.169   3.660  0.00  0.00    -0.297 OA
ENDROOT
TORSDOF 0
ENDMDL
MODEL 7
REMARK VINA RESULT:      -6.8      2.375      6.520
REMARK  0 active torsions:
REMARK  status: ('A' for Active; 'I' for Inactive)
ROOT
HETATM    1  C   UNK N   1      25.596  22.735  -6.847  0.00  0.00     0.024 C 
HETATM    2  C   UNK N   1      26.644  23.129  -7.884  0.00  0.00     0.021 C 
HETATM    3  C   UNK N   1      27.414  24.380  -7.446  0.00  0.00     0.018 C 
HETATM    4  C   UNK N   1      28.640  24.086  -6.543  0.00  0.00     0.007 C 
HETATM    5  C   UNK N   1      28.665  22.666  -5.938  0.00  0.00    -0.002 C 
HETATM    6  C   UNK N   1      29.886  22.483  -5.011  0.00  0.00     0.019 C 
HETATM    7  C   UNK N   1      29.475  22.666  -3.562  0.00  0.00     0.017 C 
HETATM    8  C   UNK N   1      30.705  22.736  -2.659  0.00  0.00     0.079 C 
HETATM    9  C   UNK N   1      31.719  21.654  -2.934  0.00  0.00     0.130 C 
HETATM   10  O   UNK N   1      32.669  21.533  -2.176  0.00  0.00    -0.298 OA
HETATM   11  C   UNK N   1      31.621  20.732  -4.121  0.00  0.00     0.112 C 
HETATM   12  C   UNK N   1      30.644  21.178  -5.170  0.00  0.00    -0.072 C 
HETATM   13  C   UNK N   1      30.536  20.439  -6.281  0.00  0.00    -0.023 C 
HETATM   14  C   UNK N   1      29.693  20.881  -7.431  0.00  0.00     0.033 C 
HETATM   15  C   UNK N   1      28.401  21.508  -6.942  0.00  0.00    -0.001 C 
HETATM   16  C   UNK N   1      27.655  22.042  -8.159  0.00  0.00     0.006 C 
HETATM   17  C   UNK N   1      27.094  21.109  -9.213  0.00  0.00     0.013 C 
HETATM   18  C   UNK N   1      26.337  22.070 -10.131  0.00  0.00     0.079 C 
HETATM   19  C   UNK N   1      26.010  23.214  -9.226  0.00  0.00     0.135 C 
HETATM   20  O   UNK N   1      25.216  24.086  -9.537  0.00  0.00    -0.297 OA
ENDROOT
TORSDOF 0
ENDMDL
MODEL 8
REMARK VINA RESULT:      -6.6      1.602      3.186
REMARK  0 active torsions:
REMARK  status: ('A' for Active; 'I' for Inactive)
ROOT
HETATM    1  C   UNK N   1      31.202  20.136  -5.852  0.00  0.00     0.024 C 
HETATM    2  C   UNK N   1      31.973  21.378  -5.416  0.00  0.00     0.021 C 
HETATM    3  C   UNK N   1      31.931  22.465  -6.497  0.00  0.00     0.018 C 
HETATM    4  C   UNK N   1      30.691  23.393  -6.414  0.00  0.00     0.007 C 
HETATM    5  C   UNK N   1      29.547  22.858  -5.527  0.00  0.00    -0.002 C 
HETATM    6  C   UNK N   1      28.337  23.815  -5.550  0.00  0.00     0.019 C 
HETATM    7  C   UNK N   1      27.288  23.309  -6.523  0.00  0.00     0.017 C 
HETATM    8  C   UNK N   1      26.206  24.365  -6.743  0.00  0.00     0.079 C 
HETATM    9  C   UNK N   1      25.690  24.978  -5.465  0.00  0.00     0.130 C 
HETATM   10  O   UNK N   1      24.727  25.726  -5.519  0.00  0.00    -0.298 OA
HETATM   11  C   UNK N   1      26.333  24.725  -4.126  0.00  0.00     0.112 C 
HETATM   12  C   UNK N   1      27.696  24.099  -4.204  0.00  0.00    -0.072 C 
HETATM   13  C   UNK N   1      28.356  23.889  -3.059  0.00  0.00    -0.023 C 
HETATM   14  C   UNK N   1      29.766  23.399  -3.051  0.00  0.00     0.033 C 
HETATM   15  C   UNK N   1      29.976  22.346  -4.122  0.00  0.00    -0.001 C 
HETATM   16  C   UNK N   1      31.458  21.987  -4.135  0.00  0.00     0.006 C 
HETATM   17  C   UNK N   1      32.109  21.282  -2.962  0.00  0.00     0.013 C 
HETATM   18  C   UNK N   1      33.522  21.019  -3.483  0.00  0.00     0.079 C 
HETATM   19  C   UNK N   1      33.335  20.987  -4.966  0.00  0.00     0.135 C 
HETATM   20  O   UNK N   1      34.200  20.583  -5.725  0.00  0.00    -0.297 OA
ENDROOT
TORSDOF 0
ENDMDL
MODEL 9
REMARK VINA RESULT:      -6.6     16.665     19.894
REMARK  0 active torsions:
REMARK  status: ('A' for Active; 'I' for Inactive)
ROOT
HETATM    1  C   UNK N   1      35.422  11.192  11.971  0.00  0.00     0.024 C 
HETATM    2  C   UNK N   1      36.691  11.985  12.266  0.00  0.00     0.021 C 
HETATM    3  C   UNK N   1      37.619  12.021  11.045  0.00  0.00     0.018 C 
HETATM    4  C   UNK N   1      37.315  13.172  10.051  0.00  0.00     0.007 C 
HETATM    5  C   UNK N   1      35.937  13.840  10.246  0.00  0.00    -0.002 C 
HETATM    6  C   UNK N   1      35.698  14.930   9.181  0.00  0.00     0.019 C 
HETATM    7  C   UNK N   1      34.833  14.384   8.059  0.00  0.00     0.017 C 
HETATM    8  C   UNK N   1      34.795  15.362   6.886  0.00  0.00     0.079 C 
HETATM    9  C   UNK N   1      34.533  16.790   7.296  0.00  0.00     0.130 C 
HETATM   10  O   UNK N   1      34.341  17.625   6.427  0.00  0.00    -0.298 OA
HETATM   11  C   UNK N   1      34.524  17.231   8.736  0.00  0.00     0.112 C 
HETATM   12  C   UNK N   1      35.114  16.234   9.692  0.00  0.00    -0.072 C 
HETATM   13  C   UNK N   1      35.190  16.574  10.984  0.00  0.00    -0.023 C 
HETATM   14  C   UNK N   1      35.884  15.702  11.978  0.00  0.00     0.033 C 
HETATM   15  C   UNK N   1      35.591  14.239  11.709  0.00  0.00    -0.001 C 
HETATM   16  C   UNK N   1      36.425  13.412  12.680  0.00  0.00     0.006 C 
HETATM   17  C   UNK N   1      36.165  13.447  14.173  0.00  0.00     0.013 C 
HETATM   18  C   UNK N   1      37.130  12.384  14.698  0.00  0.00     0.079 C 
HETATM   19  C   UNK N   1      37.313  11.482  13.519  0.00  0.00     0.135 C 
HETATM   20  O   UNK N   1      37.845  10.388  13.610  0.00  0.00    -0.297 OA
ENDROOT
TORSDOF 0
ENDMDL
