MODEL 1
REMARK VINA RESULT:      -5.7      0.000      0.000
REMARK  8 active torsions:
REMARK  status: ('A' for Active; 'I' for Inactive)
REMARK    1  A    between atoms: C_3  and  C_8 
REMARK    2  A    between atoms: C_4  and  O_10 
REMARK    3  A    between atoms: C_5  and  O_12 
REMARK    4  A    between atoms: C_6  and  N_16 
REMARK    5  A    between atoms: C_7  and  O_11 
REMARK    6  A    between atoms: O_9  and  C_8 
REMARK    7  A    between atoms: S_13  and  O_12 
REMARK    8  A    between atoms: O_15  and  S_13 
REMARK       I    between atoms: C_17  and  N_16 
ROOT
HETATM    1  O   UNK N   1      35.573  16.799   9.696  0.00  0.00    -0.349 OA
HETATM    2  C   UNK N   1      34.327  17.253   9.228  0.00  0.00     0.181 C 
HETATM    3  C   UNK N   1      35.324  16.097  10.887  0.00  0.00     0.282 C 
HETATM    4  C   UNK N   1      33.518  16.052   8.717  0.00  0.00     0.206 C 
HETATM    5  C   UNK N   1      34.668  14.748  10.557  0.00  0.00     0.170 C 
HETATM    6  C   UNK N   1      33.326  15.053   9.862  0.00  0.00     0.178 C 
ENDROOT
BRANCH   4   7
HETATM    7  O   UNK N   1      32.274  16.472   8.237  0.00  0.00    -0.253 OA
BRANCH   7   8
HETATM    8  S   UNK N   1      32.144  15.790   6.663  0.00  0.00     0.240 S 
HETATM    9  O   UNK N   1      31.492  16.710   5.620  0.00  0.00    -0.579 OA
HETATM   10  O   UNK N   1      31.392  14.451   6.646  0.00  0.00    -0.579 OA
BRANCH   8  11
HETATM   11  O   UNK N   1      30.586  16.165   7.281  0.00  0.00    -0.274 OA
HETATM   12  H   UNK N   1      29.723  16.395   6.902  0.00  0.00     0.234 HD
ENDBRANCH   8  11
ENDBRANCH   7   8
ENDBRANCH   4   7
BRANCH   2  13
HETATM   13  C   UNK N   1      34.549  18.262   8.114  0.00  0.00     0.199 C 
BRANCH  13  14
HETATM   14  O   UNK N   1      35.359  19.303   8.565  0.00  0.00    -0.398 OA
HETATM   15  H   UNK N   1      36.072  19.668   8.017  0.00  0.00     0.209 HD
ENDBRANCH  13  14
ENDBRANCH   2  13
BRANCH   6  16
HETATM   16  O   UNK N   1      32.738  13.890   9.365  0.00  0.00    -0.391 OA
HETATM   17  H   UNK N   1      32.364  13.830   8.472  0.00  0.00     0.210 HD
ENDBRANCH   6  16
BRANCH   5  18
HETATM   18  N   UNK N   1      34.477  14.009  11.791  0.00  0.00    -0.349 N 
HETATM   19  C   UNK N   1      35.307  13.034  12.235  0.00  0.00     0.214 C 
HETATM   20  C   UNK N   1      35.027  12.372  13.538  0.00  0.00     0.117 C 
HETATM   21  O   UNK N   1      36.296  12.708  11.595  0.00  0.00    -0.274 OA
HETATM   22  H   UNK N   1      33.692  14.231  12.342  0.00  0.00     0.163 HD
ENDBRANCH   5  18
BRANCH   3  23
HETATM   23  O   UNK N   1      36.527  15.903  11.566  0.00  0.00    -0.369 OA
HETATM   24  H   UNK N   1      36.594  15.699  12.512  0.00  0.00     0.212 HD
ENDBRANCH   3  23
TORSDOF 8
ENDMDL
MODEL 2
REMARK VINA RESULT:      -5.7     11.361     13.636
REMARK  8 active torsions:
REMARK  status: ('A' for Active; 'I' for Inactive)
REMARK    1  A    between atoms: C_3  and  C_8 
REMARK    2  A    between atoms: C_4  and  O_10 
REMARK    3  A    between atoms: C_5  and  O_12 
REMARK    4  A    between atoms: C_6  and  N_16 
REMARK    5  A    between atoms: C_7  and  O_11 
REMARK    6  A    between atoms: O_9  and  C_8 
REMARK    7  A    between atoms: S_13  and  O_12 
REMARK    8  A    between atoms: O_15  and  S_13 
REMARK       I    between atoms: C_17  and  N_16 
ROOT
HETATM    1  O   UNK N   1      23.035  20.575   1.900  0.00  0.00    -0.349 OA
HETATM    2  C   UNK N   1      21.792  20.392   2.532  0.00  0.00     0.181 C 
HETATM    3  C   UNK N   1      23.990  20.708   2.922  0.00  0.00     0.282 C 
HETATM    4  C   UNK N   1      21.758  18.998   3.172  0.00  0.00     0.206 C 
HETATM    5  C   UNK N   1      24.233  19.340   3.576  0.00  0.00     0.170 C 
HETATM    6  C   UNK N   1      22.895  18.886   4.192  0.00  0.00     0.178 C 
ENDROOT
BRANCH   4   7
HETATM    7  O   UNK N   1      20.529  18.782   3.803  0.00  0.00    -0.253 OA
BRANCH   7   8
HETATM    8  S   UNK N   1      20.156  17.127   3.511  0.00  0.00     0.240 S 
HETATM    9  O   UNK N   1      19.940  16.773   2.033  0.00  0.00    -0.579 OA
HETATM   10  O   UNK N   1      18.932  16.638   4.298  0.00  0.00    -0.579 OA
BRANCH   8  11
HETATM   11  O   UNK N   1      18.871  18.133   2.974  0.00  0.00    -0.274 OA
HETATM   12  H   UNK N   1      18.723  18.736   2.229  0.00  0.00     0.234 HD
ENDBRANCH   8  11
ENDBRANCH   7   8
ENDBRANCH   4   7
BRANCH   2  13
HETATM   13  C   UNK N   1      20.684  20.536   1.502  0.00  0.00     0.199 C 
BRANCH  13  14
HETATM   14  O   UNK N   1      20.586  19.374   0.737  0.00  0.00    -0.398 OA
HETATM   15  H   UNK N   1      21.126  18.592   0.929  0.00  0.00     0.209 HD
ENDBRANCH  13  14
ENDBRANCH   2  13
BRANCH   6  16
HETATM   16  O   UNK N   1      22.971  17.573   4.655  0.00  0.00    -0.391 OA
HETATM   17  H   UNK N   1      22.371  16.873   4.353  0.00  0.00     0.210 HD
ENDBRANCH   6  16
BRANCH   5  18
HETATM   18  N   UNK N   1      25.267  19.483   4.584  0.00  0.00    -0.349 N 
HETATM   19  C   UNK N   1      26.388  18.725   4.642  0.00  0.00     0.214 C 
HETATM   20  C   UNK N   1      27.398  18.991   5.703  0.00  0.00     0.117 C 
HETATM   21  O   UNK N   1      26.598  17.843   3.820  0.00  0.00    -0.274 OA
HETATM   22  H   UNK N   1      25.145  20.176   5.271  0.00  0.00     0.163 HD
ENDBRANCH   5  18
BRANCH   3  23
HETATM   23  O   UNK N   1      25.174  21.211   2.382  0.00  0.00    -0.369 OA
HETATM   24  H   UNK N   1      25.607  20.857   1.590  0.00  0.00     0.212 HD
ENDBRANCH   3  23
TORSDOF 8
ENDMDL
MODEL 3
REMARK VINA RESULT:      -5.6      1.873      3.451
REMARK  8 active torsions:
REMARK  status: ('A' for Active; 'I' for Inactive)
REMARK    1  A    between atoms: C_3  and  C_8 
REMARK    2  A    between atoms: C_4  and  O_10 
REMARK    3  A    between atoms: C_5  and  O_12 
REMARK    4  A    between atoms: C_6  and  N_16 
REMARK    5  A    between atoms: C_7  and  O_11 
REMARK    6  A    between atoms: O_9  and  C_8 
REMARK    7  A    between atoms: S_13  and  O_12 
REMARK    8  A    between atoms: O_15  and  S_13 
REMARK       I    between atoms: C_17  and  N_16 
ROOT
HETATM    1  O   UNK N   1      33.905  13.296   9.731  0.00  0.00    -0.349 OA
HETATM    2  C   UNK N   1      34.403  14.156   8.736  0.00  0.00     0.181 C 
HETATM    3  C   UNK N   1      34.904  13.198  10.714  0.00  0.00     0.282 C 
HETATM    4  C   UNK N   1      34.439  15.588   9.285  0.00  0.00     0.206 C 
HETATM    5  C   UNK N   1      34.965  14.507  11.513  0.00  0.00     0.170 C 
HETATM    6  C   UNK N   1      35.341  15.628  10.523  0.00  0.00     0.178 C 
ENDROOT
BRANCH   4   7
HETATM    7  O   UNK N   1      34.924  16.471   8.315  0.00  0.00    -0.253 OA
BRANCH   7   8
HETATM    8  S   UNK N   1      33.922  17.864   8.431  0.00  0.00     0.240 S 
HETATM    9  O   UNK N   1      32.747  17.890   7.443  0.00  0.00    -0.579 OA
HETATM   10  O   UNK N   1      34.698  19.180   8.275  0.00  0.00    -0.579 OA
BRANCH   8  11
HETATM   11  O   UNK N   1      34.625  17.764   6.868  0.00  0.00    -0.274 OA
HETATM   12  H   UNK N   1      35.162  17.116   6.386  0.00  0.00     0.234 HD
ENDBRANCH   8  11
ENDBRANCH   7   8
ENDBRANCH   4   7
BRANCH   2  13
HETATM   13  C   UNK N   1      33.506  14.075   7.512  0.00  0.00     0.199 C 
BRANCH  13  14
HETATM   14  O   UNK N   1      32.357  14.840   7.708  0.00  0.00    -0.398 OA
HETATM   15  H   UNK N   1      31.659  14.892   7.037  0.00  0.00     0.209 HD
ENDBRANCH  13  14
ENDBRANCH   2  13
BRANCH   6  16
HETATM   16  O   UNK N   1      35.247  16.884  11.121  0.00  0.00    -0.391 OA
HETATM   17  H   UNK N   1      34.970  17.678  10.638  0.00  0.00     0.210 HD
ENDBRANCH   6  16
BRANCH   5  18
HETATM   18  N   UNK N   1      35.955  14.366  12.564  0.00  0.00    -0.349 N 
HETATM   19  C   UNK N   1      35.715  13.797  13.770  0.00  0.00     0.214 C 
HETATM   20  C   UNK N   1      36.823  13.673  14.756  0.00  0.00     0.117 C 
HETATM   21  O   UNK N   1      34.609  13.358  14.052  0.00  0.00    -0.274 OA
HETATM   22  H   UNK N   1      36.861  14.707  12.389  0.00  0.00     0.163 HD
ENDBRANCH   5  18
BRANCH   3  23
HETATM   23  O   UNK N   1      34.616  12.123  11.555  0.00  0.00    -0.369 OA
HETATM   24  H   UNK N   1      34.737  11.191  11.313  0.00  0.00     0.212 HD
ENDBRANCH   3  23
TORSDOF 8
ENDMDL
MODEL 4
REMARK VINA RESULT:      -5.6      4.254      5.869
REMARK  8 active torsions:
REMARK  status: ('A' for Active; 'I' for Inactive)
REMARK    1  A    between atoms: C_3  and  C_8 
REMARK    2  A    between atoms: C_4  and  O_10 
REMARK    3  A    between atoms: C_5  and  O_12 
REMARK    4  A    between atoms: C_6  and  N_16 
REMARK    5  A    between atoms: C_7  and  O_11 
REMARK    6  A    between atoms: O_9  and  C_8 
REMARK    7  A    between atoms: S_13  and  O_12 
REMARK    8  A    between atoms: O_15  and  S_13 
REMARK       I    between atoms: C_17  and  N_16 
ROOT
HETATM    1  O   UNK N   1      30.846  18.071   8.891  0.00  0.00    -0.349 OA
HETATM    2  C   UNK N   1      29.553  17.687   8.493  0.00  0.00     0.181 C 
HETATM    3  C   UNK N   1      31.722  17.074   8.430  0.00  0.00     0.282 C 
HETATM    4  C   UNK N   1      29.431  17.848   6.971  0.00  0.00     0.206 C 
HETATM    5  C   UNK N   1      31.877  17.196   6.907  0.00  0.00     0.170 C 
HETATM    6  C   UNK N   1      30.483  16.968   6.288  0.00  0.00     0.178 C 
ENDROOT
BRANCH   4   7
HETATM    7  O   UNK N   1      28.152  17.480   6.543  0.00  0.00    -0.253 OA
BRANCH   7   8
HETATM    8  S   UNK N   1      27.523  18.873   5.753  0.00  0.00     0.240 S 
HETATM    9  O   UNK N   1      26.068  18.737   5.281  0.00  0.00    -0.579 OA
HETATM   10  O   UNK N   1      28.369  19.316   4.550  0.00  0.00    -0.579 OA
BRANCH   8  11
HETATM   11  O   UNK N   1      27.501  17.522   4.691  0.00  0.00    -0.274 OA
HETATM   12  H   UNK N   1      27.408  17.389   3.735  0.00  0.00     0.234 HD
ENDBRANCH   8  11
ENDBRANCH   7   8
ENDBRANCH   4   7
BRANCH   2  13
HETATM   13  C   UNK N   1      28.532  18.557   9.207  0.00  0.00     0.199 C 
BRANCH  13  14
HETATM   14  O   UNK N   1      27.355  17.839   9.419  0.00  0.00    -0.398 OA
HETATM   15  H   UNK N   1      27.159  17.425  10.273  0.00  0.00     0.209 HD
ENDBRANCH  13  14
ENDBRANCH   2  13
BRANCH   6  16
HETATM   16  O   UNK N   1      30.487  17.233   4.919  0.00  0.00    -0.391 OA
HETATM   17  H   UNK N   1      30.741  16.573   4.256  0.00  0.00     0.210 HD
ENDBRANCH   6  16
BRANCH   5  18
HETATM   18  N   UNK N   1      32.833  16.202   6.456  0.00  0.00    -0.349 N 
HETATM   19  C   UNK N   1      34.137  16.459   6.196  0.00  0.00     0.214 C 
HETATM   20  C   UNK N   1      35.033  15.347   5.774  0.00  0.00     0.117 C 
HETATM   21  O   UNK N   1      34.598  17.584   6.329  0.00  0.00    -0.274 OA
HETATM   22  H   UNK N   1      32.511  15.281   6.329  0.00  0.00     0.163 HD
ENDBRANCH   5  18
BRANCH   3  23
HETATM   23  O   UNK N   1      32.957  17.220   9.061  0.00  0.00    -0.369 OA
HETATM   24  H   UNK N   1      33.588  17.932   8.870  0.00  0.00     0.212 HD
ENDBRANCH   3  23
TORSDOF 8
ENDMDL
MODEL 5
REMARK VINA RESULT:      -5.5      2.823      4.833
REMARK  8 active torsions:
REMARK  status: ('A' for Active; 'I' for Inactive)
REMARK    1  A    between atoms: C_3  and  C_8 
REMARK    2  A    between atoms: C_4  and  O_10 
REMARK    3  A    between atoms: C_5  and  O_12 
REMARK    4  A    between atoms: C_6  and  N_16 
REMARK    5  A    between atoms: C_7  and  O_11 
REMARK    6  A    between atoms: O_9  and  C_8 
REMARK    7  A    between atoms: S_13  and  O_12 
REMARK    8  A    between atoms: O_15  and  S_13 
REMARK       I    between atoms: C_17  and  N_16 
ROOT
HETATM    1  O   UNK N   1      30.598  17.506   7.107  0.00  0.00    -0.349 OA
HETATM    2  C   UNK N   1      30.976  17.051   5.831  0.00  0.00     0.181 C 
HETATM    3  C   UNK N   1      31.345  16.764   8.036  0.00  0.00     0.282 C 
HETATM    4  C   UNK N   1      32.403  17.530   5.533  0.00  0.00     0.206 C 
HETATM    5  C   UNK N   1      32.804  17.242   8.016  0.00  0.00     0.170 C 
HETATM    6  C   UNK N   1      33.351  16.973   6.600  0.00  0.00     0.178 C 
ENDROOT
BRANCH   4   7
HETATM    7  O   UNK N   1      32.807  17.099   4.266  0.00  0.00    -0.253 OA
BRANCH   7   8
HETATM    8  S   UNK N   1      33.025  15.399   4.416  0.00  0.00     0.240 S 
HETATM    9  O   UNK N   1      34.347  14.871   3.837  0.00  0.00    -0.579 OA
HETATM   10  O   UNK N   1      31.880  14.587   3.792  0.00  0.00    -0.579 OA
BRANCH   8  11
HETATM   11  O   UNK N   1      33.026  15.857   2.760  0.00  0.00    -0.274 OA
HETATM   12  H   UNK N   1      32.418  16.324   2.166  0.00  0.00     0.234 HD
ENDBRANCH   8  11
ENDBRANCH   7   8
ENDBRANCH   4   7
BRANCH   2  13
HETATM   13  C   UNK N   1      30.002  17.595   4.798  0.00  0.00     0.199 C 
BRANCH  13  14
HETATM   14  O   UNK N   1      30.195  16.956   3.574  0.00  0.00    -0.398 OA
HETATM   15  H   UNK N   1      30.168  17.442   2.736  0.00  0.00     0.209 HD
ENDBRANCH  13  14
ENDBRANCH   2  13
BRANCH   6  16
HETATM   16  O   UNK N   1      34.616  17.536   6.431  0.00  0.00    -0.391 OA
HETATM   17  H   UNK N   1      35.374  17.304   6.990  0.00  0.00     0.210 HD
ENDBRANCH   6  16
BRANCH   5  18
HETATM   18  N   UNK N   1      33.547  16.512   9.026  0.00  0.00    -0.349 N 
HETATM   19  C   UNK N   1      34.678  16.964   9.620  0.00  0.00     0.214 C 
HETATM   20  C   UNK N   1      35.332  16.140  10.672  0.00  0.00     0.117 C 
HETATM   21  O   UNK N   1      35.155  18.050   9.324  0.00  0.00    -0.274 OA
HETATM   22  H   UNK N   1      33.207  15.629   9.297  0.00  0.00     0.163 HD
ENDBRANCH   5  18
BRANCH   3  23
HETATM   23  O   UNK N   1      30.793  16.930   9.307  0.00  0.00    -0.369 OA
HETATM   24  H   UNK N   1      30.119  16.346   9.690  0.00  0.00     0.212 HD
ENDBRANCH   3  23
TORSDOF 8
ENDMDL
MODEL 6
REMARK VINA RESULT:      -5.5      2.291      3.013
REMARK  8 active torsions:
REMARK  status: ('A' for Active; 'I' for Inactive)
REMARK    1  A    between atoms: C_3  and  C_8 
REMARK    2  A    between atoms: C_4  and  O_10 
REMARK    3  A    between atoms: C_5  and  O_12 
REMARK    4  A    between atoms: C_6  and  N_16 
REMARK    5  A    between atoms: C_7  and  O_11 
REMARK    6  A    between atoms: O_9  and  C_8 
REMARK    7  A    between atoms: S_13  and  O_12 
REMARK    8  A    between atoms: O_15  and  S_13 
REMARK       I    between atoms: C_17  and  N_16 
ROOT
HETATM    1  O   UNK N   1      36.792  13.239   9.136  0.00  0.00    -0.349 OA
HETATM    2  C   UNK N   1      36.238  14.386   8.541  0.00  0.00     0.181 C 
HETATM    3  C   UNK N   1      37.322  13.644  10.373  0.00  0.00     0.282 C 
HETATM    4  C   UNK N   1      34.968  14.782   9.307  0.00  0.00     0.206 C 
HETATM    5  C   UNK N   1      36.174  13.913  11.356  0.00  0.00     0.170 C 
HETATM    6  C   UNK N   1      35.332  15.063  10.769  0.00  0.00     0.178 C 
ENDROOT
BRANCH   4   7
HETATM    7  O   UNK N   1      34.387  15.918   8.734  0.00  0.00    -0.253 OA
BRANCH   7   8
HETATM    8  S   UNK N   1      32.771  15.459   8.362  0.00  0.00     0.240 S 
HETATM    9  O   UNK N   1      31.990  16.489   7.534  0.00  0.00    -0.579 OA
HETATM   10  O   UNK N   1      31.938  15.125   9.607  0.00  0.00    -0.579 OA
BRANCH   8  11
HETATM   11  O   UNK N   1      32.783  16.906   9.287  0.00  0.00    -0.274 OA
HETATM   12  H   UNK N   1      32.114  17.476   9.697  0.00  0.00     0.234 HD
ENDBRANCH   8  11
ENDBRANCH   7   8
ENDBRANCH   4   7
BRANCH   2  13
HETATM   13  C   UNK N   1      35.914  14.087   7.087  0.00  0.00     0.199 C 
BRANCH  13  14
HETATM   14  O   UNK N   1      35.873  15.270   6.351  0.00  0.00    -0.398 OA
HETATM   15  H   UNK N   1      36.450  15.414   5.584  0.00  0.00     0.209 HD
ENDBRANCH  13  14
ENDBRANCH   2  13
BRANCH   6  16
HETATM   16  O   UNK N   1      34.163  15.261  11.504  0.00  0.00    -0.391 OA
HETATM   17  H   UNK N   1      34.042  14.915  12.402  0.00  0.00     0.210 HD
ENDBRANCH   6  16
BRANCH   5  18
HETATM   18  N   UNK N   1      36.739  14.266  12.645  0.00  0.00    -0.349 N 
HETATM   19  C   UNK N   1      36.132  14.039  13.835  0.00  0.00     0.214 C 
HETATM   20  C   UNK N   1      36.828  14.412  15.096  0.00  0.00     0.117 C 
HETATM   21  O   UNK N   1      35.032  13.507  13.890  0.00  0.00    -0.274 OA
HETATM   22  H   UNK N   1      37.622  14.701  12.656  0.00  0.00     0.163 HD
ENDBRANCH   5  18
BRANCH   3  23
HETATM   23  O   UNK N   1      38.162  12.643  10.862  0.00  0.00    -0.369 OA
HETATM   24  H   UNK N   1      38.894  12.250  10.361  0.00  0.00     0.212 HD
ENDBRANCH   3  23
TORSDOF 8
ENDMDL
MODEL 7
REMARK VINA RESULT:      -5.5     11.999     14.471
REMARK  8 active torsions:
REMARK  status: ('A' for Active; 'I' for Inactive)
REMARK    1  A    between atoms: C_3  and  C_8 
REMARK    2  A    between atoms: C_4  and  O_10 
REMARK    3  A    between atoms: C_5  and  O_12 
REMARK    4  A    between atoms: C_6  and  N_16 
REMARK    5  A    between atoms: C_7  and  O_11 
REMARK    6  A    between atoms: O_9  and  C_8 
REMARK    7  A    between atoms: S_13  and  O_12 
REMARK    8  A    between atoms: O_15  and  S_13 
REMARK       I    between atoms: C_17  and  N_16 
ROOT
HETATM    1  O   UNK N   1      43.591  21.462   4.017  0.00  0.00    -0.349 OA
HETATM    2  C   UNK N   1      42.696  21.075   3.005  0.00  0.00     0.181 C 
HETATM    3  C   UNK N   1      44.726  21.981   3.374  0.00  0.00     0.282 C 
HETATM    4  C   UNK N   1      42.125  22.333   2.336  0.00  0.00     0.206 C 
HETATM    5  C   UNK N   1      44.395  23.359   2.785  0.00  0.00     0.170 C 
HETATM    6  C   UNK N   1      43.276  23.153   1.744  0.00  0.00     0.178 C 
ENDROOT
BRANCH   4   7
HETATM    7  O   UNK N   1      41.223  21.981   1.326  0.00  0.00    -0.253 OA
BRANCH   7   8
HETATM    8  S   UNK N   1      42.148  21.082   0.188  0.00  0.00     0.240 S 
HETATM    9  O   UNK N   1      42.123  21.643  -1.241  0.00  0.00    -0.579 OA
HETATM   10  O   UNK N   1      41.746  19.601   0.120  0.00  0.00    -0.579 OA
BRANCH   8  11
HETATM   11  O   UNK N   1      40.494  21.107  -0.274  0.00  0.00    -0.274 OA
HETATM   12  H   UNK N   1      39.843  20.452  -0.569  0.00  0.00     0.234 HD
ENDBRANCH   8  11
ENDBRANCH   7   8
ENDBRANCH   4   7
BRANCH   2  13
HETATM   13  C   UNK N   1      41.581  20.241   3.616  0.00  0.00     0.199 C 
BRANCH  13  14
HETATM   14  O   UNK N   1      41.658  18.928   3.155  0.00  0.00    -0.398 OA
HETATM   15  H   UNK N   1      41.373  18.179   3.702  0.00  0.00     0.209 HD
ENDBRANCH  13  14
ENDBRANCH   2  13
BRANCH   6  16
HETATM   16  O   UNK N   1      42.782  24.372   1.281  0.00  0.00    -0.391 OA
HETATM   17  H   UNK N   1      43.298  25.193   1.310  0.00  0.00     0.210 HD
ENDBRANCH   6  16
BRANCH   5  18
HETATM   18  N   UNK N   1      45.594  23.909   2.181  0.00  0.00    -0.349 N 
HETATM   19  C   UNK N   1      45.924  25.223   2.194  0.00  0.00     0.214 C 
HETATM   20  C   UNK N   1      47.203  25.663   1.573  0.00  0.00     0.117 C 
HETATM   21  O   UNK N   1      45.202  26.050   2.732  0.00  0.00    -0.274 OA
HETATM   22  H   UNK N   1      46.208  23.285   1.730  0.00  0.00     0.163 HD
ENDBRANCH   5  18
BRANCH   3  23
HETATM   23  O   UNK N   1      45.771  22.080   4.293  0.00  0.00    -0.369 OA
HETATM   24  H   UNK N   1      46.243  21.320   4.668  0.00  0.00     0.212 HD
ENDBRANCH   3  23
TORSDOF 8
ENDMDL
MODEL 8
REMARK VINA RESULT:      -5.3     11.738     13.762
REMARK  8 active torsions:
REMARK  status: ('A' for Active; 'I' for Inactive)
REMARK    1  A    between atoms: C_3  and  C_8 
REMARK    2  A    between atoms: C_4  and  O_10 
REMARK    3  A    between atoms: C_5  and  O_12 
REMARK    4  A    between atoms: C_6  and  N_16 
REMARK    5  A    between atoms: C_7  and  O_11 
REMARK    6  A    between atoms: O_9  and  C_8 
REMARK    7  A    between atoms: S_13  and  O_12 
REMARK    8  A    between atoms: O_15  and  S_13 
REMARK       I    between atoms: C_17  and  N_16 
ROOT
HETATM    1  O   UNK N   1      43.134  18.970   3.301  0.00  0.00    -0.349 OA
HETATM    2  C   UNK N   1      42.637  20.240   2.958  0.00  0.00     0.181 C 
HETATM    3  C   UNK N   1      44.425  18.883   2.755  0.00  0.00     0.282 C 
HETATM    4  C   UNK N   1      43.388  21.306   3.768  0.00  0.00     0.206 C 
HETATM    5  C   UNK N   1      45.384  19.762   3.570  0.00  0.00     0.170 C 
HETATM    6  C   UNK N   1      44.884  21.215   3.450  0.00  0.00     0.178 C 
ENDROOT
BRANCH   4   7
HETATM    7  O   UNK N   1      42.910  22.582   3.455  0.00  0.00    -0.253 OA
BRANCH   7   8
HETATM    8  S   UNK N   1      43.531  22.924   1.887  0.00  0.00     0.240 S 
HETATM    9  O   UNK N   1      44.003  24.371   1.688  0.00  0.00    -0.579 OA
HETATM   10  O   UNK N   1      42.539  22.593   0.762  0.00  0.00    -0.579 OA
BRANCH   8  11
HETATM   11  O   UNK N   1      42.163  23.910   2.216  0.00  0.00    -0.274 OA
HETATM   12  H   UNK N   1      41.541  24.014   2.952  0.00  0.00     0.234 HD
ENDBRANCH   8  11
ENDBRANCH   7   8
ENDBRANCH   4   7
BRANCH   2  13
HETATM   13  C   UNK N   1      41.147  20.291   3.259  0.00  0.00     0.199 C 
BRANCH  13  14
HETATM   14  O   UNK N   1      40.541  21.298   2.508  0.00  0.00    -0.398 OA
HETATM   15  H   UNK N   1      39.954  21.094   1.763  0.00  0.00     0.209 HD
ENDBRANCH  13  14
ENDBRANCH   2  13
BRANCH   6  16
HETATM   16  O   UNK N   1      45.588  22.066   4.301  0.00  0.00    -0.391 OA
HETATM   17  H   UNK N   1      45.280  22.290   5.193  0.00  0.00     0.210 HD
ENDBRANCH   6  16
BRANCH   5  18
HETATM   18  N   UNK N   1      46.724  19.610   3.034  0.00  0.00    -0.349 N 
HETATM   19  C   UNK N   1      47.693  18.851   3.599  0.00  0.00     0.214 C 
HETATM   20  C   UNK N   1      49.020  18.742   2.934  0.00  0.00     0.117 C 
HETATM   21  O   UNK N   1      47.486  18.231   4.633  0.00  0.00    -0.274 OA
HETATM   22  H   UNK N   1      46.943  20.093   2.204  0.00  0.00     0.163 HD
ENDBRANCH   5  18
BRANCH   3  23
HETATM   23  O   UNK N   1      44.843  17.552   2.775  0.00  0.00    -0.369 OA
HETATM   24  H   UNK N   1      45.140  17.061   1.993  0.00  0.00     0.212 HD
ENDBRANCH   3  23
TORSDOF 8
ENDMDL
MODEL 9
REMARK VINA RESULT:      -5.3      2.561      5.777
REMARK  8 active torsions:
REMARK  status: ('A' for Active; 'I' for Inactive)
REMARK    1  A    between atoms: C_3  and  C_8 
REMARK    2  A    between atoms: C_4  and  O_10 
REMARK    3  A    between atoms: C_5  and  O_12 
REMARK    4  A    between atoms: C_6  and  N_16 
REMARK    5  A    between atoms: C_7  and  O_11 
REMARK    6  A    between atoms: O_9  and  C_8 
REMARK    7  A    between atoms: S_13  and  O_12 
REMARK    8  A    between atoms: O_15  and  S_13 
REMARK       I    between atoms: C_17  and  N_16 
ROOT
HETATM    1  O   UNK N   1      35.615  16.024  11.909  0.00  0.00    -0.349 OA
HETATM    2  C   UNK N   1      35.970  14.673  12.070  0.00  0.00     0.181 C 
HETATM    3  C   UNK N   1      35.635  16.284  10.529  0.00  0.00     0.282 C 
HETATM    4  C   UNK N   1      34.816  13.792  11.573  0.00  0.00     0.206 C 
HETATM    5  C   UNK N   1      34.419  15.620   9.867  0.00  0.00     0.170 C 
HETATM    6  C   UNK N   1      34.549  14.101  10.096  0.00  0.00     0.178 C 
ENDROOT
BRANCH   4   7
HETATM    7  O   UNK N   1      35.135  12.439  11.727  0.00  0.00    -0.253 OA
BRANCH   7   8
HETATM    8  S   UNK N   1      36.303  12.110  10.508  0.00  0.00     0.240 S 
HETATM    9  O   UNK N   1      36.116  10.765   9.790  0.00  0.00    -0.579 OA
HETATM   10  O   UNK N   1      37.748  12.171  11.026  0.00  0.00    -0.579 OA
BRANCH   8  11
HETATM   11  O   UNK N   1      36.369  10.912  11.737  0.00  0.00    -0.274 OA
HETATM   12  H   UNK N   1      35.745  10.282  12.129  0.00  0.00     0.234 HD
ENDBRANCH   8  11
ENDBRANCH   7   8
ENDBRANCH   4   7
BRANCH   2  13
HETATM   13  C   UNK N   1      36.255  14.404  13.538  0.00  0.00     0.199 C 
BRANCH  13  14
HETATM   14  O   UNK N   1      37.102  13.303  13.668  0.00  0.00    -0.398 OA
HETATM   15  H   UNK N   1      36.975  12.643  14.367  0.00  0.00     0.209 HD
ENDBRANCH  13  14
ENDBRANCH   2  13
BRANCH   6  16
HETATM   16  O   UNK N   1      33.399  13.426   9.685  0.00  0.00    -0.391 OA
HETATM   17  H   UNK N   1      33.246  12.487   9.870  0.00  0.00     0.210 HD
ENDBRANCH   6  16
BRANCH   5  18
HETATM   18  N   UNK N   1      34.418  15.951   8.454  0.00  0.00    -0.349 N 
HETATM   19  C   UNK N   1      33.711  16.969   7.907  0.00  0.00     0.214 C 
HETATM   20  C   UNK N   1      33.821  17.235   6.447  0.00  0.00     0.117 C 
HETATM   21  O   UNK N   1      33.004  17.689   8.598  0.00  0.00    -0.274 OA
HETATM   22  H   UNK N   1      34.968  15.398   7.854  0.00  0.00     0.163 HD
ENDBRANCH   5  18
BRANCH   3  23
HETATM   23  O   UNK N   1      35.614  17.663  10.320  0.00  0.00    -0.369 OA
HETATM   24  H   UNK N   1      36.321  18.160   9.879  0.00  0.00     0.212 HD
ENDBRANCH   3  23
TORSDOF 8
ENDMDL
