MODEL 1
REMARK VINA RESULT:      -6.2      0.000      0.000
REMARK  7 active torsions:
REMARK  status: ('A' for Active; 'I' for Inactive)
REMARK    1  A    between atoms: C_2  and  C_1 
REMARK    2  A    between atoms: O_13  and  C_1 
REMARK    3  A    between atoms: C_3  and  O_14 
REMARK    4  A    between atoms: C_4  and  O_15 
REMARK    5  A    between atoms: C_5  and  O_16 
REMARK    6  A    between atoms: O_18  and  C_7 
REMARK    7  A    between atoms: N_12  and  N_9 
ROOT
HETATM    1  C   UNK N   1      34.507  16.966   8.568  0.00  0.00     0.180 C 
HETATM    2  C   UNK N   1      33.116  16.401   8.228  0.00  0.00     0.180 C 
HETATM    3  C   UNK N   1      33.138  14.893   8.522  0.00  0.00     0.183 C 
HETATM    4  C   UNK N   1      33.564  14.644   9.979  0.00  0.00     0.215 C 
HETATM    5  C   UNK N   1      36.163  14.746   9.807  0.00  0.00     0.304 A 
HETATM    6  C   UNK N   1      36.259  14.772  11.999  0.00  0.00     0.244 A 
HETATM    7  C   UNK N   1      34.877  15.407  10.310  0.00  0.00     0.251 A 
HETATM    8  N   UNK N   1      35.127  15.323  11.756  0.00  0.00    -0.313 N 
ATOM      9  HN  UNK N   1      34.483  15.659  12.473  1.00  0.00     0.166 HD
HETATM   10  N   UNK N   1      36.929  14.409  10.842  0.00  0.00    -0.188 N 
HETATM   11  O   UNK N   1      36.478  14.546   8.645  0.00  0.00    -0.265 OA
HETATM   12  O   UNK N   1      34.799  16.784   9.947  0.00  0.00    -0.340 OA
ENDROOT
BRANCH   4  13
HETATM   13  O   UNK N   1      32.550  15.090  10.835  0.00  0.00    -0.387 OA
HETATM   14  H   UNK N   1      31.998  15.028  11.630  0.00  0.00     0.210 HD
ENDBRANCH   4  13
BRANCH   3  15
HETATM   15  O   UNK N   1      31.880  14.331   8.278  0.00  0.00    -0.390 OA
HETATM   16  H   UNK N   1      31.618  14.102   7.373  0.00  0.00     0.210 HD
ENDBRANCH   3  15
BRANCH  10  17
HETATM   17  N   UNK N   1      38.181  13.811  10.775  0.00  0.00    -0.333 N 
HETATM   18  H   UNK N   1      39.121  14.171  10.931  0.00  0.00     0.177 HD
HETATM   19  H   UNK N   1      38.153  12.823  10.521  0.00  0.00     0.177 HD
ENDBRANCH  10  17
BRANCH   6  20
HETATM   20  O   UNK N   1      36.732  14.574  13.244  0.00  0.00    -0.331 OA
HETATM   21  H   UNK N   1      36.392  14.014  13.914  0.00  0.00     0.221 HD
ENDBRANCH   6  20
BRANCH   1  22
HETATM   22  C   UNK N   1      34.593  18.455   8.252  0.00  0.00     0.198 C 
BRANCH  22  23
HETATM   23  O   UNK N   1      35.585  19.063   9.026  0.00  0.00    -0.398 OA
HETATM   24  H   UNK N   1      36.145  18.772   9.762  0.00  0.00     0.209 HD
ENDBRANCH  22  23
ENDBRANCH   1  22
BRANCH   2  25
HETATM   25  O   UNK N   1      32.138  17.046   8.995  0.00  0.00    -0.390 OA
HETATM   26  H   UNK N   1      31.770  17.473   9.784  0.00  0.00     0.210 HD
ENDBRANCH   2  25
TORSDOF 7
ENDMDL
MODEL 2
REMARK VINA RESULT:      -6.0      2.359      5.200
REMARK  7 active torsions:
REMARK  status: ('A' for Active; 'I' for Inactive)
REMARK    1  A    between atoms: C_2  and  C_1 
REMARK    2  A    between atoms: O_13  and  C_1 
REMARK    3  A    between atoms: C_3  and  O_14 
REMARK    4  A    between atoms: C_4  and  O_15 
REMARK    5  A    between atoms: C_5  and  O_16 
REMARK    6  A    between atoms: O_18  and  C_7 
REMARK    7  A    between atoms: N_12  and  N_9 
ROOT
HETATM    1  C   UNK N   1      35.257  12.914  12.021  0.00  0.00     0.180 C 
HETATM    2  C   UNK N   1      36.775  13.169  11.990  0.00  0.00     0.180 C 
HETATM    3  C   UNK N   1      37.139  13.659  10.579  0.00  0.00     0.183 C 
HETATM    4  C   UNK N   1      36.300  14.897  10.216  0.00  0.00     0.215 C 
HETATM    5  C   UNK N   1      34.082  13.817   9.374  0.00  0.00     0.304 A 
HETATM    6  C   UNK N   1      33.160  15.808   9.398  0.00  0.00     0.244 A 
HETATM    7  C   UNK N   1      34.788  14.632  10.461  0.00  0.00     0.251 A 
HETATM    8  N   UNK N   1      34.052  15.895  10.315  0.00  0.00    -0.313 N 
ATOM      9  HN  UNK N   1      34.227  16.732  10.872  1.00  0.00     0.166 HD
HETATM   10  N   UNK N   1      33.137  14.559   8.800  0.00  0.00    -0.188 N 
HETATM   11  O   UNK N   1      34.314  12.662   9.056  0.00  0.00    -0.265 OA
HETATM   12  O   UNK N   1      34.543  14.116  11.768  0.00  0.00    -0.340 OA
ENDROOT
BRANCH   4  13
HETATM   13  O   UNK N   1      36.707  15.974  11.011  0.00  0.00    -0.387 OA
HETATM   14  H   UNK N   1      37.114  16.844  11.148  0.00  0.00     0.210 HD
ENDBRANCH   4  13
BRANCH   3  15
HETATM   15  O   UNK N   1      38.504  13.955  10.504  0.00  0.00    -0.390 OA
HETATM   16  H   UNK N   1      38.805  14.739  10.019  0.00  0.00     0.210 HD
ENDBRANCH   3  15
BRANCH  10  17
HETATM   17  N   UNK N   1      32.275  14.150   7.790  0.00  0.00    -0.333 N 
HETATM   18  H   UNK N   1      32.421  13.594   6.949  0.00  0.00     0.177 HD
HETATM   19  H   UNK N   1      31.313  14.466   7.916  0.00  0.00     0.177 HD
ENDBRANCH  10  17
BRANCH   6  20
HETATM   20  O   UNK N   1      32.344  16.825   9.063  0.00  0.00    -0.331 OA
HETATM   21  H   UNK N   1      31.945  17.003   8.233  0.00  0.00     0.221 HD
ENDBRANCH   6  20
BRANCH   1  22
HETATM   22  C   UNK N   1      34.815  12.370  13.375  0.00  0.00     0.198 C 
BRANCH  22  23
HETATM   23  O   UNK N   1      34.749  13.397  14.319  0.00  0.00    -0.398 OA
HETATM   24  H   UNK N   1      34.432  14.314  14.304  0.00  0.00     0.209 HD
ENDBRANCH  22  23
ENDBRANCH   1  22
BRANCH   2  25
HETATM   25  O   UNK N   1      37.120  14.122  12.955  0.00  0.00    -0.390 OA
HETATM   26  H   UNK N   1      37.413  14.988  13.280  0.00  0.00     0.210 HD
ENDBRANCH   2  25
TORSDOF 7
ENDMDL
MODEL 3
REMARK VINA RESULT:      -5.9      2.451      4.753
REMARK  7 active torsions:
REMARK  status: ('A' for Active; 'I' for Inactive)
REMARK    1  A    between atoms: C_2  and  C_1 
REMARK    2  A    between atoms: O_13  and  C_1 
REMARK    3  A    between atoms: C_3  and  O_14 
REMARK    4  A    between atoms: C_4  and  O_15 
REMARK    5  A    between atoms: C_5  and  O_16 
REMARK    6  A    between atoms: O_18  and  C_7 
REMARK    7  A    between atoms: N_12  and  N_9 
ROOT
HETATM    1  C   UNK N   1      36.995  14.596  10.192  0.00  0.00     0.180 C 
HETATM    2  C   UNK N   1      36.377  13.711  11.289  0.00  0.00     0.180 C 
HETATM    3  C   UNK N   1      35.054  14.359  11.725  0.00  0.00     0.183 C 
HETATM    4  C   UNK N   1      34.136  14.559  10.506  0.00  0.00     0.215 C 
HETATM    5  C   UNK N   1      35.025  16.805   9.523  0.00  0.00     0.304 A 
HETATM    6  C   UNK N   1      33.803  16.449   7.735  0.00  0.00     0.244 A 
HETATM    7  C   UNK N   1      34.890  15.288   9.359  0.00  0.00     0.251 A 
HETATM    8  N   UNK N   1      34.058  15.262   8.148  0.00  0.00    -0.313 N 
ATOM      9  HN  UNK N   1      33.726  14.410   7.695  1.00  0.00     0.166 HD
HETATM   10  N   UNK N   1      34.376  17.422   8.538  0.00  0.00    -0.188 N 
HETATM   11  O   UNK N   1      35.630  17.395  10.404  0.00  0.00    -0.265 OA
HETATM   12  O   UNK N   1      36.137  14.664   9.061  0.00  0.00    -0.340 OA
ENDROOT
BRANCH   4  13
HETATM   13  O   UNK N   1      33.708  13.309  10.046  0.00  0.00    -0.387 OA
HETATM   14  H   UNK N   1      33.198  12.487  10.120  0.00  0.00     0.210 HD
ENDBRANCH   4  13
BRANCH   3  15
HETATM   15  O   UNK N   1      34.419  13.570  12.690  0.00  0.00    -0.390 OA
HETATM   16  H   UNK N   1      34.004  13.986  13.461  0.00  0.00     0.210 HD
ENDBRANCH   3  15
BRANCH  10  17
HETATM   17  N   UNK N   1      34.298  18.795   8.344  0.00  0.00    -0.333 N 
HETATM   18  H   UNK N   1      34.939  19.556   8.564  0.00  0.00     0.177 HD
HETATM   19  H   UNK N   1      33.434  19.100   7.894  0.00  0.00     0.177 HD
ENDBRANCH  10  17
BRANCH   6  20
HETATM   20  O   UNK N   1      33.061  16.708   6.642  0.00  0.00    -0.331 OA
HETATM   21  H   UNK N   1      32.794  17.541   6.303  0.00  0.00     0.221 HD
ENDBRANCH   6  20
BRANCH   1  22
HETATM   22  C   UNK N   1      38.346  14.054   9.738  0.00  0.00     0.198 C 
BRANCH  22  23
HETATM   23  O   UNK N   1      38.982  13.383  10.785  0.00  0.00    -0.398 OA
HETATM   24  H   UNK N   1      39.669  12.701  10.835  0.00  0.00     0.209 HD
ENDBRANCH  22  23
ENDBRANCH   1  22
BRANCH   2  25
HETATM   25  O   UNK N   1      36.162  12.418  10.796  0.00  0.00    -0.390 OA
HETATM   26  H   UNK N   1      35.732  11.551  10.743  0.00  0.00     0.210 HD
ENDBRANCH   2  25
TORSDOF 7
ENDMDL
MODEL 4
REMARK VINA RESULT:      -5.6     13.428     14.626
REMARK  7 active torsions:
REMARK  status: ('A' for Active; 'I' for Inactive)
REMARK    1  A    between atoms: C_2  and  C_1 
REMARK    2  A    between atoms: O_13  and  C_1 
REMARK    3  A    between atoms: C_3  and  O_14 
REMARK    4  A    between atoms: C_4  and  O_15 
REMARK    5  A    between atoms: C_5  and  O_16 
REMARK    6  A    between atoms: O_18  and  C_7 
REMARK    7  A    between atoms: N_12  and  N_9 
ROOT
HETATM    1  C   UNK N   1      23.445  19.584   3.183  0.00  0.00     0.180 C 
HETATM    2  C   UNK N   1      22.452  20.366   2.305  0.00  0.00     0.180 C 
HETATM    3  C   UNK N   1      21.146  19.559   2.241  0.00  0.00     0.183 C 
HETATM    4  C   UNK N   1      20.625  19.282   3.662  0.00  0.00     0.215 C 
HETATM    5  C   UNK N   1      22.005  17.178   4.343  0.00  0.00     0.304 A 
HETATM    6  C   UNK N   1      21.284  17.430   6.400  0.00  0.00     0.244 A 
HETATM    7  C   UNK N   1      21.743  18.672   4.553  0.00  0.00     0.251 A 
HETATM    8  N   UNK N   1      21.275  18.629   5.945  0.00  0.00    -0.313 N 
ATOM      9  HN  UNK N   1      20.981  19.446   6.480  1.00  0.00     0.166 HD
HETATM   10  N   UNK N   1      21.726  16.512   5.461  0.00  0.00    -0.188 N 
HETATM   11  O   UNK N   1      22.412  16.641   3.325  0.00  0.00    -0.265 OA
HETATM   12  O   UNK N   1      22.942  19.442   4.505  0.00  0.00    -0.340 OA
ENDROOT
BRANCH   4  13
HETATM   13  O   UNK N   1      20.194  20.485   4.234  0.00  0.00    -0.387 OA
HETATM   14  H   UNK N   1      19.513  21.120   4.504  0.00  0.00     0.210 HD
ENDBRANCH   4  13
BRANCH   3  15
HETATM   15  O   UNK N   1      20.184  20.247   1.494  0.00  0.00    -0.390 OA
HETATM   16  H   UNK N   1      19.557  19.758   0.941  0.00  0.00     0.210 HD
ENDBRANCH   3  15
BRANCH  10  17
HETATM   17  N   UNK N   1      21.866  15.144   5.656  0.00  0.00    -0.333 N 
HETATM   18  H   UNK N   1      21.413  14.494   6.298  0.00  0.00     0.177 HD
HETATM   19  H   UNK N   1      22.551  14.707   5.040  0.00  0.00     0.177 HD
ENDBRANCH  10  17
BRANCH   6  20
HETATM   20  O   UNK N   1      20.903  17.112   7.651  0.00  0.00    -0.331 OA
HETATM   21  H   UNK N   1      21.130  16.353   8.154  0.00  0.00     0.221 HD
ENDBRANCH   6  20
BRANCH   1  22
HETATM   22  C   UNK N   1      24.795  20.288   3.257  0.00  0.00     0.198 C 
BRANCH  22  23
HETATM   23  O   UNK N   1      25.057  20.970   2.066  0.00  0.00    -0.398 OA
HETATM   24  H   UNK N   1      25.582  21.752   1.833  0.00  0.00     0.209 HD
ENDBRANCH  22  23
ENDBRANCH   1  22
BRANCH   2  25
HETATM   25  O   UNK N   1      22.229  21.636   2.851  0.00  0.00    -0.390 OA
HETATM   26  H   UNK N   1      22.453  22.549   3.091  0.00  0.00     0.210 HD
ENDBRANCH   2  25
TORSDOF 7
ENDMDL
MODEL 5
REMARK VINA RESULT:      -5.5      4.080      6.191
REMARK  7 active torsions:
REMARK  status: ('A' for Active; 'I' for Inactive)
REMARK    1  A    between atoms: C_2  and  C_1 
REMARK    2  A    between atoms: O_13  and  C_1 
REMARK    3  A    between atoms: C_3  and  O_14 
REMARK    4  A    between atoms: C_4  and  O_15 
REMARK    5  A    between atoms: C_5  and  O_16 
REMARK    6  A    between atoms: O_18  and  C_7 
REMARK    7  A    between atoms: N_12  and  N_9 
ROOT
HETATM    1  C   UNK N   1      32.461  15.307   6.750  0.00  0.00     0.180 C 
HETATM    2  C   UNK N   1      33.792  16.072   6.865  0.00  0.00     0.180 C 
HETATM    3  C   UNK N   1      33.464  17.569   6.978  0.00  0.00     0.183 C 
HETATM    4  C   UNK N   1      32.510  17.814   8.161  0.00  0.00     0.215 C 
HETATM    5  C   UNK N   1      30.188  17.287   7.098  0.00  0.00     0.304 A 
HETATM    6  C   UNK N   1      29.309  17.348   9.107  0.00  0.00     0.244 A 
HETATM    7  C   UNK N   1      31.280  16.866   8.085  0.00  0.00     0.251 A 
HETATM    8  N   UNK N   1      30.515  16.976   9.334  0.00  0.00    -0.313 N 
ATOM      9  HN  UNK N   1      30.894  16.781  10.261  1.00  0.00     0.166 HD
HETATM   10  N   UNK N   1      29.061  17.545   7.759  0.00  0.00    -0.188 N 
HETATM   11  O   UNK N   1      30.292  17.379   5.885  0.00  0.00    -0.265 OA
HETATM   12  O   UNK N   1      31.668  15.504   7.913  0.00  0.00    -0.340 OA
ENDROOT
BRANCH   4  13
HETATM   13  O   UNK N   1      33.194  17.576   9.358  0.00  0.00    -0.387 OA
HETATM   14  H   UNK N   1      33.690  17.858  10.143  0.00  0.00     0.210 HD
ENDBRANCH   4  13
BRANCH   3  15
HETATM   15  O   UNK N   1      34.637  18.314   7.136  0.00  0.00    -0.390 OA
HETATM   16  H   UNK N   1      34.680  19.228   6.815  0.00  0.00     0.210 HD
ENDBRANCH   3  15
BRANCH  10  17
HETATM   17  N   UNK N   1      27.852  17.930   7.196  0.00  0.00    -0.333 N 
HETATM   18  H   UNK N   1      26.893  17.620   7.354  0.00  0.00     0.177 HD
HETATM   19  H   UNK N   1      27.939  18.662   6.491  0.00  0.00     0.177 HD
ENDBRANCH  10  17
BRANCH   6  20
HETATM   20  O   UNK N   1      28.395  17.524  10.080  0.00  0.00    -0.331 OA
HETATM   21  H   UNK N   1      28.435  17.246  10.975  0.00  0.00     0.221 HD
ENDBRANCH   6  20
BRANCH   1  22
HETATM   22  C   UNK N   1      32.694  13.811   6.577  0.00  0.00     0.198 C 
BRANCH  22  23
HETATM   23  O   UNK N   1      32.655  13.163   7.814  0.00  0.00    -0.398 OA
HETATM   24  H   UNK N   1      33.186  12.467   8.233  0.00  0.00     0.209 HD
ENDBRANCH  22  23
ENDBRANCH   1  22
BRANCH   2  25
HETATM   25  O   UNK N   1      34.502  15.629   7.987  0.00  0.00    -0.390 OA
HETATM   26  H   UNK N   1      35.283  15.336   8.483  0.00  0.00     0.210 HD
ENDBRANCH   2  25
TORSDOF 7
ENDMDL
MODEL 6
REMARK VINA RESULT:      -5.5     13.262     15.107
REMARK  7 active torsions:
REMARK  status: ('A' for Active; 'I' for Inactive)
REMARK    1  A    between atoms: C_2  and  C_1 
REMARK    2  A    between atoms: O_13  and  C_1 
REMARK    3  A    between atoms: C_3  and  O_14 
REMARK    4  A    between atoms: C_4  and  O_15 
REMARK    5  A    between atoms: C_5  and  O_16 
REMARK    6  A    between atoms: O_18  and  C_7 
REMARK    7  A    between atoms: N_12  and  N_9 
ROOT
HETATM    1  C   UNK N   1      21.310  19.154   2.911  0.00  0.00     0.180 C 
HETATM    2  C   UNK N   1      20.296  18.538   1.930  0.00  0.00     0.180 C 
HETATM    3  C   UNK N   1      20.360  17.010   2.086  0.00  0.00     0.183 C 
HETATM    4  C   UNK N   1      20.113  16.618   3.553  0.00  0.00     0.215 C 
HETATM    5  C   UNK N   1      22.482  16.922   4.600  0.00  0.00     0.304 A 
HETATM    6  C   UNK N   1      21.580  16.690   6.587  0.00  0.00     0.244 A 
HETATM    7  C   UNK N   1      21.039  17.425   4.506  0.00  0.00     0.251 A 
HETATM    8  N   UNK N   1      20.621  17.185   5.894  0.00  0.00    -0.313 N 
ATOM      9  HN  UNK N   1      19.690  17.386   6.260  1.00  0.00     0.166 HD
HETATM   10  N   UNK N   1      22.736  16.517   5.843  0.00  0.00    -0.188 N 
HETATM   11  O   UNK N   1      23.306  16.887   3.700  0.00  0.00    -0.265 OA
HETATM   12  O   UNK N   1      20.971  18.827   4.252  0.00  0.00    -0.340 OA
ENDROOT
BRANCH   4  13
HETATM   13  O   UNK N   1      18.779  16.885   3.880  0.00  0.00    -0.387 OA
HETATM   14  H   UNK N   1      17.935  16.679   4.310  0.00  0.00     0.210 HD
ENDBRANCH   4  13
BRANCH   3  15
HETATM   15  O   UNK N   1      19.422  16.395   1.252  0.00  0.00    -0.390 OA
HETATM   16  H   UNK N   1      19.456  15.438   1.105  0.00  0.00     0.210 HD
ENDBRANCH   3  15
BRANCH  10  17
HETATM   17  N   UNK N   1      23.945  16.021   6.311  0.00  0.00    -0.333 N 
HETATM   18  H   UNK N   1      24.220  15.620   7.207  0.00  0.00     0.177 HD
HETATM   19  H   UNK N   1      24.702  16.066   5.629  0.00  0.00     0.177 HD
ENDBRANCH  10  17
BRANCH   6  20
HETATM   20  O   UNK N   1      21.464  16.377   7.892  0.00  0.00    -0.331 OA
HETATM   21  H   UNK N   1      21.576  15.542   8.303  0.00  0.00     0.221 HD
ENDBRANCH   6  20
BRANCH   1  22
HETATM   22  C   UNK N   1      21.352  20.672   2.784  0.00  0.00     0.198 C 
BRANCH  22  23
HETATM   23  O   UNK N   1      21.089  21.061   1.468  0.00  0.00    -0.398 OA
HETATM   24  H   UNK N   1      20.287  21.304   0.980  0.00  0.00     0.209 HD
ENDBRANCH  22  23
ENDBRANCH   1  22
BRANCH   2  25
HETATM   25  O   UNK N   1      19.009  19.015   2.210  0.00  0.00    -0.390 OA
HETATM   26  H   UNK N   1      18.061  19.148   2.055  0.00  0.00     0.210 HD
ENDBRANCH   2  25
TORSDOF 7
ENDMDL
MODEL 7
REMARK VINA RESULT:      -5.4      3.754      5.824
REMARK  7 active torsions:
REMARK  status: ('A' for Active; 'I' for Inactive)
REMARK    1  A    between atoms: C_2  and  C_1 
REMARK    2  A    between atoms: O_13  and  C_1 
REMARK    3  A    between atoms: C_3  and  O_14 
REMARK    4  A    between atoms: C_4  and  O_15 
REMARK    5  A    between atoms: C_5  and  O_16 
REMARK    6  A    between atoms: O_18  and  C_7 
REMARK    7  A    between atoms: N_12  and  N_9 
ROOT
HETATM    1  C   UNK N   1      33.757  14.635   8.043  0.00  0.00     0.180 C 
HETATM    2  C   UNK N   1      34.299  15.461   9.223  0.00  0.00     0.180 C 
HETATM    3  C   UNK N   1      34.679  16.851   8.689  0.00  0.00     0.183 C 
HETATM    4  C   UNK N   1      33.470  17.497   7.990  0.00  0.00     0.215 C 
HETATM    5  C   UNK N   1      33.593  16.440   5.609  0.00  0.00     0.304 A 
HETATM    6  C   UNK N   1      31.601  17.261   5.195  0.00  0.00     0.244 A 
HETATM    7  C   UNK N   1      32.850  16.527   6.945  0.00  0.00     0.251 A 
HETATM    8  N   UNK N   1      31.580  17.089   6.465  0.00  0.00    -0.313 N 
ATOM      9  HN  UNK N   1      30.785  17.313   7.065  1.00  0.00     0.166 HD
HETATM   10  N   UNK N   1      32.805  16.875   4.629  0.00  0.00    -0.188 N 
HETATM   11  O   UNK N   1      34.731  16.036   5.428  0.00  0.00    -0.265 OA
HETATM   12  O   UNK N   1      32.590  15.240   7.503  0.00  0.00    -0.340 OA
ENDROOT
BRANCH   4  13
HETATM   13  O   UNK N   1      32.501  17.811   8.949  0.00  0.00    -0.387 OA
HETATM   14  H   UNK N   1      31.918  18.425   9.423  0.00  0.00     0.210 HD
ENDBRANCH   4  13
BRANCH   3  15
HETATM   15  O   UNK N   1      35.134  17.666   9.730  0.00  0.00    -0.390 OA
HETATM   16  H   UNK N   1      34.951  17.425  10.651  0.00  0.00     0.210 HD
ENDBRANCH   3  15
BRANCH  10  17
HETATM   17  N   UNK N   1      33.127  16.922   3.279  0.00  0.00    -0.333 N 
HETATM   18  H   UNK N   1      33.569  17.639   2.704  0.00  0.00     0.177 HD
HETATM   19  H   UNK N   1      32.874  16.078   2.764  0.00  0.00     0.177 HD
ENDBRANCH  10  17
BRANCH   6  20
HETATM   20  O   UNK N   1      30.562  17.762   4.500  0.00  0.00    -0.331 OA
HETATM   21  H   UNK N   1      29.957  18.431   4.758  0.00  0.00     0.221 HD
ENDBRANCH   6  20
BRANCH   1  22
HETATM   22  C   UNK N   1      33.406  13.216   8.474  0.00  0.00     0.198 C 
BRANCH  22  23
HETATM   23  O   UNK N   1      32.228  13.209   9.225  0.00  0.00    -0.398 OA
HETATM   24  H   UNK N   1      31.999  13.473  10.129  0.00  0.00     0.209 HD
ENDBRANCH  22  23
ENDBRANCH   1  22
BRANCH   2  25
HETATM   25  O   UNK N   1      33.326  15.559  10.225  0.00  0.00    -0.390 OA
HETATM   26  H   UNK N   1      32.861  15.969  10.971  0.00  0.00     0.210 HD
ENDBRANCH   2  25
TORSDOF 7
ENDMDL
MODEL 8
REMARK VINA RESULT:      -5.4      6.541      8.050
REMARK  7 active torsions:
REMARK  status: ('A' for Active; 'I' for Inactive)
REMARK    1  A    between atoms: C_2  and  C_1 
REMARK    2  A    between atoms: O_13  and  C_1 
REMARK    3  A    between atoms: C_3  and  O_14 
REMARK    4  A    between atoms: C_4  and  O_15 
REMARK    5  A    between atoms: C_5  and  O_16 
REMARK    6  A    between atoms: O_18  and  C_7 
REMARK    7  A    between atoms: N_12  and  N_9 
ROOT
HETATM    1  C   UNK N   1      36.648  10.554  15.418  0.00  0.00     0.180 C 
HETATM    2  C   UNK N   1      35.624  10.365  14.285  0.00  0.00     0.180 C 
HETATM    3  C   UNK N   1      34.247  10.785  14.821  0.00  0.00     0.183 C 
HETATM    4  C   UNK N   1      34.307  12.225  15.362  0.00  0.00     0.215 C 
HETATM    5  C   UNK N   1      35.241  11.860  17.768  0.00  0.00     0.304 A 
HETATM    6  C   UNK N   1      35.527  14.029  17.934  0.00  0.00     0.244 A 
HETATM    7  C   UNK N   1      35.490  12.394  16.355  0.00  0.00     0.251 A 
HETATM    8  N   UNK N   1      35.646  13.820  16.674  0.00  0.00    -0.313 N 
ATOM      9  HN  UNK N   1      35.825  14.549  15.983  1.00  0.00     0.166 HD
HETATM   10  N   UNK N   1      35.285  12.863  18.642  0.00  0.00    -0.188 N 
HETATM   11  O   UNK N   1      35.035  10.699  18.087  0.00  0.00    -0.265 OA
HETATM   12  O   UNK N   1      36.718  11.919  15.807  0.00  0.00    -0.340 OA
ENDROOT
BRANCH   4  13
HETATM   13  O   UNK N   1      34.482  13.109  14.291  0.00  0.00    -0.387 OA
HETATM   14  H   UNK N   1      35.018  13.680  13.718  0.00  0.00     0.210 HD
ENDBRANCH   4  13
BRANCH   3  15
HETATM   15  O   UNK N   1      33.280  10.681  13.816  0.00  0.00    -0.390 OA
HETATM   16  H   UNK N   1      33.184  11.387  13.159  0.00  0.00     0.210 HD
ENDBRANCH   3  15
BRANCH  10  17
HETATM   17  N   UNK N   1      35.129  12.758  20.018  0.00  0.00    -0.333 N 
HETATM   18  H   UNK N   1      35.584  13.233  20.797  0.00  0.00     0.177 HD
HETATM   19  H   UNK N   1      34.426  12.077  20.303  0.00  0.00     0.177 HD
ENDBRANCH  10  17
BRANCH   6  20
HETATM   20  O   UNK N   1      35.629  15.249  18.494  0.00  0.00    -0.331 OA
HETATM   21  H   UNK N   1      35.424  16.082  18.115  0.00  0.00     0.221 HD
ENDBRANCH   6  20
BRANCH   1  22
HETATM   22  C   UNK N   1      38.041  10.106  14.989  0.00  0.00     0.198 C 
BRANCH  22  23
HETATM   23  O   UNK N   1      38.729  11.160  14.384  0.00  0.00    -0.398 OA
HETATM   24  H   UNK N   1      39.663  11.340  14.192  0.00  0.00     0.209 HD
ENDBRANCH  22  23
ENDBRANCH   1  22
BRANCH   2  25
HETATM   25  O   UNK N   1      35.988  11.141  13.178  0.00  0.00    -0.390 OA
HETATM   26  H   UNK N   1      36.080  11.954  12.658  0.00  0.00     0.210 HD
ENDBRANCH   2  25
TORSDOF 7
ENDMDL
MODEL 9
REMARK VINA RESULT:      -5.3      2.445      5.495
REMARK  7 active torsions:
REMARK  status: ('A' for Active; 'I' for Inactive)
REMARK    1  A    between atoms: C_2  and  C_1 
REMARK    2  A    between atoms: O_13  and  C_1 
REMARK    3  A    between atoms: C_3  and  O_14 
REMARK    4  A    between atoms: C_4  and  O_15 
REMARK    5  A    between atoms: C_5  and  O_16 
REMARK    6  A    between atoms: O_18  and  C_7 
REMARK    7  A    between atoms: N_12  and  N_9 
ROOT
HETATM    1  C   UNK N   1      35.600  12.850  12.964  0.00  0.00     0.180 C 
HETATM    2  C   UNK N   1      36.696  11.886  12.475  0.00  0.00     0.180 C 
HETATM    3  C   UNK N   1      36.806  12.036  10.950  0.00  0.00     0.183 C 
HETATM    4  C   UNK N   1      37.071  13.506  10.581  0.00  0.00     0.215 C 
HETATM    5  C   UNK N   1      34.665  14.510  10.603  0.00  0.00     0.304 A 
HETATM    6  C   UNK N   1      35.552  16.512  10.467  0.00  0.00     0.244 A 
HETATM    7  C   UNK N   1      36.041  14.444  11.271  0.00  0.00     0.251 A 
HETATM    8  N   UNK N   1      36.459  15.839  11.073  0.00  0.00    -0.313 N 
ATOM      9  HN  UNK N   1      37.353  16.222  11.380  1.00  0.00     0.166 HD
HETATM   10  N   UNK N   1      34.438  15.746  10.164  0.00  0.00    -0.188 N 
HETATM   11  O   UNK N   1      33.867  13.595  10.477  0.00  0.00    -0.265 OA
HETATM   12  O   UNK N   1      35.950  14.196  12.672  0.00  0.00    -0.340 OA
ENDROOT
BRANCH   4  13
HETATM   13  O   UNK N   1      38.359  13.858  11.000  0.00  0.00    -0.387 OA
HETATM   14  H   UNK N   1      38.986  14.371  11.533  0.00  0.00     0.210 HD
ENDBRANCH   4  13
BRANCH   3  15
HETATM   15  O   UNK N   1      37.824  11.216  10.452  0.00  0.00    -0.390 OA
HETATM   16  H   UNK N   1      38.218  11.403   9.587  0.00  0.00     0.210 HD
ENDBRANCH   3  15
BRANCH  10  17
HETATM   17  N   UNK N   1      33.286  16.191   9.529  0.00  0.00    -0.333 N 
HETATM   18  H   UNK N   1      32.305  15.934   9.630  0.00  0.00     0.177 HD
HETATM   19  H   UNK N   1      33.454  16.913   8.827  0.00  0.00     0.177 HD
ENDBRANCH  10  17
BRANCH   6  20
HETATM   20  O   UNK N   1      35.680  17.818  10.163  0.00  0.00    -0.331 OA
HETATM   21  H   UNK N   1      35.043  18.394   9.786  0.00  0.00     0.221 HD
ENDBRANCH   6  20
BRANCH   1  22
HETATM   22  C   UNK N   1      35.383  12.726  14.468  0.00  0.00     0.198 C 
BRANCH  22  23
HETATM   23  O   UNK N   1      34.079  12.307  14.742  0.00  0.00    -0.398 OA
HETATM   24  H   UNK N   1      33.394  12.586  15.370  0.00  0.00     0.209 HD
ENDBRANCH  22  23
ENDBRANCH   1  22
BRANCH   2  25
HETATM   25  O   UNK N   1      37.912  12.190  13.097  0.00  0.00    -0.390 OA
HETATM   26  H   UNK N   1      38.838  12.476  13.140  0.00  0.00     0.210 HD
ENDBRANCH   2  25
TORSDOF 7
ENDMDL
