MODEL 1
REMARK VINA RESULT:      -7.1      0.000      0.000
REMARK  2 active torsions:
REMARK  status: ('A' for Active; 'I' for Inactive)
REMARK    1  A    between atoms: C_5  and  O_22 
REMARK    2  A    between atoms: C_18  and  O_20 
ROOT
HETATM    1  C   UNK N   1      34.122  13.057  15.948  0.00  0.00     0.016 C 
HETATM    2  C   UNK N   1      35.290  12.478  16.736  0.00  0.00    -0.036 C 
HETATM    3  C   UNK N   1      35.665  13.470  17.863  0.00  0.00     0.012 C 
HETATM    4  C   UNK N   1      35.120  13.056  19.232  0.00  0.00     0.032 C 
HETATM    5  C   UNK N   1      35.669  11.680  19.642  0.00  0.00     0.118 C 
HETATM    6  C   UNK N   1      35.749  10.682  18.475  0.00  0.00     0.037 C 
HETATM    7  C   UNK N   1      34.835  11.121  17.332  0.00  0.00    -0.004 C 
HETATM    8  C   UNK N   1      34.674  10.038  16.266  0.00  0.00     0.006 C 
HETATM    9  C   UNK N   1      35.987   9.812  15.527  0.00  0.00     0.006 C 
HETATM   10  C   UNK N   1      36.482  11.092  14.854  0.00  0.00    -0.005 C 
HETATM   11  C   UNK N   1      36.552  12.281  15.847  0.00  0.00    -0.002 C 
HETATM   12  C   UNK N   1      37.043  13.577  15.149  0.00  0.00     0.007 C 
HETATM   13  C   UNK N   1      36.310  13.878  13.822  0.00  0.00     0.013 C 
HETATM   14  C   UNK N   1      36.357  12.653  12.902  0.00  0.00    -0.009 C 
HETATM   15  C   UNK N   1      35.691  11.484  13.605  0.00  0.00     0.001 C 
HETATM   16  C   UNK N   1      35.524  10.434  12.513  0.00  0.00     0.009 C 
HETATM   17  C   UNK N   1      35.410  11.249  11.212  0.00  0.00     0.038 C 
HETATM   18  C   UNK N   1      35.509  12.719  11.628  0.00  0.00     0.062 C 
HETATM   19  C   UNK N   1      36.108  13.582  10.526  0.00  0.00     0.046 C 
HETATM   20  C   UNK N   1      37.828  12.333  12.554  0.00  0.00     0.018 C 
ENDROOT
BRANCH  18  21
HETATM   21  O   UNK N   1      34.221  13.188  11.916  0.00  0.00    -0.389 OA
HETATM   22  H   UNK N   1      33.254  13.192  11.986  0.00  0.00     0.210 HD
ENDBRANCH  18  21
BRANCH   5  23
HETATM   23  O   UNK N   1      34.869  11.150  20.654  0.00  0.00    -0.396 OA
HETATM   24  H   UNK N   1      34.388  10.309  20.605  0.00  0.00     0.210 HD
ENDBRANCH   5  23
TORSDOF 2
ENDMDL
MODEL 2
REMARK VINA RESULT:      -6.9      5.002     10.016
REMARK  2 active torsions:
REMARK  status: ('A' for Active; 'I' for Inactive)
REMARK    1  A    between atoms: C_5  and  O_22 
REMARK    2  A    between atoms: C_18  and  O_20 
ROOT
HETATM    1  C   UNK N   1      31.919  15.105   8.246  0.00  0.00     0.016 C 
HETATM    2  C   UNK N   1      32.686  15.586   7.019  0.00  0.00    -0.036 C 
HETATM    3  C   UNK N   1      32.205  14.779   5.790  0.00  0.00     0.012 C 
HETATM    4  C   UNK N   1      31.212  15.551   4.917  0.00  0.00     0.032 C 
HETATM    5  C   UNK N   1      31.850  16.845   4.386  0.00  0.00     0.118 C 
HETATM    6  C   UNK N   1      32.734  17.560   5.420  0.00  0.00     0.037 C 
HETATM    7  C   UNK N   1      32.386  17.095   6.834  0.00  0.00    -0.004 C 
HETATM    8  C   UNK N   1      33.043  17.959   7.909  0.00  0.00     0.006 C 
HETATM    9  C   UNK N   1      34.555  17.774   7.900  0.00  0.00     0.006 C 
HETATM   10  C   UNK N   1      34.945  16.315   8.137  0.00  0.00    -0.005 C 
HETATM   11  C   UNK N   1      34.218  15.352   7.162  0.00  0.00    -0.002 C 
HETATM   12  C   UNK N   1      34.612  13.874   7.422  0.00  0.00     0.007 C 
HETATM   13  C   UNK N   1      34.540  13.471   8.912  0.00  0.00     0.013 C 
HETATM   14  C   UNK N   1      35.341  14.459   9.767  0.00  0.00    -0.009 C 
HETATM   15  C   UNK N   1      34.763  15.850   9.582  0.00  0.00     0.001 C 
HETATM   16  C   UNK N   1      35.419  16.678  10.681  0.00  0.00     0.009 C 
HETATM   17  C   UNK N   1      35.717  15.664  11.800  0.00  0.00     0.038 C 
HETATM   18  C   UNK N   1      35.211  14.313  11.287  0.00  0.00     0.062 C 
HETATM   19  C   UNK N   1      36.002  13.151  11.870  0.00  0.00     0.046 C 
HETATM   20  C   UNK N   1      36.827  14.409   9.347  0.00  0.00     0.018 C 
ENDROOT
BRANCH  18  21
HETATM   21  O   UNK N   1      33.867  14.172  11.655  0.00  0.00    -0.389 OA
HETATM   22  H   UNK N   1      33.046  14.308  12.153  0.00  0.00     0.210 HD
ENDBRANCH  18  21
BRANCH   5  23
HETATM   23  O   UNK N   1      30.843  17.709   3.957  0.00  0.00    -0.396 OA
HETATM   24  H   UNK N   1      30.986  18.554   3.502  0.00  0.00     0.210 HD
ENDBRANCH   5  23
TORSDOF 2
ENDMDL
MODEL 3
REMARK VINA RESULT:      -6.9     23.908     26.289
REMARK  2 active torsions:
REMARK  status: ('A' for Active; 'I' for Inactive)
REMARK    1  A    between atoms: C_5  and  O_22 
REMARK    2  A    between atoms: C_18  and  O_20 
ROOT
HETATM    1  C   UNK N   1      27.867  23.938  -3.990  0.00  0.00     0.016 C 
HETATM    2  C   UNK N   1      28.445  23.802  -5.394  0.00  0.00    -0.036 C 
HETATM    3  C   UNK N   1      29.903  23.298  -5.279  0.00  0.00     0.012 C 
HETATM    4  C   UNK N   1      30.044  21.800  -5.561  0.00  0.00     0.032 C 
HETATM    5  C   UNK N   1      29.563  21.468  -6.983  0.00  0.00     0.118 C 
HETATM    6  C   UNK N   1      28.305  22.248  -7.400  0.00  0.00     0.037 C 
HETATM    7  C   UNK N   1      27.573  22.780  -6.169  0.00  0.00    -0.004 C 
HETATM    8  C   UNK N   1      26.188  23.331  -6.508  0.00  0.00     0.006 C 
HETATM    9  C   UNK N   1      26.303  24.592  -7.354  0.00  0.00     0.006 C 
HETATM   10  C   UNK N   1      27.101  25.681  -6.637  0.00  0.00    -0.005 C 
HETATM   11  C   UNK N   1      28.478  25.164  -6.145  0.00  0.00    -0.002 C 
HETATM   12  C   UNK N   1      29.272  26.275  -5.407  0.00  0.00     0.007 C 
HETATM   13  C   UNK N   1      28.439  27.025  -4.344  0.00  0.00     0.013 C 
HETATM   14  C   UNK N   1      27.133  27.538  -4.960  0.00  0.00    -0.009 C 
HETATM   15  C   UNK N   1      26.343  26.356  -5.493  0.00  0.00     0.001 C 
HETATM   16  C   UNK N   1      24.965  26.932  -5.798  0.00  0.00     0.009 C 
HETATM   17  C   UNK N   1      24.812  28.104  -4.812  0.00  0.00     0.038 C 
HETATM   18  C   UNK N   1      26.105  28.133  -3.992  0.00  0.00     0.062 C 
HETATM   19  C   UNK N   1      26.443  29.538  -3.514  0.00  0.00     0.046 C 
HETATM   20  C   UNK N   1      27.460  28.545  -6.084  0.00  0.00     0.018 C 
ENDROOT
BRANCH  18  21
HETATM   21  O   UNK N   1      25.942  27.305  -2.875  0.00  0.00    -0.389 OA
HETATM   22  H   UNK N   1      25.947  27.026  -1.946  0.00  0.00     0.210 HD
ENDBRANCH  18  21
BRANCH   5  23
HETATM   23  O   UNK N   1      29.313  20.099  -7.074  0.00  0.00    -0.396 OA
HETATM   24  H   UNK N   1      29.220  19.600  -7.901  0.00  0.00     0.210 HD
ENDBRANCH   5  23
TORSDOF 2
ENDMDL
MODEL 4
REMARK VINA RESULT:      -6.7     25.408     26.983
REMARK  2 active torsions:
REMARK  status: ('A' for Active; 'I' for Inactive)
REMARK    1  A    between atoms: C_5  and  O_22 
REMARK    2  A    between atoms: C_18  and  O_20 
ROOT
HETATM    1  C   UNK N   1      26.679  26.938  -7.553  0.00  0.00     0.016 C 
HETATM    2  C   UNK N   1      27.076  27.029  -6.085  0.00  0.00    -0.036 C 
HETATM    3  C   UNK N   1      28.091  28.185  -5.920  0.00  0.00     0.012 C 
HETATM    4  C   UNK N   1      27.459  29.464  -5.366  0.00  0.00     0.032 C 
HETATM    5  C   UNK N   1      26.839  29.208  -3.982  0.00  0.00     0.118 C 
HETATM    6  C   UNK N   1      26.128  27.849  -3.874  0.00  0.00     0.037 C 
HETATM    7  C   UNK N   1      25.791  27.309  -5.263  0.00  0.00    -0.004 C 
HETATM    8  C   UNK N   1      24.857  26.101  -5.208  0.00  0.00     0.006 C 
HETATM    9  C   UNK N   1      25.562  24.903  -4.587  0.00  0.00     0.006 C 
HETATM   10  C   UNK N   1      26.815  24.518  -5.373  0.00  0.00    -0.005 C 
HETATM   11  C   UNK N   1      27.764  25.727  -5.585  0.00  0.00    -0.002 C 
HETATM   12  C   UNK N   1      29.025  25.325  -6.395  0.00  0.00     0.007 C 
HETATM   13  C   UNK N   1      28.705  24.515  -7.672  0.00  0.00     0.013 C 
HETATM   14  C   UNK N   1      27.812  23.317  -7.328  0.00  0.00    -0.009 C 
HETATM   15  C   UNK N   1      26.525  23.825  -6.705  0.00  0.00     0.001 C 
HETATM   16  C   UNK N   1      25.610  22.607  -6.686  0.00  0.00     0.009 C 
HETATM   17  C   UNK N   1      26.088  21.749  -7.872  0.00  0.00     0.038 C 
HETATM   18  C   UNK N   1      27.244  22.525  -8.510  0.00  0.00     0.062 C 
HETATM   19  C   UNK N   1      28.249  21.597  -9.178  0.00  0.00     0.046 C 
HETATM   20  C   UNK N   1      28.569  22.378  -6.365  0.00  0.00     0.018 C 
ENDROOT
BRANCH  18  21
HETATM   21  O   UNK N   1      26.718  23.390  -9.478  0.00  0.00    -0.389 OA
HETATM   22  H   UNK N   1      26.310  23.678 -10.309  0.00  0.00     0.210 HD
ENDBRANCH  18  21
BRANCH   5  23
HETATM   23  O   UNK N   1      25.937  30.230  -3.688  0.00  0.00    -0.396 OA
HETATM   24  H   UNK N   1      26.015  30.848  -2.943  0.00  0.00     0.210 HD
ENDBRANCH   5  23
TORSDOF 2
ENDMDL
MODEL 5
REMARK VINA RESULT:      -6.6      8.056     11.895
REMARK  2 active torsions:
REMARK  status: ('A' for Active; 'I' for Inactive)
REMARK    1  A    between atoms: C_5  and  O_22 
REMARK    2  A    between atoms: C_18  and  O_20 
ROOT
HETATM    1  C   UNK N   1      29.204  15.685   5.771  0.00  0.00     0.016 C 
HETATM    2  C   UNK N   1      29.328  17.197   5.919  0.00  0.00    -0.036 C 
HETATM    3  C   UNK N   1      28.919  17.858   4.581  0.00  0.00     0.012 C 
HETATM    4  C   UNK N   1      27.496  18.423   4.601  0.00  0.00     0.032 C 
HETATM    5  C   UNK N   1      27.353  19.493   5.696  0.00  0.00     0.118 C 
HETATM    6  C   UNK N   1      28.095  19.142   6.995  0.00  0.00     0.037 C 
HETATM    7  C   UNK N   1      28.378  17.642   7.061  0.00  0.00    -0.004 C 
HETATM    8  C   UNK N   1      28.872  17.201   8.438  0.00  0.00     0.006 C 
HETATM    9  C   UNK N   1      30.254  17.776   8.723  0.00  0.00     0.006 C 
HETATM   10  C   UNK N   1      31.274  17.337   7.672  0.00  0.00    -0.005 C 
HETATM   11  C   UNK N   1      30.788  17.635   6.230  0.00  0.00    -0.002 C 
HETATM   12  C   UNK N   1      31.827  17.173   5.173  0.00  0.00     0.007 C 
HETATM   13  C   UNK N   1      32.343  15.734   5.405  0.00  0.00     0.013 C 
HETATM   14  C   UNK N   1      32.848  15.579   6.843  0.00  0.00    -0.009 C 
HETATM   15  C   UNK N   1      31.709  15.877   7.800  0.00  0.00     0.001 C 
HETATM   16  C   UNK N   1      32.224  15.406   9.155  0.00  0.00     0.009 C 
HETATM   17  C   UNK N   1      33.217  14.279   8.819  0.00  0.00     0.038 C 
HETATM   18  C   UNK N   1      33.212  14.159   7.292  0.00  0.00     0.062 C 
HETATM   19  C   UNK N   1      34.548  13.661   6.758  0.00  0.00     0.046 C 
HETATM   20  C   UNK N   1      34.038  16.537   7.072  0.00  0.00     0.018 C 
ENDROOT
BRANCH  18  21
HETATM   21  O   UNK N   1      32.212  13.252   6.920  0.00  0.00    -0.389 OA
HETATM   22  H   UNK N   1      31.689  12.436   6.908  0.00  0.00     0.210 HD
ENDBRANCH  18  21
BRANCH   5  23
HETATM   23  O   UNK N   1      26.000  19.689   5.971  0.00  0.00    -0.396 OA
HETATM   24  H   UNK N   1      25.628  19.876   6.847  0.00  0.00     0.210 HD
ENDBRANCH   5  23
TORSDOF 2
ENDMDL
MODEL 6
REMARK VINA RESULT:      -6.6     10.627     13.676
REMARK  2 active torsions:
REMARK  status: ('A' for Active; 'I' for Inactive)
REMARK    1  A    between atoms: C_5  and  O_22 
REMARK    2  A    between atoms: C_18  and  O_20 
ROOT
HETATM    1  C   UNK N   1      27.677  17.203   7.790  0.00  0.00     0.016 C 
HETATM    2  C   UNK N   1      28.983  17.840   7.331  0.00  0.00    -0.036 C 
HETATM    3  C   UNK N   1      29.511  18.752   8.464  0.00  0.00     0.012 C 
HETATM    4  C   UNK N   1      30.633  18.107   9.279  0.00  0.00     0.032 C 
HETATM    5  C   UNK N   1      31.832  17.766   8.379  0.00  0.00     0.118 C 
HETATM    6  C   UNK N   1      31.425  17.220   7.001  0.00  0.00     0.037 C 
HETATM    7  C   UNK N   1      29.989  16.699   7.035  0.00  0.00    -0.004 C 
HETATM    8  C   UNK N   1      29.625  15.909   5.778  0.00  0.00     0.006 C 
HETATM    9  C   UNK N   1      29.580  16.825   4.562  0.00  0.00     0.006 C 
HETATM   10  C   UNK N   1      28.563  17.953   4.744  0.00  0.00    -0.005 C 
HETATM   11  C   UNK N   1      28.786  18.728   6.069  0.00  0.00    -0.002 C 
HETATM   12  C   UNK N   1      27.740  19.861   6.247  0.00  0.00     0.007 C 
HETATM   13  C   UNK N   1      26.286  19.401   5.996  0.00  0.00     0.013 C 
HETATM   14  C   UNK N   1      26.179  18.703   4.636  0.00  0.00    -0.009 C 
HETATM   15  C   UNK N   1      27.107  17.502   4.626  0.00  0.00     0.001 C 
HETATM   16  C   UNK N   1      26.704  16.726   3.377  0.00  0.00     0.009 C 
HETATM   17  C   UNK N   1      25.217  17.070   3.175  0.00  0.00     0.038 C 
HETATM   18  C   UNK N   1      24.846  18.016   4.321  0.00  0.00     0.062 C 
HETATM   19  C   UNK N   1      23.730  18.973   3.928  0.00  0.00     0.046 C 
HETATM   20  C   UNK N   1      26.546  19.704   3.519  0.00  0.00     0.018 C 
ENDROOT
BRANCH  18  21
HETATM   21  O   UNK N   1      24.417  17.248   5.410  0.00  0.00    -0.389 OA
HETATM   22  H   UNK N   1      24.252  16.463   5.956  0.00  0.00     0.210 HD
ENDBRANCH  18  21
BRANCH   5  23
HETATM   23  O   UNK N   1      32.643  16.836   9.028  0.00  0.00    -0.396 OA
HETATM   24  H   UNK N   1      33.595  16.720   8.876  0.00  0.00     0.210 HD
ENDBRANCH   5  23
TORSDOF 2
ENDMDL
MODEL 7
REMARK VINA RESULT:      -6.5      1.708      3.283
REMARK  2 active torsions:
REMARK  status: ('A' for Active; 'I' for Inactive)
REMARK    1  A    between atoms: C_5  and  O_22 
REMARK    2  A    between atoms: C_18  and  O_20 
ROOT
HETATM    1  C   UNK N   1      37.039  10.583  15.366  0.00  0.00     0.016 C 
HETATM    2  C   UNK N   1      35.808  11.393  15.758  0.00  0.00    -0.036 C 
HETATM    3  C   UNK N   1      35.099  10.675  16.930  0.00  0.00     0.012 C 
HETATM    4  C   UNK N   1      35.397  11.311  18.290  0.00  0.00     0.032 C 
HETATM    5  C   UNK N   1      34.937  12.778  18.316  0.00  0.00     0.118 C 
HETATM    6  C   UNK N   1      35.214  13.527  17.002  0.00  0.00     0.037 C 
HETATM    7  C   UNK N   1      36.286  12.803  16.189  0.00  0.00    -0.004 C 
HETATM    8  C   UNK N   1      36.785  13.638  15.010  0.00  0.00     0.006 C 
HETATM    9  C   UNK N   1      35.688  13.809  13.968  0.00  0.00     0.006 C 
HETATM   10  C   UNK N   1      35.196  12.461  13.441  0.00  0.00    -0.005 C 
HETATM   11  C   UNK N   1      34.787  11.502  14.589  0.00  0.00    -0.002 C 
HETATM   12  C   UNK N   1      34.303  10.133  14.041  0.00  0.00     0.007 C 
HETATM   13  C   UNK N   1      35.252   9.521  12.986  0.00  0.00     0.013 C 
HETATM   14  C   UNK N   1      35.536  10.539  11.876  0.00  0.00    -0.009 C 
HETATM   15  C   UNK N   1      36.175  11.771  12.490  0.00  0.00     0.001 C 
HETATM   16  C   UNK N   1      36.682  12.568  11.294  0.00  0.00     0.009 C 
HETATM   17  C   UNK N   1      36.966  11.505  10.217  0.00  0.00     0.038 C 
HETATM   18  C   UNK N   1      36.614  10.158  10.856  0.00  0.00     0.062 C 
HETATM   19  C   UNK N   1      36.158   9.141   9.820  0.00  0.00     0.046 C 
HETATM   20  C   UNK N   1      34.216  10.892  11.158  0.00  0.00     0.018 C 
ENDROOT
BRANCH  18  21
HETATM   21  O   UNK N   1      37.753   9.662  11.503  0.00  0.00    -0.389 OA
HETATM   22  H   UNK N   1      38.502   9.077  11.695  0.00  0.00     0.210 HD
ENDBRANCH  18  21
BRANCH   5  23
HETATM   23  O   UNK N   1      35.569  13.437  19.370  0.00  0.00    -0.396 OA
HETATM   24  H   UNK N   1      36.363  13.990  19.290  0.00  0.00     0.210 HD
ENDBRANCH   5  23
TORSDOF 2
ENDMDL
MODEL 8
REMARK VINA RESULT:      -6.5      6.215      9.132
REMARK  2 active torsions:
REMARK  status: ('A' for Active; 'I' for Inactive)
REMARK    1  A    between atoms: C_5  and  O_22 
REMARK    2  A    between atoms: C_18  and  O_20 
ROOT
HETATM    1  C   UNK N   1      32.908  15.357   9.276  0.00  0.00     0.016 C 
HETATM    2  C   UNK N   1      34.385  15.574   8.967  0.00  0.00    -0.036 C 
HETATM    3  C   UNK N   1      34.997  16.456  10.081  0.00  0.00     0.012 C 
HETATM    4  C   UNK N   1      35.791  15.653  11.113  0.00  0.00     0.032 C 
HETATM    5  C   UNK N   1      36.954  14.905  10.440  0.00  0.00     0.118 C 
HETATM    6  C   UNK N   1      36.588  14.311   9.071  0.00  0.00     0.037 C 
HETATM    7  C   UNK N   1      35.072  14.185   8.931  0.00  0.00    -0.004 C 
HETATM    8  C   UNK N   1      34.665  13.362   7.709  0.00  0.00     0.006 C 
HETATM    9  C   UNK N   1      35.021  14.097   6.423  0.00  0.00     0.006 C 
HETATM   10  C   UNK N   1      34.335  15.461   6.346  0.00  0.00    -0.005 C 
HETATM   11  C   UNK N   1      34.594  16.315   7.615  0.00  0.00    -0.002 C 
HETATM   12  C   UNK N   1      33.882  17.691   7.530  0.00  0.00     0.007 C 
HETATM   13  C   UNK N   1      32.400  17.592   7.101  0.00  0.00     0.013 C 
HETATM   14  C   UNK N   1      32.277  16.778   5.808  0.00  0.00    -0.009 C 
HETATM   15  C   UNK N   1      32.837  15.387   6.047  0.00  0.00     0.001 C 
HETATM   16  C   UNK N   1      32.396  14.590   4.826  0.00  0.00     0.009 C 
HETATM   17  C   UNK N   1      31.096  15.274   4.369  0.00  0.00     0.038 C 
HETATM   18  C   UNK N   1      30.857  16.421   5.355  0.00  0.00     0.062 C 
HETATM   19  C   UNK N   1      30.101  17.575   4.712  0.00  0.00     0.046 C 
HETATM   20  C   UNK N   1      33.037  17.501   4.675  0.00  0.00     0.018 C 
ENDROOT
BRANCH  18  21
HETATM   21  O   UNK N   1      30.104  15.933   6.431  0.00  0.00    -0.389 OA
HETATM   22  H   UNK N   1      29.605  15.305   6.976  0.00  0.00     0.210 HD
ENDBRANCH  18  21
BRANCH   5  23
HETATM   23  O   UNK N   1      37.395  13.888  11.286  0.00  0.00    -0.396 OA
HETATM   24  H   UNK N   1      37.979  13.158  11.027  0.00  0.00     0.210 HD
ENDBRANCH   5  23
TORSDOF 2
ENDMDL
MODEL 9
REMARK VINA RESULT:      -6.3     13.928     15.656
REMARK  2 active torsions:
REMARK  status: ('A' for Active; 'I' for Inactive)
REMARK    1  A    between atoms: C_5  and  O_22 
REMARK    2  A    between atoms: C_18  and  O_20 
ROOT
HETATM    1  C   UNK N   1      21.168  12.501   7.336  0.00  0.00     0.016 C 
HETATM    2  C   UNK N   1      21.969  13.170   8.446  0.00  0.00    -0.036 C 
HETATM    3  C   UNK N   1      21.037  13.392   9.661  0.00  0.00     0.012 C 
HETATM    4  C   UNK N   1      21.230  12.348  10.763  0.00  0.00     0.032 C 
HETATM    5  C   UNK N   1      22.674  12.377  11.292  0.00  0.00     0.118 C 
HETATM    6  C   UNK N   1      23.724  12.582  10.188  0.00  0.00     0.037 C 
HETATM    7  C   UNK N   1      23.140  12.226   8.821  0.00  0.00    -0.004 C 
HETATM    8  C   UNK N   1      24.209  12.158   7.731  0.00  0.00     0.006 C 
HETATM    9  C   UNK N   1      24.787  13.540   7.456  0.00  0.00     0.006 C 
HETATM   10  C   UNK N   1      23.703  14.526   7.019  0.00  0.00    -0.005 C 
HETATM   11  C   UNK N   1      22.514  14.562   8.014  0.00  0.00    -0.002 C 
HETATM   12  C   UNK N   1      21.416  15.557   7.553  0.00  0.00     0.007 C 
HETATM   13  C   UNK N   1      21.020  15.392   6.068  0.00  0.00     0.013 C 
HETATM   14  C   UNK N   1      22.269  15.431   5.180  0.00  0.00    -0.009 C 
HETATM   15  C   UNK N   1      23.201  14.306   5.592  0.00  0.00     0.001 C 
HETATM   16  C   UNK N   1      24.237  14.249   4.476  0.00  0.00     0.009 C 
HETATM   17  C   UNK N   1      23.492  14.767   3.233  0.00  0.00     0.038 C 
HETATM   18  C   UNK N   1      22.069  15.086   3.700  0.00  0.00     0.062 C 
HETATM   19  C   UNK N   1      21.439  16.203   2.881  0.00  0.00     0.046 C 
HETATM   20  C   UNK N   1      22.954  16.807   5.324  0.00  0.00     0.018 C 
ENDROOT
BRANCH  18  21
HETATM   21  O   UNK N   1      21.287  13.932   3.564  0.00  0.00    -0.389 OA
HETATM   22  H   UNK N   1      20.544  13.322   3.688  0.00  0.00     0.210 HD
ENDBRANCH  18  21
BRANCH   5  23
HETATM   23  O   UNK N   1      22.938  11.187  11.970  0.00  0.00    -0.396 OA
HETATM   24  H   UNK N   1      23.813  10.898  12.274  0.00  0.00     0.210 HD
ENDBRANCH   5  23
TORSDOF 2
ENDMDL
