MODEL 1
REMARK VINA RESULT:      -7.5      0.000      0.000
REMARK  21 active torsions:
REMARK  status: ('A' for Active; 'I' for Inactive)
REMARK    1  A    between atoms: C_10  and  C_5 
REMARK    2  A    between atoms: O_43  and  C_5 
REMARK    3  A    between atoms: C_11  and  C_6 
REMARK    4  A    between atoms: O_44  and  C_6 
REMARK    5  A    between atoms: C_18  and  C_9 
REMARK    6  A    between atoms: C_13  and  O_33 
REMARK    7  A    between atoms: C_15  and  O_35 
REMARK    8  A    between atoms: C_16  and  O_47 
REMARK    9  A    between atoms: N_22  and  C_17 
REMARK   10  A    between atoms: N_23  and  C_18 
REMARK   11  A    between atoms: C_20  and  N_31 
REMARK   12  A    between atoms: C_21  and  N_32 
REMARK   13  A    between atoms: P_49  and  O_37 
REMARK   14  A    between atoms: P_49  and  O_38 
REMARK   15  A    between atoms: P_50  and  O_40 
REMARK   16  A    between atoms: P_51  and  O_42 
REMARK   17  A    between atoms: P_50  and  O_43 
REMARK   18  A    between atoms: P_51  and  O_44 
REMARK   19  A    between atoms: P_49  and  O_47 
REMARK   20  A    between atoms: P_50  and  O_48 
REMARK   21  A    between atoms: P_51  and  O_48 
ROOT
HETATM    1  C   UNK N   1      33.241  12.947   6.786  0.00  0.00     0.180 C 
HETATM    2  C   UNK N   1      33.842  13.701   7.964  0.00  0.00     0.183 C 
HETATM    3  C   UNK N   1      33.299  15.087   7.680  0.00  0.00     0.214 C 
HETATM    4  C   UNK N   1      31.857  14.664   7.353  0.00  0.00     0.263 C 
HETATM    5  O   UNK N   1      33.296  13.199   9.156  0.00  0.00    -0.390 OA
HETATM    6  O   UNK N   1      31.927  13.451   6.612  0.00  0.00    -0.353 OA
HETATM    7  H   UNK N   1      32.914  12.805   9.956  0.00  0.00     0.210 HD
ENDROOT
BRANCH   1   8
HETATM    8  C   UNK N   1      34.025  13.160   5.468  0.00  0.00     0.215 C 
BRANCH   8   9
HETATM    9  O   UNK N   1      35.245  12.466   5.462  0.00  0.00    -0.294 OA
BRANCH   9  10
HETATM   10  P   UNK N   1      36.536  13.573   5.043  0.00  0.00     0.401 P 
HETATM   11  O   UNK N   1      36.838  13.475   3.520  0.00  0.00    -0.631 OA
BRANCH  10  12
HETATM   12  O   UNK N   1      36.011  15.200   5.335  0.00  0.00    -0.307 OA
HETATM   13  H   UNK N   1      36.276  16.105   5.105  0.00  0.00     0.222 HD
ENDBRANCH  10  12
BRANCH  10  14
HETATM   14  O   UNK N   1      37.973  13.213   5.998  0.00  0.00    -0.195 OA
BRANCH  14  15
HETATM   15  P   UNK N   1      37.574  12.736   7.646  0.00  0.00     0.401 P 
HETATM   16  O   UNK N   1      36.939  14.145   7.639  0.00  0.00    -0.631 OA
BRANCH  15  17
HETATM   17  O   UNK N   1      39.307  12.748   7.530  0.00  0.00    -0.307 OA
HETATM   18  H   UNK N   1      39.924  12.293   6.937  0.00  0.00     0.222 HD
ENDBRANCH  15  17
BRANCH  15  19
HETATM   19  O   UNK N   1      38.242  13.779   8.878  0.00  0.00    -0.294 OA
BRANCH  19  20
HETATM   20  C   UNK N   1      38.055  13.275  10.176  0.00  0.00     0.215 C 
BRANCH  20  21
HETATM   21  C   UNK N   1      36.781  13.658  10.934  0.00  0.00     0.180 C 
HETATM   22  C   UNK N   1      36.139  15.019  10.735  0.00  0.00     0.182 C 
HETATM   23  C   UNK N   1      35.163  14.985  11.910  0.00  0.00     0.198 C 
HETATM   24  C   UNK N   1      35.955  14.148  12.955  0.00  0.00     0.259 C 
HETATM   25  O   UNK N   1      37.100  13.647  12.295  0.00  0.00    -0.353 OA
BRANCH  22  26
HETATM   26  O   UNK N   1      37.095  16.019  10.934  0.00  0.00    -0.390 OA
HETATM   27  H   UNK N   1      37.546  16.509  11.640  0.00  0.00     0.210 HD
ENDBRANCH  22  26
BRANCH  23  28
HETATM   28  O   UNK N   1      34.006  14.302  11.516  0.00  0.00    -0.388 OA
HETATM   29  H   UNK N   1      33.483  13.549  11.198  0.00  0.00     0.210 HD
ENDBRANCH  23  28
BRANCH  24  30
HETATM   30  N   UNK N   1      35.201  12.997  13.491  0.00  0.00    -0.336 N 
HETATM   31  C   UNK N   1      34.791  12.944  14.790  0.00  0.00     0.093 A 
HETATM   32  C   UNK N   1      34.115  11.810  15.265  0.00  0.00     0.018 A 
HETATM   33  C   UNK N   1      33.841  10.748  14.392  0.00  0.00     0.017 A 
HETATM   34  C   UNK N   1      34.246  10.829  13.057  0.00  0.00     0.013 A 
HETATM   35  C   UNK N   1      34.934  11.957  12.648  0.00  0.00     0.107 A 
BRANCH  34  36
HETATM   36  C   UNK N   1      33.945   9.772  12.063  0.00  0.00     0.086 C 
HETATM   37  S   UNK N   1      34.905   8.246  12.037  0.00  0.00    -0.033 SA
BRANCH  36  38
HETATM   38  N   UNK N   1      33.045   9.955  11.170  0.00  0.00    -0.392 N 
HETATM   39  H   UNK N   1      32.932   9.392  10.372  0.00  0.00     0.156 HD
ATOM     40  HN  UNK N   1      32.402  10.738  11.297  1.00  0.00     0.156 HD
ENDBRANCH  36  38
ENDBRANCH  34  36
ENDBRANCH  24  30
ENDBRANCH  20  21
ENDBRANCH  19  20
ENDBRANCH  15  19
ENDBRANCH  14  15
ENDBRANCH  10  14
ENDBRANCH   9  10
ENDBRANCH   8   9
ENDBRANCH   1   8
BRANCH   3  41
HETATM   41  O   UNK N   1      33.312  15.985   8.774  0.00  0.00    -0.284 OA
BRANCH  41  42
HETATM   42  P   UNK N   1      34.039  17.529   8.366  0.00  0.00     0.391 P 
HETATM   43  O   UNK N   1      32.919  18.604   8.361  0.00  0.00    -0.632 OA
BRANCH  42  44
HETATM   44  O   UNK N   1      34.650  17.487   6.743  0.00  0.00    -0.307 OA
HETATM   45  H   UNK N   1      34.113  17.161   6.004  0.00  0.00     0.222 HD
ENDBRANCH  42  44
BRANCH  42  46
HETATM   46  O   UNK N   1      35.271  18.048   9.474  0.00  0.00    -0.307 OA
HETATM   47  H   UNK N   1      35.680  18.676  10.090  0.00  0.00     0.222 HD
ENDBRANCH  42  46
ENDBRANCH  41  42
ENDBRANCH   3  41
BRANCH   4  48
HETATM   48  N   UNK N   1      31.050  15.671   6.651  0.00  0.00    -0.297 N 
HETATM   49  C   UNK N   1      30.801  15.708   5.315  0.00  0.00     0.188 A 
HETATM   50  N   UNK N   1      29.920  16.700   4.997  0.00  0.00    -0.346 N 
HETATM   51  C   UNK N   1      29.633  17.280   6.176  0.00  0.00     0.122 A 
ATOM     52  HN  UNK N   1      29.560  16.946   4.075  1.00  0.00     0.167 HD
HETATM   53  C   UNK N   1      28.771  18.327   6.465  0.00  0.00     0.131 A 
HETATM   54  C   UNK N   1      30.314  16.670   7.166  0.00  0.00     0.142 A 
HETATM   55  N   UNK N   1      28.663  18.725   7.767  0.00  0.00    -0.337 N 
HETATM   56  C   UNK N   1      29.379  18.100   8.759  0.00  0.00     0.183 A 
ATOM     57  HN  UNK N   1      28.042  19.498   8.006  1.00  0.00     0.168 HD
HETATM   58  N   UNK N   1      30.206  17.049   8.461  0.00  0.00    -0.336 N 
ATOM     59  HN  UNK N   1      30.725  16.566   9.194  1.00  0.00     0.168 HD
BRANCH  53  60
HETATM   60  N   UNK N   1      28.012  18.953   5.456  0.00  0.00    -0.383 N 
HETATM   61  H   UNK N   1      28.328  19.111   4.537  0.00  0.00     0.157 HD
HETATM   62  H   UNK N   1      27.103  19.252   5.686  0.00  0.00     0.157 HD
ENDBRANCH  53  60
ENDBRANCH   4  48
TORSDOF 21
ENDMDL
MODEL 2
REMARK VINA RESULT:      -7.4     11.199     13.792
REMARK  21 active torsions:
REMARK  status: ('A' for Active; 'I' for Inactive)
REMARK    1  A    between atoms: C_10  and  C_5 
REMARK    2  A    between atoms: O_43  and  C_5 
REMARK    3  A    between atoms: C_11  and  C_6 
REMARK    4  A    between atoms: O_44  and  C_6 
REMARK    5  A    between atoms: C_18  and  C_9 
REMARK    6  A    between atoms: C_13  and  O_33 
REMARK    7  A    between atoms: C_15  and  O_35 
REMARK    8  A    between atoms: C_16  and  O_47 
REMARK    9  A    between atoms: N_22  and  C_17 
REMARK   10  A    between atoms: N_23  and  C_18 
REMARK   11  A    between atoms: C_20  and  N_31 
REMARK   12  A    between atoms: C_21  and  N_32 
REMARK   13  A    between atoms: P_49  and  O_37 
REMARK   14  A    between atoms: P_49  and  O_38 
REMARK   15  A    between atoms: P_50  and  O_40 
REMARK   16  A    between atoms: P_51  and  O_42 
REMARK   17  A    between atoms: P_50  and  O_43 
REMARK   18  A    between atoms: P_51  and  O_44 
REMARK   19  A    between atoms: P_49  and  O_47 
REMARK   20  A    between atoms: P_50  and  O_48 
REMARK   21  A    between atoms: P_51  and  O_48 
ROOT
HETATM    1  C   UNK N   1      20.724  16.325   4.771  0.00  0.00     0.180 C 
HETATM    2  C   UNK N   1      20.262  17.222   3.632  0.00  0.00     0.183 C 
HETATM    3  C   UNK N   1      21.445  18.166   3.557  0.00  0.00     0.214 C 
HETATM    4  C   UNK N   1      22.547  17.097   3.647  0.00  0.00     0.263 C 
HETATM    5  O   UNK N   1      20.171  16.460   2.456  0.00  0.00    -0.390 OA
HETATM    6  O   UNK N   1      22.113  16.115   4.581  0.00  0.00    -0.353 OA
HETATM    7  H   UNK N   1      20.097  15.892   1.673  0.00  0.00     0.210 HD
ENDROOT
BRANCH   1   8
HETATM    8  C   UNK N   1      20.511  16.961   6.166  0.00  0.00     0.215 C 
BRANCH   8   9
HETATM    9  O   UNK N   1      19.437  16.375   6.856  0.00  0.00    -0.294 OA
BRANCH   9  10
HETATM   10  P   UNK N   1      19.750  16.447   8.577  0.00  0.00     0.401 P 
HETATM   11  O   UNK N   1      19.972  17.926   9.009  0.00  0.00    -0.631 OA
BRANCH  10  12
HETATM   12  O   UNK N   1      18.351  15.890   9.438  0.00  0.00    -0.307 OA
HETATM   13  H   UNK N   1      17.440  15.615   9.249  0.00  0.00     0.222 HD
ENDBRANCH  10  12
BRANCH  10  14
HETATM   14  O   UNK N   1      21.151  15.454   8.978  0.00  0.00    -0.195 OA
BRANCH  14  15
HETATM   15  P   UNK N   1      20.688  13.904   9.676  0.00  0.00     0.401 P 
HETATM   16  O   UNK N   1      22.224  13.735   9.703  0.00  0.00    -0.631 OA
BRANCH  15  17
HETATM   17  O   UNK N   1      20.016  13.958   8.075  0.00  0.00    -0.307 OA
HETATM   18  H   UNK N   1      19.945  14.670   7.421  0.00  0.00     0.222 HD
ENDBRANCH  15  17
BRANCH  15  19
HETATM   19  O   UNK N   1      21.226  12.516   8.762  0.00  0.00    -0.294 OA
BRANCH  19  20
HETATM   20  C   UNK N   1      21.400  12.800   7.398  0.00  0.00     0.215 C 
BRANCH  20  21
HETATM   21  C   UNK N   1      22.500  12.061   6.629  0.00  0.00     0.180 C 
HETATM   22  C   UNK N   1      23.270  10.926   7.277  0.00  0.00     0.182 C 
HETATM   23  C   UNK N   1      24.390  10.793   6.248  0.00  0.00     0.198 C 
HETATM   24  C   UNK N   1      24.555  12.263   5.768  0.00  0.00     0.259 C 
HETATM   25  O   UNK N   1      23.493  13.001   6.339  0.00  0.00    -0.353 OA
BRANCH  22  26
HETATM   26  O   UNK N   1      23.791  11.354   8.502  0.00  0.00    -0.390 OA
HETATM   27  H   UNK N   1      23.720  12.076   9.146  0.00  0.00     0.210 HD
ENDBRANCH  22  26
BRANCH  23  28
HETATM   28  O   UNK N   1      23.943   9.985   5.196  0.00  0.00    -0.388 OA
HETATM   29  H   UNK N   1      23.830   9.711   4.272  0.00  0.00     0.210 HD
ENDBRANCH  23  28
BRANCH  24  30
HETATM   30  N   UNK N   1      24.481  12.423   4.302  0.00  0.00    -0.336 N 
HETATM   31  C   UNK N   1      25.534  12.127   3.489  0.00  0.00     0.093 A 
HETATM   32  C   UNK N   1      25.430  12.336   2.105  0.00  0.00     0.018 A 
HETATM   33  C   UNK N   1      24.233  12.824   1.563  0.00  0.00     0.017 A 
HETATM   34  C   UNK N   1      23.154  13.099   2.409  0.00  0.00     0.013 A 
HETATM   35  C   UNK N   1      23.319  12.902   3.768  0.00  0.00     0.107 A 
BRANCH  34  36
HETATM   36  C   UNK N   1      21.840  13.565   1.905  0.00  0.00     0.086 C 
HETATM   37  S   UNK N   1      20.312  12.894   2.587  0.00  0.00    -0.033 SA
BRANCH  36  38
HETATM   38  N   UNK N   1      21.774  14.400   0.936  0.00  0.00    -0.392 N 
HETATM   39  H   UNK N   1      21.446  15.324   1.020  0.00  0.00     0.156 HD
ATOM     40  HN  UNK N   1      22.084  14.085   0.016  1.00  0.00     0.156 HD
ENDBRANCH  36  38
ENDBRANCH  34  36
ENDBRANCH  24  30
ENDBRANCH  20  21
ENDBRANCH  19  20
ENDBRANCH  15  19
ENDBRANCH  14  15
ENDBRANCH  10  14
ENDBRANCH   9  10
ENDBRANCH   8   9
ENDBRANCH   1   8
BRANCH   3  41
HETATM   41  O   UNK N   1      21.567  18.899   2.352  0.00  0.00    -0.284 OA
BRANCH  41  42
HETATM   42  P   UNK N   1      21.357  20.624   2.594  0.00  0.00     0.391 P 
HETATM   43  O   UNK N   1      20.875  21.244   1.254  0.00  0.00    -0.632 OA
BRANCH  42  44
HETATM   44  O   UNK N   1      22.887  21.369   2.927  0.00  0.00    -0.307 OA
HETATM   45  H   UNK N   1      23.679  20.842   3.120  0.00  0.00     0.222 HD
ENDBRANCH  42  44
BRANCH  42  46
HETATM   46  O   UNK N   1      20.195  21.032   3.819  0.00  0.00    -0.307 OA
HETATM   47  H   UNK N   1      19.329  21.338   4.130  0.00  0.00     0.222 HD
ENDBRANCH  42  46
ENDBRANCH  41  42
ENDBRANCH   3  41
BRANCH   4  48
HETATM   48  N   UNK N   1      23.886  17.600   3.985  0.00  0.00    -0.297 N 
HETATM   49  C   UNK N   1      24.165  18.622   4.837  0.00  0.00     0.188 A 
HETATM   50  N   UNK N   1      25.509  18.763   5.026  0.00  0.00    -0.346 N 
HETATM   51  C   UNK N   1      26.054  17.801   4.261  0.00  0.00     0.122 A 
ATOM     52  HN  UNK N   1      25.990  19.443   5.613  1.00  0.00     0.167 HD
HETATM   53  C   UNK N   1      27.385  17.456   4.082  0.00  0.00     0.131 A 
HETATM   54  C   UNK N   1      25.085  17.109   3.631  0.00  0.00     0.142 A 
HETATM   55  N   UNK N   1      27.669  16.421   3.237  0.00  0.00    -0.337 N 
HETATM   56  C   UNK N   1      26.666  15.739   2.593  0.00  0.00     0.183 A 
ATOM     57  HN  UNK N   1      28.641  16.152   3.082  1.00  0.00     0.168 HD
HETATM   58  N   UNK N   1      25.354  16.075   2.801  0.00  0.00    -0.336 N 
ATOM     59  HN  UNK N   1      24.603  15.560   2.342  1.00  0.00     0.168 HD
BRANCH  53  60
HETATM   60  N   UNK N   1      28.417  18.133   4.763  0.00  0.00    -0.383 N 
HETATM   61  H   UNK N   1      28.577  18.076   5.732  0.00  0.00     0.157 HD
HETATM   62  H   UNK N   1      29.021  18.700   4.231  0.00  0.00     0.157 HD
ENDBRANCH  53  60
ENDBRANCH   4  48
TORSDOF 21
ENDMDL
MODEL 3
REMARK VINA RESULT:      -7.4      3.351      5.156
REMARK  21 active torsions:
REMARK  status: ('A' for Active; 'I' for Inactive)
REMARK    1  A    between atoms: C_10  and  C_5 
REMARK    2  A    between atoms: O_43  and  C_5 
REMARK    3  A    between atoms: C_11  and  C_6 
REMARK    4  A    between atoms: O_44  and  C_6 
REMARK    5  A    between atoms: C_18  and  C_9 
REMARK    6  A    between atoms: C_13  and  O_33 
REMARK    7  A    between atoms: C_15  and  O_35 
REMARK    8  A    between atoms: C_16  and  O_47 
REMARK    9  A    between atoms: N_22  and  C_17 
REMARK   10  A    between atoms: N_23  and  C_18 
REMARK   11  A    between atoms: C_20  and  N_31 
REMARK   12  A    between atoms: C_21  and  N_32 
REMARK   13  A    between atoms: P_49  and  O_37 
REMARK   14  A    between atoms: P_49  and  O_38 
REMARK   15  A    between atoms: P_50  and  O_40 
REMARK   16  A    between atoms: P_51  and  O_42 
REMARK   17  A    between atoms: P_50  and  O_43 
REMARK   18  A    between atoms: P_51  and  O_44 
REMARK   19  A    between atoms: P_49  and  O_47 
REMARK   20  A    between atoms: P_50  and  O_48 
REMARK   21  A    between atoms: P_51  and  O_48 
ROOT
HETATM    1  C   UNK N   1      30.416  17.819   8.890  0.00  0.00     0.180 C 
HETATM    2  C   UNK N   1      29.366  18.920   8.844  0.00  0.00     0.183 C 
HETATM    3  C   UNK N   1      28.806  18.676   7.456  0.00  0.00     0.214 C 
HETATM    4  C   UNK N   1      28.694  17.146   7.562  0.00  0.00     0.263 C 
HETATM    5  O   UNK N   1      28.387  18.661   9.816  0.00  0.00    -0.390 OA
HETATM    6  O   UNK N   1      29.838  16.683   8.270  0.00  0.00    -0.353 OA
HETATM    7  H   UNK N   1      27.747  18.459  10.517  0.00  0.00     0.210 HD
ENDROOT
BRANCH   1   8
HETATM    8  C   UNK N   1      31.712  18.187   8.128  0.00  0.00     0.215 C 
BRANCH   8   9
HETATM    9  O   UNK N   1      32.308  17.066   7.527  0.00  0.00    -0.294 OA
BRANCH   9  10
HETATM   10  P   UNK N   1      34.047  17.269   7.529  0.00  0.00     0.401 P 
HETATM   11  O   UNK N   1      34.562  17.403   6.066  0.00  0.00    -0.631 OA
BRANCH  10  12
HETATM   12  O   UNK N   1      34.450  18.756   8.328  0.00  0.00    -0.307 OA
HETATM   13  H   UNK N   1      35.068  19.077   9.003  0.00  0.00     0.222 HD
ENDBRANCH  10  12
BRANCH  10  14
HETATM   14  O   UNK N   1      34.813  15.908   8.347  0.00  0.00    -0.195 OA
BRANCH  14  15
HETATM   15  P   UNK N   1      35.303  16.311   9.991  0.00  0.00     0.401 P 
HETATM   16  O   UNK N   1      36.149  15.033   9.790  0.00  0.00    -0.631 OA
BRANCH  15  17
HETATM   17  O   UNK N   1      33.591  16.019  10.031  0.00  0.00    -0.307 OA
HETATM   18  H   UNK N   1      32.839  16.578  10.281  0.00  0.00     0.222 HD
ENDBRANCH  15  17
BRANCH  15  19
HETATM   19  O   UNK N   1      34.941  15.075  11.171  0.00  0.00    -0.294 OA
BRANCH  19  20
HETATM   20  C   UNK N   1      35.619  15.271  12.386  0.00  0.00     0.215 C 
BRANCH  20  21
HETATM   21  C   UNK N   1      36.066  14.042  13.183  0.00  0.00     0.180 C 
HETATM   22  C   UNK N   1      36.907  12.959  12.532  0.00  0.00     0.182 C 
HETATM   23  C   UNK N   1      36.782  11.891  13.615  0.00  0.00     0.198 C 
HETATM   24  C   UNK N   1      35.352  12.162  14.164  0.00  0.00     0.259 C 
HETATM   25  O   UNK N   1      34.906  13.363  13.566  0.00  0.00    -0.353 OA
BRANCH  22  26
HETATM   26  O   UNK N   1      36.285  12.528  11.357  0.00  0.00    -0.390 OA
HETATM   27  H   UNK N   1      36.488  12.225  10.458  0.00  0.00     0.210 HD
ENDBRANCH  22  26
BRANCH  23  28
HETATM   28  O   UNK N   1      37.738  12.138  14.607  0.00  0.00    -0.388 OA
HETATM   29  H   UNK N   1      38.190  12.646  15.299  0.00  0.00     0.210 HD
ENDBRANCH  23  28
BRANCH  24  30
HETATM   30  N   UNK N   1      35.299  12.339  15.629  0.00  0.00    -0.336 N 
HETATM   31  C   UNK N   1      35.263  13.573  16.207  0.00  0.00     0.093 A 
HETATM   32  C   UNK N   1      35.258  13.692  17.604  0.00  0.00     0.018 A 
HETATM   33  C   UNK N   1      35.263  12.538  18.400  0.00  0.00     0.017 A 
HETATM   34  C   UNK N   1      35.275  11.279  17.792  0.00  0.00     0.013 A 
HETATM   35  C   UNK N   1      35.309  11.219  16.410  0.00  0.00     0.107 A 
BRANCH  34  36
HETATM   36  C   UNK N   1      35.226  10.016  18.564  0.00  0.00     0.086 C 
HETATM   37  S   UNK N   1      36.491   9.652  19.796  0.00  0.00    -0.033 SA
BRANCH  36  38
HETATM   38  N   UNK N   1      34.325   9.139  18.321  0.00  0.00    -0.392 N 
HETATM   39  H   UNK N   1      34.088   8.821  17.421  0.00  0.00     0.156 HD
ATOM     40  HN  UNK N   1      33.821   8.743  19.115  1.00  0.00     0.156 HD
ENDBRANCH  36  38
ENDBRANCH  34  36
ENDBRANCH  24  30
ENDBRANCH  20  21
ENDBRANCH  19  20
ENDBRANCH  15  19
ENDBRANCH  14  15
ENDBRANCH  10  14
ENDBRANCH   9  10
ENDBRANCH   8   9
ENDBRANCH   1   8
BRANCH   3  41
HETATM   41  O   UNK N   1      27.537  19.247   7.201  0.00  0.00    -0.284 OA
BRANCH  41  42
HETATM   42  P   UNK N   1      27.362  19.774   5.536  0.00  0.00     0.391 P 
HETATM   43  O   UNK N   1      27.022  21.289   5.542  0.00  0.00    -0.632 OA
BRANCH  42  44
HETATM   44  O   UNK N   1      25.996  18.994   4.806  0.00  0.00    -0.307 OA
HETATM   45  H   UNK N   1      25.240  18.689   5.334  0.00  0.00     0.222 HD
ENDBRANCH  42  44
BRANCH  42  46
HETATM   46  O   UNK N   1      28.787  19.550   4.568  0.00  0.00    -0.307 OA
HETATM   47  H   UNK N   1      29.724  19.682   4.355  0.00  0.00     0.222 HD
ENDBRANCH  42  46
ENDBRANCH  41  42
ENDBRANCH   3  41
BRANCH   4  48
HETATM   48  N   UNK N   1      28.534  16.437   6.285  0.00  0.00    -0.297 N 
HETATM   49  C   UNK N   1      27.435  15.741   5.889  0.00  0.00     0.188 A 
HETATM   50  N   UNK N   1      27.558  15.303   4.603  0.00  0.00    -0.346 N 
HETATM   51  C   UNK N   1      28.767  15.744   4.216  0.00  0.00     0.122 A 
ATOM     52  HN  UNK N   1      26.885  14.763   4.059  1.00  0.00     0.167 HD
HETATM   53  C   UNK N   1      29.411  15.616   2.994  0.00  0.00     0.131 A 
HETATM   54  C   UNK N   1      29.357  16.416   5.224  0.00  0.00     0.142 A 
HETATM   55  N   UNK N   1      30.654  16.168   2.865  0.00  0.00    -0.337 N 
HETATM   56  C   UNK N   1      31.242  16.836   3.911  0.00  0.00     0.183 A 
ATOM     57  HN  UNK N   1      31.151  16.081   1.979  1.00  0.00     0.168 HD
HETATM   58  N   UNK N   1      30.582  16.977   5.103  0.00  0.00    -0.336 N 
ATOM     59  HN  UNK N   1      31.004  17.489   5.877  1.00  0.00     0.168 HD
BRANCH  53  60
HETATM   60  N   UNK N   1      28.800  14.957   1.908  0.00  0.00    -0.383 N 
HETATM   61  H   UNK N   1      28.236  15.399   1.233  0.00  0.00     0.157 HD
HETATM   62  H   UNK N   1      28.950  13.988   1.817  0.00  0.00     0.157 HD
ENDBRANCH  53  60
ENDBRANCH   4  48
TORSDOF 21
ENDMDL
MODEL 4
REMARK VINA RESULT:      -7.3      3.357      5.191
REMARK  21 active torsions:
REMARK  status: ('A' for Active; 'I' for Inactive)
REMARK    1  A    between atoms: C_10  and  C_5 
REMARK    2  A    between atoms: O_43  and  C_5 
REMARK    3  A    between atoms: C_11  and  C_6 
REMARK    4  A    between atoms: O_44  and  C_6 
REMARK    5  A    between atoms: C_18  and  C_9 
REMARK    6  A    between atoms: C_13  and  O_33 
REMARK    7  A    between atoms: C_15  and  O_35 
REMARK    8  A    between atoms: C_16  and  O_47 
REMARK    9  A    between atoms: N_22  and  C_17 
REMARK   10  A    between atoms: N_23  and  C_18 
REMARK   11  A    between atoms: C_20  and  N_31 
REMARK   12  A    between atoms: C_21  and  N_32 
REMARK   13  A    between atoms: P_49  and  O_37 
REMARK   14  A    between atoms: P_49  and  O_38 
REMARK   15  A    between atoms: P_50  and  O_40 
REMARK   16  A    between atoms: P_51  and  O_42 
REMARK   17  A    between atoms: P_50  and  O_43 
REMARK   18  A    between atoms: P_51  and  O_44 
REMARK   19  A    between atoms: P_49  and  O_47 
REMARK   20  A    between atoms: P_50  and  O_48 
REMARK   21  A    between atoms: P_51  and  O_48 
ROOT
HETATM    1  C   UNK N   1      32.069  16.442   4.560  0.00  0.00     0.180 C 
HETATM    2  C   UNK N   1      31.196  15.960   3.411  0.00  0.00     0.183 C 
HETATM    3  C   UNK N   1      29.829  16.277   3.982  0.00  0.00     0.214 C 
HETATM    4  C   UNK N   1      30.163  17.684   4.505  0.00  0.00     0.263 C 
HETATM    5  O   UNK N   1      31.447  16.753   2.280  0.00  0.00    -0.390 OA
HETATM    6  O   UNK N   1      31.480  17.639   5.040  0.00  0.00    -0.353 OA
HETATM    7  H   UNK N   1      31.669  17.308   1.515  0.00  0.00     0.210 HD
ENDROOT
BRANCH   1   8
HETATM    8  C   UNK N   1      32.145  15.430   5.728  0.00  0.00     0.215 C 
BRANCH   8   9
HETATM    9  O   UNK N   1      32.170  16.067   6.979  0.00  0.00    -0.294 OA
BRANCH   9  10
HETATM   10  P   UNK N   1      33.820  16.503   7.370  0.00  0.00     0.401 P 
HETATM   11  O   UNK N   1      34.788  15.384   6.887  0.00  0.00    -0.631 OA
BRANCH  10  12
HETATM   12  O   UNK N   1      34.255  17.938   6.497  0.00  0.00    -0.307 OA
HETATM   13  H   UNK N   1      35.042  18.335   6.092  0.00  0.00     0.222 HD
ENDBRANCH  10  12
BRANCH  10  14
HETATM   14  O   UNK N   1      33.978  16.771   9.106  0.00  0.00    -0.195 OA
BRANCH  14  15
HETATM   15  P   UNK N   1      35.109  15.645   9.851  0.00  0.00     0.401 P 
HETATM   16  O   UNK N   1      33.833  14.775   9.896  0.00  0.00    -0.631 OA
BRANCH  15  17
HETATM   17  O   UNK N   1      35.040  17.045  10.877  0.00  0.00    -0.307 OA
HETATM   18  H   UNK N   1      34.364  17.728  11.005  0.00  0.00     0.222 HD
ENDBRANCH  15  17
BRANCH  15  19
HETATM   19  O   UNK N   1      34.681  15.167  11.476  0.00  0.00    -0.294 OA
BRANCH  19  20
HETATM   20  C   UNK N   1      35.759  15.267  12.372  0.00  0.00     0.215 C 
BRANCH  20  21
HETATM   21  C   UNK N   1      36.160  14.028  13.177  0.00  0.00     0.180 C 
HETATM   22  C   UNK N   1      36.978  12.920  12.540  0.00  0.00     0.182 C 
HETATM   23  C   UNK N   1      36.808  11.858  13.624  0.00  0.00     0.198 C 
HETATM   24  C   UNK N   1      35.380  12.173  14.154  0.00  0.00     0.259 C 
HETATM   25  O   UNK N   1      34.976  13.384  13.548  0.00  0.00    -0.353 OA
BRANCH  22  26
HETATM   26  O   UNK N   1      36.358  12.503  11.358  0.00  0.00    -0.390 OA
HETATM   27  H   UNK N   1      36.293  12.725  10.415  0.00  0.00     0.210 HD
ENDBRANCH  22  26
BRANCH  23  28
HETATM   28  O   UNK N   1      37.759  12.081  14.627  0.00  0.00    -0.388 OA
HETATM   29  H   UNK N   1      38.558  12.460  15.026  0.00  0.00     0.210 HD
ENDBRANCH  23  28
BRANCH  24  30
HETATM   30  N   UNK N   1      35.315  12.355  15.618  0.00  0.00    -0.336 N 
HETATM   31  C   UNK N   1      35.276  13.591  16.191  0.00  0.00     0.093 A 
HETATM   32  C   UNK N   1      35.258  13.715  17.588  0.00  0.00     0.018 A 
HETATM   33  C   UNK N   1      35.254  12.564  18.388  0.00  0.00     0.017 A 
HETATM   34  C   UNK N   1      35.269  11.303  17.784  0.00  0.00     0.013 A 
HETATM   35  C   UNK N   1      35.315  11.238  16.403  0.00  0.00     0.107 A 
BRANCH  34  36
HETATM   36  C   UNK N   1      35.212  10.042  18.561  0.00  0.00     0.086 C 
HETATM   37  S   UNK N   1      36.528   9.626  19.721  0.00  0.00    -0.033 SA
BRANCH  36  38
HETATM   38  N   UNK N   1      34.263   9.204  18.371  0.00  0.00    -0.392 N 
HETATM   39  H   UNK N   1      34.298   8.462  17.725  0.00  0.00     0.156 HD
ATOM     40  HN  UNK N   1      33.414   9.312  18.927  1.00  0.00     0.156 HD
ENDBRANCH  36  38
ENDBRANCH  34  36
ENDBRANCH  24  30
ENDBRANCH  20  21
ENDBRANCH  19  20
ENDBRANCH  15  19
ENDBRANCH  14  15
ENDBRANCH  10  14
ENDBRANCH   9  10
ENDBRANCH   8   9
ENDBRANCH   1   8
BRANCH   3  41
HETATM   41  O   UNK N   1      28.772  16.339   3.042  0.00  0.00    -0.284 OA
BRANCH  41  42
HETATM   42  P   UNK N   1      27.273  15.681   3.675  0.00  0.00     0.391 P 
HETATM   43  O   UNK N   1      26.215  16.816   3.688  0.00  0.00    -0.632 OA
BRANCH  42  44
HETATM   44  O   UNK N   1      27.481  15.218   5.333  0.00  0.00    -0.307 OA
HETATM   45  H   UNK N   1      27.072  15.718   6.057  0.00  0.00     0.222 HD
ENDBRANCH  42  44
BRANCH  42  46
HETATM   46  O   UNK N   1      26.630  14.363   2.745  0.00  0.00    -0.307 OA
HETATM   47  H   UNK N   1      26.678  13.669   2.068  0.00  0.00     0.222 HD
ENDBRANCH  42  46
ENDBRANCH  41  42
ENDBRANCH   3  41
BRANCH   4  48
HETATM   48  N   UNK N   1      29.210  18.237   5.478  0.00  0.00    -0.297 N 
HETATM   49  C   UNK N   1      29.235  18.039   6.823  0.00  0.00     0.188 A 
HETATM   50  N   UNK N   1      28.285  18.786   7.456  0.00  0.00    -0.346 N 
HETATM   51  C   UNK N   1      27.667  19.448   6.463  0.00  0.00     0.122 A 
ATOM     52  HN  UNK N   1      28.088  18.830   8.456  1.00  0.00     0.167 HD
HETATM   53  C   UNK N   1      26.636  20.374   6.519  0.00  0.00     0.131 A 
HETATM   54  C   UNK N   1      28.214  19.115   5.277  0.00  0.00     0.142 A 
HETATM   55  N   UNK N   1      26.189  20.905   5.343  0.00  0.00    -0.337 N 
HETATM   56  C   UNK N   1      26.751  20.539   4.144  0.00  0.00     0.183 A 
ATOM     57  HN  UNK N   1      25.426  21.582   5.355  1.00  0.00     0.168 HD
HETATM   58  N   UNK N   1      27.787  19.644   4.108  0.00  0.00    -0.336 N 
ATOM     59  HN  UNK N   1      28.222  19.383   3.223  1.00  0.00     0.168 HD
BRANCH  53  60
HETATM   60  N   UNK N   1      26.075  20.775   7.749  0.00  0.00    -0.383 N 
HETATM   61  H   UNK N   1      25.314  20.330   8.186  0.00  0.00     0.157 HD
HETATM   62  H   UNK N   1      26.474  21.553   8.202  0.00  0.00     0.157 HD
ENDBRANCH  53  60
ENDBRANCH   4  48
TORSDOF 21
ENDMDL
MODEL 5
REMARK VINA RESULT:      -7.3      2.829      4.724
REMARK  21 active torsions:
REMARK  status: ('A' for Active; 'I' for Inactive)
REMARK    1  A    between atoms: C_10  and  C_5 
REMARK    2  A    between atoms: O_43  and  C_5 
REMARK    3  A    between atoms: C_11  and  C_6 
REMARK    4  A    between atoms: O_44  and  C_6 
REMARK    5  A    between atoms: C_18  and  C_9 
REMARK    6  A    between atoms: C_13  and  O_33 
REMARK    7  A    between atoms: C_15  and  O_35 
REMARK    8  A    between atoms: C_16  and  O_47 
REMARK    9  A    between atoms: N_22  and  C_17 
REMARK   10  A    between atoms: N_23  and  C_18 
REMARK   11  A    between atoms: C_20  and  N_31 
REMARK   12  A    between atoms: C_21  and  N_32 
REMARK   13  A    between atoms: P_49  and  O_37 
REMARK   14  A    between atoms: P_49  and  O_38 
REMARK   15  A    between atoms: P_50  and  O_40 
REMARK   16  A    between atoms: P_51  and  O_42 
REMARK   17  A    between atoms: P_50  and  O_43 
REMARK   18  A    between atoms: P_51  and  O_44 
REMARK   19  A    between atoms: P_49  and  O_47 
REMARK   20  A    between atoms: P_50  and  O_48 
REMARK   21  A    between atoms: P_51  and  O_48 
ROOT
HETATM    1  C   UNK N   1      33.030  16.993   4.154  0.00  0.00     0.180 C 
HETATM    2  C   UNK N   1      33.151  15.519   3.796  0.00  0.00     0.183 C 
HETATM    3  C   UNK N   1      31.723  15.080   4.048  0.00  0.00     0.214 C 
HETATM    4  C   UNK N   1      31.033  16.260   3.344  0.00  0.00     0.263 C 
HETATM    5  O   UNK N   1      33.462  15.403   2.431  0.00  0.00    -0.390 OA
HETATM    6  O   UNK N   1      31.783  17.432   3.643  0.00  0.00    -0.353 OA
HETATM    7  H   UNK N   1      33.703  15.369   1.492  0.00  0.00     0.210 HD
ENDROOT
BRANCH   1   8
HETATM    8  C   UNK N   1      33.052  17.248   5.681  0.00  0.00     0.215 C 
BRANCH   8   9
HETATM    9  O   UNK N   1      34.198  17.952   6.083  0.00  0.00    -0.294 OA
BRANCH   9  10
HETATM   10  P   UNK N   1      34.311  17.918   7.830  0.00  0.00     0.401 P 
HETATM   11  O   UNK N   1      34.965  19.235   8.340  0.00  0.00    -0.631 OA
BRANCH  10  12
HETATM   12  O   UNK N   1      32.714  17.869   8.507  0.00  0.00    -0.307 OA
HETATM   13  H   UNK N   1      31.803  18.068   8.241  0.00  0.00     0.222 HD
ENDBRANCH  10  12
BRANCH  10  14
HETATM   14  O   UNK N   1      35.238  16.510   8.347  0.00  0.00    -0.195 OA
BRANCH  14  15
HETATM   15  P   UNK N   1      34.674  15.874   9.891  0.00  0.00     0.401 P 
HETATM   16  O   UNK N   1      35.341  17.175  10.392  0.00  0.00    -0.631 OA
BRANCH  15  17
HETATM   17  O   UNK N   1      35.796  14.715   9.246  0.00  0.00    -0.307 OA
HETATM   18  H   UNK N   1      35.871  14.293   8.376  0.00  0.00     0.222 HD
ENDBRANCH  15  17
BRANCH  15  19
HETATM   19  O   UNK N   1      35.946  15.573  11.051  0.00  0.00    -0.294 OA
BRANCH  19  20
HETATM   20  C   UNK N   1      35.452  15.321  12.342  0.00  0.00     0.215 C 
BRANCH  20  21
HETATM   21  C   UNK N   1      35.984  14.105  13.105  0.00  0.00     0.180 C 
HETATM   22  C   UNK N   1      36.906  13.106  12.430  0.00  0.00     0.182 C 
HETATM   23  C   UNK N   1      36.853  11.999  13.480  0.00  0.00     0.198 C 
HETATM   24  C   UNK N   1      35.404  12.149  14.026  0.00  0.00     0.259 C 
HETATM   25  O   UNK N   1      34.874  13.332  13.460  0.00  0.00    -0.353 OA
BRANCH  22  26
HETATM   26  O   UNK N   1      36.323  12.666  11.238  0.00  0.00    -0.390 OA
HETATM   27  H   UNK N   1      36.144  11.857  10.734  0.00  0.00     0.210 HD
ENDBRANCH  22  26
BRANCH  23  28
HETATM   28  O   UNK N   1      37.783  12.286  14.486  0.00  0.00    -0.388 OA
HETATM   29  H   UNK N   1      38.392  12.837  15.003  0.00  0.00     0.210 HD
ENDBRANCH  23  28
BRANCH  24  30
HETATM   30  N   UNK N   1      35.331  12.278  15.494  0.00  0.00    -0.336 N 
HETATM   31  C   UNK N   1      35.260  13.492  16.111  0.00  0.00     0.093 A 
HETATM   32  C   UNK N   1      35.237  13.566  17.511  0.00  0.00     0.018 A 
HETATM   33  C   UNK N   1      35.258  12.387  18.270  0.00  0.00     0.017 A 
HETATM   34  C   UNK N   1      35.304  11.149  17.622  0.00  0.00     0.013 A 
HETATM   35  C   UNK N   1      35.355  11.134  16.240  0.00  0.00     0.107 A 
BRANCH  34  36
HETATM   36  C   UNK N   1      35.275   9.861  18.353  0.00  0.00     0.086 C 
HETATM   37  S   UNK N   1      36.796   9.151  19.011  0.00  0.00    -0.033 SA
BRANCH  36  38
HETATM   38  N   UNK N   1      34.181   9.204  18.471  0.00  0.00    -0.392 N 
HETATM   39  H   UNK N   1      34.074   8.396  19.022  0.00  0.00     0.156 HD
ATOM     40  HN  UNK N   1      33.366   9.543  17.958  1.00  0.00     0.156 HD
ENDBRANCH  36  38
ENDBRANCH  34  36
ENDBRANCH  24  30
ENDBRANCH  20  21
ENDBRANCH  19  20
ENDBRANCH  15  19
ENDBRANCH  14  15
ENDBRANCH  10  14
ENDBRANCH   9  10
ENDBRANCH   8   9
ENDBRANCH   1   8
BRANCH   3  41
HETATM   41  O   UNK N   1      31.344  13.856   3.445  0.00  0.00    -0.284 OA
BRANCH  41  42
HETATM   42  P   UNK N   1      31.433  12.504   4.559  0.00  0.00     0.391 P 
HETATM   43  O   UNK N   1      31.998  13.025   5.908  0.00  0.00    -0.632 OA
BRANCH  42  44
HETATM   44  O   UNK N   1      32.587  11.341   3.990  0.00  0.00    -0.307 OA
HETATM   45  H   UNK N   1      33.356  11.602   3.460  0.00  0.00     0.222 HD
ENDBRANCH  42  44
BRANCH  42  46
HETATM   46  O   UNK N   1      29.903  11.747   4.879  0.00  0.00    -0.307 OA
HETATM   47  H   UNK N   1      29.310  10.984   4.961  0.00  0.00     0.222 HD
ENDBRANCH  42  46
ENDBRANCH  41  42
ENDBRANCH   3  41
BRANCH   4  48
HETATM   48  N   UNK N   1      29.611  16.440   3.665  0.00  0.00    -0.297 N 
HETATM   49  C   UNK N   1      28.561  16.022   2.909  0.00  0.00     0.188 A 
HETATM   50  N   UNK N   1      27.372  16.236   3.542  0.00  0.00    -0.346 N 
HETATM   51  C   UNK N   1      27.716  16.804   4.712  0.00  0.00     0.122 A 
ATOM     52  HN  UNK N   1      26.435  16.016   3.205  1.00  0.00     0.167 HD
HETATM   53  C   UNK N   1      26.918  17.213   5.770  0.00  0.00     0.131 A 
HETATM   54  C   UNK N   1      29.055  16.934   4.784  0.00  0.00     0.142 A 
HETATM   55  N   UNK N   1      27.533  17.766   6.857  0.00  0.00    -0.337 N 
HETATM   56  C   UNK N   1      28.899  17.903   6.903  0.00  0.00     0.183 A 
ATOM     57  HN  UNK N   1      26.969  18.081   7.646  1.00  0.00     0.168 HD
HETATM   58  N   UNK N   1      29.675  17.469   5.861  0.00  0.00    -0.336 N 
ATOM     59  HN  UNK N   1      30.691  17.549   5.896  1.00  0.00     0.168 HD
BRANCH  53  60
HETATM   60  N   UNK N   1      25.518  17.047   5.741  0.00  0.00    -0.383 N 
HETATM   61  H   UNK N   1      24.885  17.716   5.393  0.00  0.00     0.157 HD
HETATM   62  H   UNK N   1      25.150  16.205   6.092  0.00  0.00     0.157 HD
ENDBRANCH  53  60
ENDBRANCH   4  48
TORSDOF 21
ENDMDL
MODEL 6
REMARK VINA RESULT:      -7.2     10.797     13.354
REMARK  21 active torsions:
REMARK  status: ('A' for Active; 'I' for Inactive)
REMARK    1  A    between atoms: C_10  and  C_5 
REMARK    2  A    between atoms: O_43  and  C_5 
REMARK    3  A    between atoms: C_11  and  C_6 
REMARK    4  A    between atoms: O_44  and  C_6 
REMARK    5  A    between atoms: C_18  and  C_9 
REMARK    6  A    between atoms: C_13  and  O_33 
REMARK    7  A    between atoms: C_15  and  O_35 
REMARK    8  A    between atoms: C_16  and  O_47 
REMARK    9  A    between atoms: N_22  and  C_17 
REMARK   10  A    between atoms: N_23  and  C_18 
REMARK   11  A    between atoms: C_20  and  N_31 
REMARK   12  A    between atoms: C_21  and  N_32 
REMARK   13  A    between atoms: P_49  and  O_37 
REMARK   14  A    between atoms: P_49  and  O_38 
REMARK   15  A    between atoms: P_50  and  O_40 
REMARK   16  A    between atoms: P_51  and  O_42 
REMARK   17  A    between atoms: P_50  and  O_43 
REMARK   18  A    between atoms: P_51  and  O_44 
REMARK   19  A    between atoms: P_49  and  O_47 
REMARK   20  A    between atoms: P_50  and  O_48 
REMARK   21  A    between atoms: P_51  and  O_48 
ROOT
HETATM    1  C   UNK N   1      20.970  16.411   4.988  0.00  0.00     0.180 C 
HETATM    2  C   UNK N   1      20.479  17.231   3.803  0.00  0.00     0.183 C 
HETATM    3  C   UNK N   1      21.620  18.223   3.693  0.00  0.00     0.214 C 
HETATM    4  C   UNK N   1      22.768  17.210   3.843  0.00  0.00     0.263 C 
HETATM    5  O   UNK N   1      20.436  16.410   2.665  0.00  0.00    -0.390 OA
HETATM    6  O   UNK N   1      22.369  16.256   4.820  0.00  0.00    -0.353 OA
HETATM    7  H   UNK N   1      20.395  15.802   1.909  0.00  0.00     0.210 HD
ENDROOT
BRANCH   1   8
HETATM    8  C   UNK N   1      20.714  17.103   6.349  0.00  0.00     0.215 C 
BRANCH   8   9
HETATM    9  O   UNK N   1      19.512  16.679   6.939  0.00  0.00    -0.294 OA
BRANCH   9  10
HETATM   10  P   UNK N   1      19.717  16.610   8.677  0.00  0.00     0.401 P 
HETATM   11  O   UNK N   1      19.914  18.047   9.240  0.00  0.00    -0.631 OA
BRANCH  10  12
HETATM   12  O   UNK N   1      18.266  15.994   9.401  0.00  0.00    -0.307 OA
HETATM   13  H   UNK N   1      17.786  15.154   9.474  0.00  0.00     0.222 HD
ENDBRANCH  10  12
BRANCH  10  14
HETATM   14  O   UNK N   1      21.088  15.578   9.082  0.00  0.00    -0.195 OA
BRANCH  14  15
HETATM   15  P   UNK N   1      20.580  13.981   9.625  0.00  0.00     0.401 P 
HETATM   16  O   UNK N   1      22.112  13.781   9.678  0.00  0.00    -0.631 OA
BRANCH  15  17
HETATM   17  O   UNK N   1      19.956  14.189   8.018  0.00  0.00    -0.307 OA
HETATM   18  H   UNK N   1      19.274  14.774   7.653  0.00  0.00     0.222 HD
ENDBRANCH  15  17
BRANCH  15  19
HETATM   19  O   UNK N   1      21.121  12.670   8.606  0.00  0.00    -0.294 OA
BRANCH  19  20
HETATM   20  C   UNK N   1      21.436  13.091   7.303  0.00  0.00     0.215 C 
BRANCH  20  21
HETATM   21  C   UNK N   1      22.562  12.374   6.553  0.00  0.00     0.180 C 
HETATM   22  C   UNK N   1      23.199  11.120   7.123  0.00  0.00     0.182 C 
HETATM   23  C   UNK N   1      24.406  11.034   6.192  0.00  0.00     0.198 C 
HETATM   24  C   UNK N   1      24.701  12.536   5.914  0.00  0.00     0.259 C 
HETATM   25  O   UNK N   1      23.631  13.272   6.472  0.00  0.00    -0.353 OA
BRANCH  22  26
HETATM   26  O   UNK N   1      23.620  11.365   8.433  0.00  0.00    -0.390 OA
HETATM   27  H   UNK N   1      23.272  11.529   9.324  0.00  0.00     0.210 HD
ENDBRANCH  22  26
BRANCH  23  28
HETATM   28  O   UNK N   1      24.021  10.387   5.011  0.00  0.00    -0.388 OA
HETATM   29  H   UNK N   1      24.150   9.924   4.169  0.00  0.00     0.210 HD
ENDBRANCH  23  28
BRANCH  24  30
HETATM   30  N   UNK N   1      24.781  12.871   4.479  0.00  0.00    -0.336 N 
HETATM   31  C   UNK N   1      23.697  13.309   3.777  0.00  0.00     0.093 A 
HETATM   32  C   UNK N   1      23.811  13.574   2.405  0.00  0.00     0.018 A 
HETATM   33  C   UNK N   1      25.049  13.413   1.766  0.00  0.00     0.017 A 
HETATM   34  C   UNK N   1      26.157  12.987   2.505  0.00  0.00     0.013 A 
HETATM   35  C   UNK N   1      25.982  12.712   3.849  0.00  0.00     0.107 A 
BRANCH  34  36
HETATM   36  C   UNK N   1      27.508  12.845   1.913  0.00  0.00     0.086 C 
HETATM   37  S   UNK N   1      28.022  11.281   1.178  0.00  0.00    -0.033 SA
BRANCH  36  38
HETATM   38  N   UNK N   1      28.349  13.809   1.974  0.00  0.00    -0.392 N 
HETATM   39  H   UNK N   1      28.467  14.396   2.755  0.00  0.00     0.156 HD
ATOM     40  HN  UNK N   1      28.938  13.979   1.157  1.00  0.00     0.156 HD
ENDBRANCH  36  38
ENDBRANCH  34  36
ENDBRANCH  24  30
ENDBRANCH  20  21
ENDBRANCH  19  20
ENDBRANCH  15  19
ENDBRANCH  14  15
ENDBRANCH  10  14
ENDBRANCH   9  10
ENDBRANCH   8   9
ENDBRANCH   1   8
BRANCH   3  41
HETATM   41  O   UNK N   1      21.721  18.902   2.455  0.00  0.00    -0.284 OA
BRANCH  41  42
HETATM   42  P   UNK N   1      21.171  20.565   2.557  0.00  0.00     0.391 P 
HETATM   43  O   UNK N   1      20.178  20.674   3.745  0.00  0.00    -0.632 OA
BRANCH  42  44
HETATM   44  O   UNK N   1      20.252  20.975   1.144  0.00  0.00    -0.307 OA
HETATM   45  H   UNK N   1      19.313  20.743   1.062  0.00  0.00     0.222 HD
ENDBRANCH  42  44
BRANCH  42  46
HETATM   46  O   UNK N   1      22.443  21.718   2.817  0.00  0.00    -0.307 OA
HETATM   47  H   UNK N   1      22.906  22.404   3.323  0.00  0.00     0.222 HD
ENDBRANCH  42  46
ENDBRANCH  41  42
ENDBRANCH   3  41
BRANCH   4  48
HETATM   48  N   UNK N   1      24.079  17.789   4.167  0.00  0.00    -0.297 N 
HETATM   49  C   UNK N   1      24.548  18.993   3.744  0.00  0.00     0.188 A 
HETATM   50  N   UNK N   1      25.750  19.291   4.317  0.00  0.00    -0.346 N 
HETATM   51  C   UNK N   1      26.014  18.233   5.104  0.00  0.00     0.122 A 
ATOM     52  HN  UNK N   1      26.319  20.126   4.180  1.00  0.00     0.167 HD
HETATM   53  C   UNK N   1      27.089  17.998   5.947  0.00  0.00     0.131 A 
HETATM   54  C   UNK N   1      25.018  17.329   5.009  0.00  0.00     0.142 A 
HETATM   55  N   UNK N   1      27.111  16.824   6.645  0.00  0.00    -0.337 N 
HETATM   56  C   UNK N   1      26.093  15.911   6.521  0.00  0.00     0.183 A 
ATOM     57  HN  UNK N   1      27.894  16.624   7.267  1.00  0.00     0.168 HD
HETATM   58  N   UNK N   1      25.024  16.169   5.705  0.00  0.00    -0.336 N 
ATOM     59  HN  UNK N   1      24.254  15.504   5.624  1.00  0.00     0.168 HD
BRANCH  53  60
HETATM   60  N   UNK N   1      28.122  18.945   6.100  0.00  0.00    -0.383 N 
HETATM   61  H   UNK N   1      28.799  18.922   6.815  0.00  0.00     0.157 HD
HETATM   62  H   UNK N   1      28.171  19.680   5.447  0.00  0.00     0.157 HD
ENDBRANCH  53  60
ENDBRANCH   4  48
TORSDOF 21
ENDMDL
MODEL 7
REMARK VINA RESULT:      -7.2      3.425      9.189
REMARK  21 active torsions:
REMARK  status: ('A' for Active; 'I' for Inactive)
REMARK    1  A    between atoms: C_10  and  C_5 
REMARK    2  A    between atoms: O_43  and  C_5 
REMARK    3  A    between atoms: C_11  and  C_6 
REMARK    4  A    between atoms: O_44  and  C_6 
REMARK    5  A    between atoms: C_18  and  C_9 
REMARK    6  A    between atoms: C_13  and  O_33 
REMARK    7  A    between atoms: C_15  and  O_35 
REMARK    8  A    between atoms: C_16  and  O_47 
REMARK    9  A    between atoms: N_22  and  C_17 
REMARK   10  A    between atoms: N_23  and  C_18 
REMARK   11  A    between atoms: C_20  and  N_31 
REMARK   12  A    between atoms: C_21  and  N_32 
REMARK   13  A    between atoms: P_49  and  O_37 
REMARK   14  A    between atoms: P_49  and  O_38 
REMARK   15  A    between atoms: P_50  and  O_40 
REMARK   16  A    between atoms: P_51  and  O_42 
REMARK   17  A    between atoms: P_50  and  O_43 
REMARK   18  A    between atoms: P_51  and  O_44 
REMARK   19  A    between atoms: P_49  and  O_47 
REMARK   20  A    between atoms: P_50  and  O_48 
REMARK   21  A    between atoms: P_51  and  O_48 
ROOT
HETATM    1  C   UNK N   1      37.225  11.421  11.529  0.00  0.00     0.180 C 
HETATM    2  C   UNK N   1      37.114  12.824  10.949  0.00  0.00     0.183 C 
HETATM    3  C   UNK N   1      36.269  13.475  12.025  0.00  0.00     0.214 C 
HETATM    4  C   UNK N   1      37.035  12.915  13.235  0.00  0.00     0.263 C 
HETATM    5  O   UNK N   1      38.391  13.407  10.914  0.00  0.00    -0.390 OA
HETATM    6  O   UNK N   1      37.396  11.573  12.927  0.00  0.00    -0.353 OA
HETATM    7  H   UNK N   1      39.294  13.762  10.883  0.00  0.00     0.210 HD
ENDROOT
BRANCH   1   8
HETATM    8  C   UNK N   1      35.961  10.563  11.280  0.00  0.00     0.215 C 
BRANCH   8   9
HETATM    9  O   UNK N   1      35.701  10.389   9.911  0.00  0.00    -0.294 OA
BRANCH   9  10
HETATM   10  P   UNK N   1      34.055  10.882   9.570  0.00  0.00     0.401 P 
HETATM   11  O   UNK N   1      33.481  10.025   8.405  0.00  0.00    -0.631 OA
BRANCH  10  12
HETATM   12  O   UNK N   1      33.062  10.556  10.954  0.00  0.00    -0.307 OA
HETATM   13  H   UNK N   1      32.819  10.977  11.794  0.00  0.00     0.222 HD
ENDBRANCH  10  12
BRANCH  10  14
HETATM   14  O   UNK N   1      34.009  12.599   9.175  0.00  0.00    -0.195 OA
BRANCH  14  15
HETATM   15  P   UNK N   1      33.630  12.881   7.478  0.00  0.00     0.401 P 
HETATM   16  O   UNK N   1      35.168  13.026   7.412  0.00  0.00    -0.631 OA
BRANCH  15  17
HETATM   17  O   UNK N   1      32.846  14.137   8.385  0.00  0.00    -0.307 OA
HETATM   18  H   UNK N   1      33.015  15.089   8.463  0.00  0.00     0.222 HD
ENDBRANCH  15  17
BRANCH  15  19
HETATM   19  O   UNK N   1      34.131  14.443   6.879  0.00  0.00    -0.294 OA
BRANCH  19  20
HETATM   20  C   UNK N   1      33.936  14.582   5.495  0.00  0.00     0.215 C 
BRANCH  20  21
HETATM   21  C   UNK N   1      32.593  15.120   4.994  0.00  0.00     0.180 C 
HETATM   22  C   UNK N   1      32.149  14.889   3.561  0.00  0.00     0.182 C 
HETATM   23  C   UNK N   1      30.976  15.865   3.525  0.00  0.00     0.198 C 
HETATM   24  C   UNK N   1      31.465  16.985   4.487  0.00  0.00     0.259 C 
HETATM   25  O   UNK N   1      32.651  16.513   5.093  0.00  0.00    -0.353 OA
BRANCH  22  26
HETATM   26  O   UNK N   1      33.155  15.313   2.688  0.00  0.00    -0.390 OA
HETATM   27  H   UNK N   1      33.959  15.856   2.661  0.00  0.00     0.210 HD
ENDBRANCH  22  26
BRANCH  23  28
HETATM   28  O   UNK N   1      29.844  15.231   4.053  0.00  0.00    -0.388 OA
HETATM   29  H   UNK N   1      29.257  14.486   4.256  0.00  0.00     0.210 HD
ENDBRANCH  23  28
BRANCH  24  30
HETATM   30  N   UNK N   1      30.505  17.309   5.560  0.00  0.00    -0.336 N 
HETATM   31  C   UNK N   1      30.713  16.931   6.853  0.00  0.00     0.093 A 
HETATM   32  C   UNK N   1      29.751  17.224   7.832  0.00  0.00     0.018 A 
HETATM   33  C   UNK N   1      28.592  17.931   7.478  0.00  0.00     0.017 A 
HETATM   34  C   UNK N   1      28.407  18.333   6.152  0.00  0.00     0.013 A 
HETATM   35  C   UNK N   1      29.373  17.993   5.222  0.00  0.00     0.107 A 
BRANCH  34  36
HETATM   36  C   UNK N   1      27.236  19.129   5.713  0.00  0.00     0.086 C 
HETATM   37  S   UNK N   1      26.693  19.079   3.995  0.00  0.00    -0.033 SA
BRANCH  36  38
HETATM   38  N   UNK N   1      26.636  19.909   6.532  0.00  0.00    -0.392 N 
HETATM   39  H   UNK N   1      27.046  20.283   7.345  0.00  0.00     0.156 HD
ATOM     40  HN  UNK N   1      25.668  20.161   6.326  1.00  0.00     0.156 HD
ENDBRANCH  36  38
ENDBRANCH  34  36
ENDBRANCH  24  30
ENDBRANCH  20  21
ENDBRANCH  19  20
ENDBRANCH  15  19
ENDBRANCH  14  15
ENDBRANCH  10  14
ENDBRANCH   9  10
ENDBRANCH   8   9
ENDBRANCH   1   8
BRANCH   3  41
HETATM   41  O   UNK N   1      36.286  14.890  12.043  0.00  0.00    -0.284 OA
BRANCH  41  42
HETATM   42  P   UNK N   1      35.184  15.589  10.870  0.00  0.00     0.391 P 
HETATM   43  O   UNK N   1      35.151  17.125  11.093  0.00  0.00    -0.632 OA
BRANCH  42  44
HETATM   44  O   UNK N   1      33.567  15.040  11.173  0.00  0.00    -0.307 OA
HETATM   45  H   UNK N   1      33.210  14.977  12.073  0.00  0.00     0.222 HD
ENDBRANCH  42  44
BRANCH  42  46
HETATM   46  O   UNK N   1      35.631  15.299   9.217  0.00  0.00    -0.307 OA
HETATM   47  H   UNK N   1      36.145  15.468   8.412  0.00  0.00     0.222 HD
ENDBRANCH  42  46
ENDBRANCH  41  42
ENDBRANCH   3  41
BRANCH   4  48
HETATM   48  N   UNK N   1      36.327  12.996  14.520  0.00  0.00    -0.297 N 
HETATM   49  C   UNK N   1      35.435  12.090  15.001  0.00  0.00     0.188 A 
HETATM   50  N   UNK N   1      35.048  12.395  16.273  0.00  0.00    -0.346 N 
HETATM   51  C   UNK N   1      35.724  13.519  16.565  0.00  0.00     0.122 A 
ATOM     52  HN  UNK N   1      34.394  11.885  16.867  1.00  0.00     0.167 HD
HETATM   53  C   UNK N   1      35.744  14.266  17.733  0.00  0.00     0.131 A 
HETATM   54  C   UNK N   1      36.485  13.885  15.515  0.00  0.00     0.142 A 
HETATM   55  N   UNK N   1      36.532  15.381  17.766  0.00  0.00    -0.337 N 
HETATM   56  C   UNK N   1      37.287  15.744  16.678  0.00  0.00     0.183 A 
ATOM     57  HN  UNK N   1      36.559  15.952  18.611  1.00  0.00     0.168 HD
HETATM   58  N   UNK N   1      37.278  14.981  15.541  0.00  0.00    -0.336 N 
ATOM     59  HN  UNK N   1      37.851  15.233  14.736  1.00  0.00     0.168 HD
BRANCH  53  60
HETATM   60  N   UNK N   1      34.994  13.882  18.864  0.00  0.00    -0.383 N 
HETATM   61  H   UNK N   1      35.276  13.199  19.514  0.00  0.00     0.157 HD
HETATM   62  H   UNK N   1      34.129  14.329  19.012  0.00  0.00     0.157 HD
ENDBRANCH  53  60
ENDBRANCH   4  48
TORSDOF 21
ENDMDL
MODEL 8
REMARK VINA RESULT:      -7.1      8.190     12.064
REMARK  21 active torsions:
REMARK  status: ('A' for Active; 'I' for Inactive)
REMARK    1  A    between atoms: C_10  and  C_5 
REMARK    2  A    between atoms: O_43  and  C_5 
REMARK    3  A    between atoms: C_11  and  C_6 
REMARK    4  A    between atoms: O_44  and  C_6 
REMARK    5  A    between atoms: C_18  and  C_9 
REMARK    6  A    between atoms: C_13  and  O_33 
REMARK    7  A    between atoms: C_15  and  O_35 
REMARK    8  A    between atoms: C_16  and  O_47 
REMARK    9  A    between atoms: N_22  and  C_17 
REMARK   10  A    between atoms: N_23  and  C_18 
REMARK   11  A    between atoms: C_20  and  N_31 
REMARK   12  A    between atoms: C_21  and  N_32 
REMARK   13  A    between atoms: P_49  and  O_37 
REMARK   14  A    between atoms: P_49  and  O_38 
REMARK   15  A    between atoms: P_50  and  O_40 
REMARK   16  A    between atoms: P_51  and  O_42 
REMARK   17  A    between atoms: P_50  and  O_43 
REMARK   18  A    between atoms: P_51  and  O_44 
REMARK   19  A    between atoms: P_49  and  O_47 
REMARK   20  A    between atoms: P_50  and  O_48 
REMARK   21  A    between atoms: P_51  and  O_48 
ROOT
HETATM    1  C   UNK N   1      19.795  13.792   5.306  0.00  0.00     0.180 C 
HETATM    2  C   UNK N   1      20.868  13.526   6.351  0.00  0.00     0.183 C 
HETATM    3  C   UNK N   1      21.809  14.673   6.045  0.00  0.00     0.214 C 
HETATM    4  C   UNK N   1      20.738  15.770   5.921  0.00  0.00     0.263 C 
HETATM    5  O   UNK N   1      20.310  13.681   7.630  0.00  0.00    -0.390 OA
HETATM    6  O   UNK N   1      19.616  15.197   5.259  0.00  0.00    -0.353 OA
HETATM    7  H   UNK N   1      19.879  13.772   8.495  0.00  0.00     0.210 HD
ENDROOT
BRANCH   1   8
HETATM    8  C   UNK N   1      20.192  13.301   3.893  0.00  0.00     0.215 C 
BRANCH   8   9
HETATM    9  O   UNK N   1      20.109  14.324   2.935  0.00  0.00    -0.294 OA
BRANCH   9  10
HETATM   10  P   UNK N   1      21.493  14.227   1.866  0.00  0.00     0.401 P 
HETATM   11  O   UNK N   1      21.377  12.958   0.971  0.00  0.00    -0.631 OA
BRANCH  10  12
HETATM   12  O   UNK N   1      21.482  15.587   0.790  0.00  0.00    -0.307 OA
HETATM   13  H   UNK N   1      20.847  16.222   0.422  0.00  0.00     0.222 HD
ENDBRANCH  10  12
BRANCH  10  14
HETATM   14  O   UNK N   1      22.983  14.203   2.808  0.00  0.00    -0.195 OA
BRANCH  14  15
HETATM   15  P   UNK N   1      24.368  14.762   1.874  0.00  0.00     0.401 P 
HETATM   16  O   UNK N   1      24.917  13.391   2.327  0.00  0.00    -0.631 OA
BRANCH  15  17
HETATM   17  O   UNK N   1      24.146  15.893   3.174  0.00  0.00    -0.307 OA
HETATM   18  H   UNK N   1      23.750  16.777   3.210  0.00  0.00     0.222 HD
ENDBRANCH  15  17
BRANCH  15  19
HETATM   19  O   UNK N   1      25.846  14.902   2.795  0.00  0.00    -0.294 OA
BRANCH  19  20
HETATM   20  C   UNK N   1      26.300  16.228   2.892  0.00  0.00     0.215 C 
BRANCH  20  21
HETATM   21  C   UNK N   1      27.668  16.490   3.528  0.00  0.00     0.180 C 
HETATM   22  C   UNK N   1      28.945  16.088   2.812  0.00  0.00     0.182 C 
HETATM   23  C   UNK N   1      29.922  16.265   3.972  0.00  0.00     0.198 C 
HETATM   24  C   UNK N   1      29.036  15.889   5.194  0.00  0.00     0.259 C 
HETATM   25  O   UNK N   1      27.715  15.748   4.712  0.00  0.00    -0.353 OA
BRANCH  22  26
HETATM   26  O   UNK N   1      28.871  14.740   2.448  0.00  0.00    -0.390 OA
HETATM   27  H   UNK N   1      28.249  13.997   2.410  0.00  0.00     0.210 HD
ENDBRANCH  22  26
BRANCH  23  28
HETATM   28  O   UNK N   1      30.301  17.611   4.042  0.00  0.00    -0.388 OA
HETATM   29  H   UNK N   1      30.531  18.488   3.699  0.00  0.00     0.210 HD
ENDBRANCH  23  28
BRANCH  24  30
HETATM   30  N   UNK N   1      29.023  16.911   6.258  0.00  0.00    -0.336 N 
HETATM   31  C   UNK N   1      29.842  16.832   7.346  0.00  0.00     0.093 A 
HETATM   32  C   UNK N   1      29.763  17.806   8.353  0.00  0.00     0.018 A 
HETATM   33  C   UNK N   1      28.861  18.871   8.222  0.00  0.00     0.017 A 
HETATM   34  C   UNK N   1      28.047  18.951   7.089  0.00  0.00     0.013 A 
HETATM   35  C   UNK N   1      28.144  17.949   6.140  0.00  0.00     0.107 A 
BRANCH  34  36
HETATM   36  C   UNK N   1      27.108  20.073   6.854  0.00  0.00     0.086 C 
HETATM   37  S   UNK N   1      26.906  20.762   5.200  0.00  0.00    -0.033 SA
BRANCH  36  38
HETATM   38  N   UNK N   1      26.479  20.610   7.832  0.00  0.00    -0.392 N 
HETATM   39  H   UNK N   1      25.643  21.121   7.742  0.00  0.00     0.156 HD
ATOM     40  HN  UNK N   1      26.872  20.500   8.768  1.00  0.00     0.156 HD
ENDBRANCH  36  38
ENDBRANCH  34  36
ENDBRANCH  24  30
ENDBRANCH  20  21
ENDBRANCH  19  20
ENDBRANCH  15  19
ENDBRANCH  14  15
ENDBRANCH  10  14
ENDBRANCH   9  10
ENDBRANCH   8   9
ENDBRANCH   1   8
BRANCH   3  41
HETATM   41  O   UNK N   1      22.730  14.999   7.069  0.00  0.00    -0.284 OA
BRANCH  41  42
HETATM   42  P   UNK N   1      24.381  14.583   6.643  0.00  0.00     0.391 P 
HETATM   43  O   UNK N   1      25.007  13.807   7.833  0.00  0.00    -0.632 OA
BRANCH  42  44
HETATM   44  O   UNK N   1      25.332  16.023   6.475  0.00  0.00    -0.307 OA
HETATM   45  H   UNK N   1      24.972  16.899   6.686  0.00  0.00     0.222 HD
ENDBRANCH  42  44
BRANCH  42  46
HETATM   46  O   UNK N   1      24.517  13.588   5.226  0.00  0.00    -0.307 OA
HETATM   47  H   UNK N   1      24.751  13.419   4.300  0.00  0.00     0.222 HD
ENDBRANCH  42  46
ENDBRANCH  41  42
ENDBRANCH   3  41
BRANCH   4  48
HETATM   48  N   UNK N   1      21.176  17.006   5.257  0.00  0.00    -0.297 N 
HETATM   49  C   UNK N   1      22.267  17.747   5.587  0.00  0.00     0.188 A 
HETATM   50  N   UNK N   1      22.464  18.767   4.702  0.00  0.00    -0.346 N 
HETATM   51  C   UNK N   1      21.460  18.638   3.818  0.00  0.00     0.122 A 
ATOM     52  HN  UNK N   1      23.204  19.468   4.711  1.00  0.00     0.167 HD
HETATM   53  C   UNK N   1      21.172  19.384   2.685  0.00  0.00     0.131 A 
HETATM   54  C   UNK N   1      20.683  17.589   4.153  0.00  0.00     0.142 A 
HETATM   55  N   UNK N   1      20.075  19.034   1.950  0.00  0.00    -0.337 N 
HETATM   56  C   UNK N   1      19.289  17.970   2.319  0.00  0.00     0.183 A 
ATOM     57  HN  UNK N   1      19.837  19.571   1.116  1.00  0.00     0.168 HD
HETATM   58  N   UNK N   1      19.601  17.227   3.425  0.00  0.00    -0.336 N 
ATOM     59  HN  UNK N   1      19.033  16.423   3.694  1.00  0.00     0.168 HD
BRANCH  53  60
HETATM   60  N   UNK N   1      21.993  20.459   2.285  0.00  0.00    -0.383 N 
HETATM   61  H   UNK N   1      22.340  20.586   1.373  0.00  0.00     0.157 HD
HETATM   62  H   UNK N   1      22.233  21.128   2.965  0.00  0.00     0.157 HD
ENDBRANCH  53  60
ENDBRANCH   4  48
TORSDOF 21
ENDMDL
MODEL 9
REMARK VINA RESULT:      -7.1      2.908      4.705
REMARK  21 active torsions:
REMARK  status: ('A' for Active; 'I' for Inactive)
REMARK    1  A    between atoms: C_10  and  C_5 
REMARK    2  A    between atoms: O_43  and  C_5 
REMARK    3  A    between atoms: C_11  and  C_6 
REMARK    4  A    between atoms: O_44  and  C_6 
REMARK    5  A    between atoms: C_18  and  C_9 
REMARK    6  A    between atoms: C_13  and  O_33 
REMARK    7  A    between atoms: C_15  and  O_35 
REMARK    8  A    between atoms: C_16  and  O_47 
REMARK    9  A    between atoms: N_22  and  C_17 
REMARK   10  A    between atoms: N_23  and  C_18 
REMARK   11  A    between atoms: C_20  and  N_31 
REMARK   12  A    between atoms: C_21  and  N_32 
REMARK   13  A    between atoms: P_49  and  O_37 
REMARK   14  A    between atoms: P_49  and  O_38 
REMARK   15  A    between atoms: P_50  and  O_40 
REMARK   16  A    between atoms: P_51  and  O_42 
REMARK   17  A    between atoms: P_50  and  O_43 
REMARK   18  A    between atoms: P_51  and  O_44 
REMARK   19  A    between atoms: P_49  and  O_47 
REMARK   20  A    between atoms: P_50  and  O_48 
REMARK   21  A    between atoms: P_51  and  O_48 
ROOT
HETATM    1  C   UNK N   1      33.852  15.950   4.392  0.00  0.00     0.180 C 
HETATM    2  C   UNK N   1      32.860  15.495   3.332  0.00  0.00     0.183 C 
HETATM    3  C   UNK N   1      31.588  15.505   4.156  0.00  0.00     0.214 C 
HETATM    4  C   UNK N   1      31.816  16.862   4.842  0.00  0.00     0.263 C 
HETATM    5  O   UNK N   1      32.791  16.467   2.321  0.00  0.00    -0.390 OA
HETATM    6  O   UNK N   1      33.202  16.957   5.149  0.00  0.00    -0.353 OA
HETATM    7  H   UNK N   1      32.795  17.150   1.632  0.00  0.00     0.210 HD
ENDROOT
BRANCH   1   8
HETATM    8  C   UNK N   1      34.275  14.812   5.352  0.00  0.00     0.215 C 
BRANCH   8   9
HETATM    9  O   UNK N   1      34.334  15.241   6.688  0.00  0.00    -0.294 OA
BRANCH   9  10
HETATM   10  P   UNK N   1      33.745  13.964   7.730  0.00  0.00     0.401 P 
HETATM   11  O   UNK N   1      32.312  13.544   7.288  0.00  0.00    -0.631 OA
BRANCH  10  12
HETATM   12  O   UNK N   1      34.747  12.561   7.540  0.00  0.00    -0.307 OA
HETATM   13  H   UNK N   1      34.809  11.656   7.884  0.00  0.00     0.222 HD
ENDBRANCH  10  12
BRANCH  10  14
HETATM   14  O   UNK N   1      33.757  14.501   9.409  0.00  0.00    -0.195 OA
BRANCH  14  15
HETATM   15  P   UNK N   1      34.998  15.714   9.710  0.00  0.00     0.401 P 
HETATM   16  O   UNK N   1      35.908  14.490   9.458  0.00  0.00    -0.631 OA
BRANCH  15  17
HETATM   17  O   UNK N   1      34.048  15.594  11.159  0.00  0.00    -0.307 OA
HETATM   18  H   UNK N   1      33.134  15.846  11.362  0.00  0.00     0.222 HD
ENDBRANCH  15  17
BRANCH  15  19
HETATM   19  O   UNK N   1      36.035  15.358  11.070  0.00  0.00    -0.294 OA
BRANCH  19  20
HETATM   20  C   UNK N   1      35.315  14.990  12.219  0.00  0.00     0.215 C 
BRANCH  20  21
HETATM   21  C   UNK N   1      35.889  13.897  13.125  0.00  0.00     0.180 C 
HETATM   22  C   UNK N   1      36.816  12.832  12.566  0.00  0.00     0.182 C 
HETATM   23  C   UNK N   1      36.810  11.877  13.756  0.00  0.00     0.198 C 
HETATM   24  C   UNK N   1      35.371  12.074  14.314  0.00  0.00     0.259 C 
HETATM   25  O   UNK N   1      34.805  13.160  13.609  0.00  0.00    -0.353 OA
BRANCH  22  26
HETATM   26  O   UNK N   1      36.215  12.226  11.459  0.00  0.00    -0.390 OA
HETATM   27  H   UNK N   1      35.658  12.429  10.691  0.00  0.00     0.210 HD
ENDBRANCH  22  26
BRANCH  23  28
HETATM   28  O   UNK N   1      37.758  12.313  14.690  0.00  0.00    -0.388 OA
HETATM   29  H   UNK N   1      38.154  12.915  15.340  0.00  0.00     0.210 HD
ENDBRANCH  23  28
BRANCH  24  30
HETATM   30  N   UNK N   1      35.330  12.398  15.754  0.00  0.00    -0.336 N 
HETATM   31  C   UNK N   1      35.307  13.685  16.204  0.00  0.00     0.093 A 
HETATM   32  C   UNK N   1      35.312  13.944  17.583  0.00  0.00     0.018 A 
HETATM   33  C   UNK N   1      35.314  12.876  18.491  0.00  0.00     0.017 A 
HETATM   34  C   UNK N   1      35.313  11.563  18.013  0.00  0.00     0.013 A 
HETATM   35  C   UNK N   1      35.337  11.363  16.644  0.00  0.00     0.107 A 
BRANCH  34  36
HETATM   36  C   UNK N   1      35.260  10.384  18.909  0.00  0.00     0.086 C 
HETATM   37  S   UNK N   1      34.720   8.783  18.280  0.00  0.00    -0.033 SA
BRANCH  36  38
HETATM   38  N   UNK N   1      35.535  10.501  20.155  0.00  0.00    -0.392 N 
HETATM   39  H   UNK N   1      35.104  11.146  20.761  0.00  0.00     0.156 HD
ATOM     40  HN  UNK N   1      36.248   9.883  20.545  1.00  0.00     0.156 HD
ENDBRANCH  36  38
ENDBRANCH  34  36
ENDBRANCH  24  30
ENDBRANCH  20  21
ENDBRANCH  19  20
ENDBRANCH  15  19
ENDBRANCH  14  15
ENDBRANCH  10  14
ENDBRANCH   9  10
ENDBRANCH   8   9
ENDBRANCH   1   8
BRANCH   3  41
HETATM   41  O   UNK N   1      30.380  15.523   3.418  0.00  0.00    -0.284 OA
BRANCH  41  42
HETATM   42  P   UNK N   1      29.251  14.289   3.948  0.00  0.00     0.391 P 
HETATM   43  O   UNK N   1      27.972  14.997   4.469  0.00  0.00    -0.632 OA
BRANCH  42  44
HETATM   44  O   UNK N   1      29.900  13.438   5.313  0.00  0.00    -0.307 OA
HETATM   45  H   UNK N   1      29.676  12.510   5.489  0.00  0.00     0.222 HD
ENDBRANCH  42  44
BRANCH  42  46
HETATM   46  O   UNK N   1      28.776  13.179   2.700  0.00  0.00    -0.307 OA
HETATM   47  H   UNK N   1      28.947  12.584   1.954  0.00  0.00     0.222 HD
ENDBRANCH  42  46
ENDBRANCH  41  42
ENDBRANCH   3  41
BRANCH   4  48
HETATM   48  N   UNK N   1      30.989  17.113   6.031  0.00  0.00    -0.297 N 
HETATM   49  C   UNK N   1      31.390  16.994   7.325  0.00  0.00     0.188 A 
HETATM   50  N   UNK N   1      30.422  17.414   8.189  0.00  0.00    -0.346 N 
HETATM   51  C   UNK N   1      29.407  17.793   7.393  0.00  0.00     0.122 A 
ATOM     52  HN  UNK N   1      30.460  17.436   9.208  1.00  0.00     0.167 HD
HETATM   53  C   UNK N   1      28.172  18.329   7.722  0.00  0.00     0.131 A 
HETATM   54  C   UNK N   1      29.741  17.606   6.101  0.00  0.00     0.142 A 
HETATM   55  N   UNK N   1      27.313  18.631   6.703  0.00  0.00    -0.337 N 
HETATM   56  C   UNK N   1      27.669  18.418   5.394  0.00  0.00     0.183 A 
ATOM     57  HN  UNK N   1      26.396  19.020   6.918  1.00  0.00     0.168 HD
HETATM   58  N   UNK N   1      28.904  17.912   5.083  0.00  0.00    -0.336 N 
ATOM     59  HN  UNK N   1      29.183  17.770   4.113  1.00  0.00     0.168 HD
BRANCH  53  60
HETATM   60  N   UNK N   1      27.813  18.578   9.063  0.00  0.00    -0.383 N 
HETATM   61  H   UNK N   1      27.320  19.372   9.369  0.00  0.00     0.157 HD
HETATM   62  H   UNK N   1      28.071  17.909   9.737  0.00  0.00     0.157 HD
ENDBRANCH  53  60
ENDBRANCH   4  48
TORSDOF 21
ENDMDL
