REMARK  5 active torsions:
REMARK  status: ('A' for Active; 'I' for Inactive)
REMARK    1  A    between atoms: O_1  and  N_2 
REMARK       I    between atoms: N_2  and  C_3 
REMARK    2  A    between atoms: C_3  and  C_5 
REMARK    3  A    between atoms: C_5  and  C_6 
REMARK    4  A    between atoms: C_6  and  C_7 
REMARK    5  A    between atoms: C_7  and  P_8 
ROOT
HETATM    1  C   UNK N   1       2.713  -2.305   0.178  0.00  0.00     0.105 C 
ENDROOT
BRANCH   1   2
HETATM    2  C   UNK N   1       1.383  -1.626   0.080  0.00  0.00     0.240 C 
HETATM    3  N   UNK N   1       0.266  -2.352  -0.130  0.00  0.00    -0.237 N 
HETATM    4  H   UNK N   1       0.336  -3.329  -0.233  0.00  0.00     0.197 HD
HETATM    5  O   UNK N   1       1.295  -0.402   0.201  0.00  0.00    -0.271 OA
BRANCH   3   6
HETATM    6  O   UNK N   1      -0.935  -1.770  -0.202  0.00  0.00    -0.287 OA
HETATM    7  H   UNK N   1      -1.004  -0.803  -0.254  0.00  0.00     0.244 HD
ENDBRANCH   3   6
ENDBRANCH   1   2
BRANCH   1   8
HETATM    8  C   UNK N   1       3.829  -1.310   0.458  0.00  0.00     0.023 C 
BRANCH   8   9
HETATM    9  C   UNK N   1       5.159  -2.010   0.597  0.00  0.00     0.146 C 
BRANCH   9  10
HETATM   10  P   UNK N   1       6.526  -0.868   0.057  0.00  0.00     0.259 P 
HETATM   11  O   UNK N   1       8.071  -0.616   0.811  0.00  0.00    -0.640 OA
HETATM   12  O   UNK N   1       7.098  -1.899  -1.193  0.00  0.00    -0.640 OA
HETATM   13  O   UNK N   1       6.176   0.339  -0.858  0.00  0.00    -0.640 OA
ENDBRANCH   9  10
ENDBRANCH   8   9
ENDBRANCH   1   8
TORSDOF 5
