MODEL 1
REMARK VINA RESULT:      -3.4      0.000      0.000
REMARK  7 active torsions:
REMARK  status: ('A' for Active; 'I' for Inactive)
REMARK    1  A    between atoms: C_3  and  C_1 
REMARK    2  A    between atoms: S_7  and  C_1 
REMARK    3  A    between atoms: C_4  and  C_2 
REMARK    4  A    between atoms: S_8  and  C_2 
REMARK    5  A    between atoms: C_4  and  C_3 
REMARK    6  A    between atoms: C_3  and  O_5 
REMARK    7  A    between atoms: C_4  and  O_6 
ROOT
HETATM    1  C   UNK N   1      21.830  20.339   2.273  0.00  0.00     0.156 C 
ENDROOT
BRANCH   1   2
HETATM    2  C   UNK N   1      22.198  19.447   3.457  0.00  0.00     0.105 C 
BRANCH   2   3
HETATM    3  S   UNK N   1      23.998  19.397   3.719  0.00  0.00    -0.180 SA
HETATM    4  H   UNK N   1      24.800  20.328   3.136  0.00  0.00     0.101 HD
ENDBRANCH   2   3
ENDBRANCH   1   2
BRANCH   1   5
HETATM    5  C   UNK N   1      20.532  19.840   1.622  0.00  0.00     0.156 C 
BRANCH   5   6
HETATM    6  C   UNK N   1      20.206  18.432   2.118  0.00  0.00     0.105 C 
BRANCH   6   7
HETATM    7  S   UNK N   1      20.095  17.249   0.739  0.00  0.00    -0.180 SA
HETATM    8  H   UNK N   1      19.162  16.260   0.763  0.00  0.00     0.101 HD
ENDBRANCH   6   7
ENDBRANCH   5   6
BRANCH   5   9
HETATM    9  O   UNK N   1      20.679  19.821   0.233  0.00  0.00    -0.392 OA
HETATM   10  H   UNK N   1      20.780  19.266  -0.556  0.00  0.00     0.210 HD
ENDBRANCH   5   9
ENDBRANCH   1   5
BRANCH   1  11
HETATM   11  O   UNK N   1      21.658  21.654   2.715  0.00  0.00    -0.392 OA
HETATM   12  H   UNK N   1      22.097  22.449   3.057  0.00  0.00     0.210 HD
ENDBRANCH   1  11
TORSDOF 7
ENDMDL
MODEL 2
REMARK VINA RESULT:      -3.3      1.703      3.567
REMARK  7 active torsions:
REMARK  status: ('A' for Active; 'I' for Inactive)
REMARK    1  A    between atoms: C_3  and  C_1 
REMARK    2  A    between atoms: S_7  and  C_1 
REMARK    3  A    between atoms: C_4  and  C_2 
REMARK    4  A    between atoms: S_8  and  C_2 
REMARK    5  A    between atoms: C_4  and  C_3 
REMARK    6  A    between atoms: C_3  and  O_5 
REMARK    7  A    between atoms: C_4  and  O_6 
ROOT
HETATM    1  C   UNK N   1      21.021  19.739   3.361  0.00  0.00     0.156 C 
ENDROOT
BRANCH   1   2
HETATM    2  C   UNK N   1      20.236  18.957   2.309  0.00  0.00     0.105 C 
BRANCH   2   3
HETATM    3  S   UNK N   1      20.458  17.162   2.510  0.00  0.00    -0.180 SA
HETATM    4  H   UNK N   1      19.409  16.382   2.883  0.00  0.00     0.101 HD
ENDBRANCH   2   3
ENDBRANCH   1   2
BRANCH   1   5
HETATM    5  C   UNK N   1      22.302  20.314   2.741  0.00  0.00     0.156 C 
BRANCH   5   6
HETATM    6  C   UNK N   1      23.528  19.756   3.462  0.00  0.00     0.105 C 
BRANCH   6   7
HETATM    7  S   UNK N   1      25.072  20.415   2.759  0.00  0.00    -0.180 SA
HETATM    8  H   UNK N   1      25.702  21.461   3.359  0.00  0.00     0.101 HD
ENDBRANCH   6   7
ENDBRANCH   5   6
BRANCH   5   9
HETATM    9  O   UNK N   1      22.293  21.707   2.851  0.00  0.00    -0.392 OA
HETATM   10  H   UNK N   1      22.260  22.464   3.456  0.00  0.00     0.210 HD
ENDBRANCH   5   9
ENDBRANCH   1   5
BRANCH   1  11
HETATM   11  O   UNK N   1      20.229  20.780   3.856  0.00  0.00    -0.392 OA
HETATM   12  H   UNK N   1      19.572  21.041   4.520  0.00  0.00     0.210 HD
ENDBRANCH   1  11
TORSDOF 7
ENDMDL
MODEL 3
REMARK VINA RESULT:      -3.3     15.765     17.270
REMARK  7 active torsions:
REMARK  status: ('A' for Active; 'I' for Inactive)
REMARK    1  A    between atoms: C_3  and  C_1 
REMARK    2  A    between atoms: S_7  and  C_1 
REMARK    3  A    between atoms: C_4  and  C_2 
REMARK    4  A    between atoms: S_8  and  C_2 
REMARK    5  A    between atoms: C_4  and  C_3 
REMARK    6  A    between atoms: C_3  and  O_5 
REMARK    7  A    between atoms: C_4  and  O_6 
ROOT
HETATM    1  C   UNK N   1      35.523  16.292  10.763  0.00  0.00     0.156 C 
ENDROOT
BRANCH   1   2
HETATM    2  C   UNK N   1      35.026  16.032   9.342  0.00  0.00     0.105 C 
BRANCH   2   3
HETATM    3  S   UNK N   1      34.339  17.540   8.590  0.00  0.00    -0.180 SA
HETATM    4  H   UNK N   1      33.024  17.846   8.751  0.00  0.00     0.101 HD
ENDBRANCH   2   3
ENDBRANCH   1   2
BRANCH   1   5
HETATM    5  C   UNK N   1      34.872  15.300  11.738  0.00  0.00     0.156 C 
BRANCH   5   6
HETATM    6  C   UNK N   1      35.758  14.066  11.898  0.00  0.00     0.105 C 
BRANCH   6   7
HETATM    7  S   UNK N   1      36.225  13.802  13.637  0.00  0.00    -0.180 SA
HETATM    8  H   UNK N   1      35.364  13.184  14.489  0.00  0.00     0.101 HD
ENDBRANCH   6   7
ENDBRANCH   5   6
BRANCH   5   9
HETATM    9  O   UNK N   1      33.620  14.914  11.250  0.00  0.00    -0.392 OA
HETATM   10  H   UNK N   1      33.102  14.684  10.463  0.00  0.00     0.210 HD
ENDBRANCH   5   9
ENDBRANCH   1   5
BRANCH   1  11
HETATM   11  O   UNK N   1      36.913  16.148  10.806  0.00  0.00    -0.392 OA
HETATM   12  H   UNK N   1      37.652  15.550  11.001  0.00  0.00     0.210 HD
ENDBRANCH   1  11
TORSDOF 7
ENDMDL
MODEL 4
REMARK VINA RESULT:      -3.2     15.721     17.088
REMARK  7 active torsions:
REMARK  status: ('A' for Active; 'I' for Inactive)
REMARK    1  A    between atoms: C_3  and  C_1 
REMARK    2  A    between atoms: S_7  and  C_1 
REMARK    3  A    between atoms: C_4  and  C_2 
REMARK    4  A    between atoms: S_8  and  C_2 
REMARK    5  A    between atoms: C_4  and  C_3 
REMARK    6  A    between atoms: C_3  and  O_5 
REMARK    7  A    between atoms: C_4  and  O_6 
ROOT
HETATM    1  C   UNK N   1      34.848  15.083  11.573  0.00  0.00     0.156 C 
ENDROOT
BRANCH   1   2
HETATM    2  C   UNK N   1      35.598  13.780  11.301  0.00  0.00     0.105 C 
BRANCH   2   3
HETATM    3  S   UNK N   1      36.469  13.190  12.786  0.00  0.00    -0.180 SA
HETATM    4  H   UNK N   1      35.857  13.231  13.999  0.00  0.00     0.101 HD
ENDBRANCH   2   3
ENDBRANCH   1   2
BRANCH   1   5
HETATM    5  C   UNK N   1      35.435  16.215  10.718  0.00  0.00     0.156 C 
BRANCH   5   6
HETATM    6  C   UNK N   1      35.028  16.032   9.257  0.00  0.00     0.105 C 
BRANCH   6   7
HETATM    7  S   UNK N   1      34.336  17.565   8.560  0.00  0.00    -0.180 SA
HETATM    8  H   UNK N   1      33.823  18.518   9.383  0.00  0.00     0.101 HD
ENDBRANCH   6   7
ENDBRANCH   5   6
BRANCH   5   9
HETATM    9  O   UNK N   1      36.829  16.206  10.817  0.00  0.00    -0.392 OA
HETATM   10  H   UNK N   1      37.606  15.732  11.149  0.00  0.00     0.210 HD
ENDBRANCH   5   9
ENDBRANCH   1   5
BRANCH   1  11
HETATM   11  O   UNK N   1      33.495  14.916  11.267  0.00  0.00    -0.392 OA
HETATM   12  H   UNK N   1      32.617  15.329  11.260  0.00  0.00     0.210 HD
ENDBRANCH   1  11
TORSDOF 7
ENDMDL
MODEL 5
REMARK VINA RESULT:      -3.2      0.441      3.458
REMARK  7 active torsions:
REMARK  status: ('A' for Active; 'I' for Inactive)
REMARK    1  A    between atoms: C_3  and  C_1 
REMARK    2  A    between atoms: S_7  and  C_1 
REMARK    3  A    between atoms: C_4  and  C_2 
REMARK    4  A    between atoms: S_8  and  C_2 
REMARK    5  A    between atoms: C_4  and  C_3 
REMARK    6  A    between atoms: C_3  and  O_5 
REMARK    7  A    between atoms: C_4  and  O_6 
ROOT
HETATM    1  C   UNK N   1      20.391  19.554   1.643  0.00  0.00     0.156 C 
ENDROOT
BRANCH   1   2
HETATM    2  C   UNK N   1      20.228  18.077   1.996  0.00  0.00     0.105 C 
BRANCH   2   3
HETATM    3  S   UNK N   1      19.980  17.059   0.508  0.00  0.00    -0.180 SA
HETATM    4  H   UNK N   1      18.732  16.643   0.165  0.00  0.00     0.101 HD
ENDBRANCH   2   3
ENDBRANCH   1   2
BRANCH   1   5
HETATM    5  C   UNK N   1      21.528  20.170   2.470  0.00  0.00     0.156 C 
BRANCH   5   6
HETATM    6  C   UNK N   1      21.776  19.332   3.723  0.00  0.00     0.105 C 
BRANCH   6   7
HETATM    7  S   UNK N   1      23.536  18.899   3.898  0.00  0.00    -0.180 SA
HETATM    8  H   UNK N   1      24.027  18.517   5.106  0.00  0.00     0.101 HD
ENDBRANCH   6   7
ENDBRANCH   5   6
BRANCH   5   9
HETATM    9  O   UNK N   1      21.187  21.473   2.842  0.00  0.00    -0.392 OA
HETATM   10  H   UNK N   1      21.483  22.286   3.281  0.00  0.00     0.210 HD
ENDBRANCH   5   9
ENDBRANCH   1   5
BRANCH   1  11
HETATM   11  O   UNK N   1      20.679  19.680   0.280  0.00  0.00    -0.392 OA
HETATM   12  H   UNK N   1      20.326  19.629  -0.622  0.00  0.00     0.210 HD
ENDBRANCH   1  11
TORSDOF 7
ENDMDL
MODEL 6
REMARK VINA RESULT:      -3.2     11.098     11.741
REMARK  7 active torsions:
REMARK  status: ('A' for Active; 'I' for Inactive)
REMARK    1  A    between atoms: C_3  and  C_1 
REMARK    2  A    between atoms: S_7  and  C_1 
REMARK    3  A    between atoms: C_4  and  C_2 
REMARK    4  A    between atoms: S_8  and  C_2 
REMARK    5  A    between atoms: C_4  and  C_3 
REMARK    6  A    between atoms: C_3  and  O_5 
REMARK    7  A    between atoms: C_4  and  O_6 
ROOT
HETATM    1  C   UNK N   1      31.593  21.924  -3.198  0.00  0.00     0.156 C 
ENDROOT
BRANCH   1   2
HETATM    2  C   UNK N   1      30.973  20.745  -3.946  0.00  0.00     0.105 C 
BRANCH   2   3
HETATM    3  S   UNK N   1      30.217  21.274  -5.515  0.00  0.00    -0.180 SA
HETATM    4  H   UNK N   1      30.319  20.490  -6.621  0.00  0.00     0.101 HD
ENDBRANCH   2   3
ENDBRANCH   1   2
BRANCH   1   5
HETATM    5  C   UNK N   1      30.496  22.899  -2.751  0.00  0.00     0.156 C 
BRANCH   5   6
HETATM    6  C   UNK N   1      30.748  24.281  -3.351  0.00  0.00     0.105 C 
BRANCH   6   7
HETATM    7  S   UNK N   1      29.224  24.996  -4.044  0.00  0.00    -0.180 SA
HETATM    8  H   UNK N   1      29.206  25.451  -5.326  0.00  0.00     0.101 HD
ENDBRANCH   6   7
ENDBRANCH   5   6
BRANCH   5   9
HETATM    9  O   UNK N   1      30.488  22.992  -1.357  0.00  0.00    -0.392 OA
HETATM   10  H   UNK N   1      30.105  23.436  -0.584  0.00  0.00     0.210 HD
ENDBRANCH   5   9
ENDBRANCH   1   5
BRANCH   1  11
HETATM   11  O   UNK N   1      32.289  21.454  -2.080  0.00  0.00    -0.392 OA
HETATM   12  H   UNK N   1      32.815  21.698  -1.302  0.00  0.00     0.210 HD
ENDBRANCH   1  11
TORSDOF 7
ENDMDL
MODEL 7
REMARK VINA RESULT:      -3.2     17.396     17.942
REMARK  7 active torsions:
REMARK  status: ('A' for Active; 'I' for Inactive)
REMARK    1  A    between atoms: C_3  and  C_1 
REMARK    2  A    between atoms: S_7  and  C_1 
REMARK    3  A    between atoms: C_4  and  C_2 
REMARK    4  A    between atoms: S_8  and  C_2 
REMARK    5  A    between atoms: C_4  and  C_3 
REMARK    6  A    between atoms: C_3  and  O_5 
REMARK    7  A    between atoms: C_4  and  O_6 
ROOT
HETATM    1  C   UNK N   1      34.875  15.059  11.618  0.00  0.00     0.156 C 
ENDROOT
BRANCH   1   2
HETATM    2  C   UNK N   1      35.273  13.733  12.264  0.00  0.00     0.105 C 
BRANCH   2   3
HETATM    3  S   UNK N   1      36.237  13.995  13.785  0.00  0.00    -0.180 SA
HETATM    4  H   UNK N   1      35.638  13.885  15.001  0.00  0.00     0.101 HD
ENDBRANCH   2   3
ENDBRANCH   1   2
BRANCH   1   5
HETATM    5  C   UNK N   1      35.793  15.359  10.425  0.00  0.00     0.156 C 
BRANCH   5   6
HETATM    6  C   UNK N   1      36.291  14.053   9.807  0.00  0.00     0.105 C 
BRANCH   6   7
HETATM    7  S   UNK N   1      38.105  14.034   9.658  0.00  0.00    -0.180 SA
HETATM    8  H   UNK N   1      38.714  13.120   8.857  0.00  0.00     0.101 HD
ENDBRANCH   6   7
ENDBRANCH   5   6
BRANCH   5   9
HETATM    9  O   UNK N   1      36.886  16.118  10.851  0.00  0.00    -0.392 OA
HETATM   10  H   UNK N   1      37.175  16.932  11.292  0.00  0.00     0.210 HD
ENDBRANCH   5   9
ENDBRANCH   1   5
BRANCH   1  11
HETATM   11  O   UNK N   1      33.548  14.988  11.184  0.00  0.00    -0.392 OA
HETATM   12  H   UNK N   1      32.625  15.204  11.389  0.00  0.00     0.210 HD
ENDBRANCH   1  11
TORSDOF 7
ENDMDL
MODEL 8
REMARK VINA RESULT:      -3.2     17.397     17.949
REMARK  7 active torsions:
REMARK  status: ('A' for Active; 'I' for Inactive)
REMARK    1  A    between atoms: C_3  and  C_1 
REMARK    2  A    between atoms: S_7  and  C_1 
REMARK    3  A    between atoms: C_4  and  C_2 
REMARK    4  A    between atoms: S_8  and  C_2 
REMARK    5  A    between atoms: C_4  and  C_3 
REMARK    6  A    between atoms: C_3  and  O_5 
REMARK    7  A    between atoms: C_4  and  O_6 
ROOT
HETATM    1  C   UNK N   1      35.797  15.350  10.419  0.00  0.00     0.156 C 
ENDROOT
BRANCH   1   2
HETATM    2  C   UNK N   1      36.296  14.041   9.811  0.00  0.00     0.105 C 
BRANCH   2   3
HETATM    3  S   UNK N   1      38.110  14.021   9.668  0.00  0.00    -0.180 SA
HETATM    4  H   UNK N   1      38.859  14.928  10.349  0.00  0.00     0.101 HD
ENDBRANCH   2   3
ENDBRANCH   1   2
BRANCH   1   5
HETATM    5  C   UNK N   1      34.875  15.058  11.612  0.00  0.00     0.156 C 
BRANCH   5   6
HETATM    6  C   UNK N   1      35.269  13.735  12.265  0.00  0.00     0.105 C 
BRANCH   6   7
HETATM    7  S   UNK N   1      36.242  14.002  13.780  0.00  0.00    -0.180 SA
HETATM    8  H   UNK N   1      36.717  15.241  14.076  0.00  0.00     0.101 HD
ENDBRANCH   6   7
ENDBRANCH   5   6
BRANCH   5   9
HETATM    9  O   UNK N   1      33.549  14.986  11.175  0.00  0.00    -0.392 OA
HETATM   10  H   UNK N   1      32.649  15.330  11.284  0.00  0.00     0.210 HD
ENDBRANCH   5   9
ENDBRANCH   1   5
BRANCH   1  11
HETATM   11  O   UNK N   1      36.888  16.114  10.844  0.00  0.00    -0.392 OA
HETATM   12  H   UNK N   1      37.503  16.298  11.571  0.00  0.00     0.210 HD
ENDBRANCH   1  11
TORSDOF 7
ENDMDL
MODEL 9
REMARK VINA RESULT:      -3.2      8.983     10.406
REMARK  7 active torsions:
REMARK  status: ('A' for Active; 'I' for Inactive)
REMARK    1  A    between atoms: C_3  and  C_1 
REMARK    2  A    between atoms: S_7  and  C_1 
REMARK    3  A    between atoms: C_4  and  C_2 
REMARK    4  A    between atoms: S_8  and  C_2 
REMARK    5  A    between atoms: C_4  and  C_3 
REMARK    6  A    between atoms: C_3  and  O_5 
REMARK    7  A    between atoms: C_4  and  O_6 
ROOT
HETATM    1  C   UNK N   1      29.793  18.444   8.958  0.00  0.00     0.156 C 
ENDROOT
BRANCH   1   2
HETATM    2  C   UNK N   1      30.707  17.246   8.708  0.00  0.00     0.105 C 
BRANCH   2   3
HETATM    3  S   UNK N   1      32.396  17.774   8.282  0.00  0.00    -0.180 SA
HETATM    4  H   UNK N   1      33.038  18.695   9.049  0.00  0.00     0.101 HD
ENDBRANCH   2   3
ENDBRANCH   1   2
BRANCH   1   5
HETATM    5  C   UNK N   1      28.394  18.166   8.389  0.00  0.00     0.156 C 
BRANCH   5   6
HETATM    6  C   UNK N   1      28.053  19.195   7.314  0.00  0.00     0.105 C 
BRANCH   6   7
HETATM    7  S   UNK N   1      28.248  18.502   5.641  0.00  0.00    -0.180 SA
HETATM    8  H   UNK N   1      29.445  18.592   5.001  0.00  0.00     0.101 HD
ENDBRANCH   6   7
ENDBRANCH   5   6
BRANCH   5   9
HETATM    9  O   UNK N   1      27.447  18.233   9.415  0.00  0.00    -0.392 OA
HETATM   10  H   UNK N   1      27.268  18.521  10.324  0.00  0.00     0.210 HD
ENDBRANCH   5   9
ENDBRANCH   1   5
BRANCH   1  11
HETATM   11  O   UNK N   1      29.702  18.684  10.333  0.00  0.00    -0.392 OA
HETATM   12  H   UNK N   1      29.633  18.284  11.214  0.00  0.00     0.210 HD
ENDBRANCH   1  11
TORSDOF 7
ENDMDL
