REMARK  3 active torsions:
REMARK  status: ('A' for Active; 'I' for Inactive)
REMARK    1  A    between atoms: O_2  and  C_3 
REMARK    2  A    between atoms: C_3  and  C_4 
REMARK    3  A    between atoms: C_4  and  O_5 
ROOT
HETATM    1  C   UNK N   1       0.963   0.505  -0.000  0.00  0.00     0.193 C 
ENDROOT
BRANCH   1   2
HETATM    2  O   UNK N   1      -0.142   1.352   0.000  0.00  0.00    -0.394 OA
HETATM    3  C   UNK N   1      -1.239   0.492  -0.000  0.00  0.00     0.201 C 
ENDBRANCH   1   2
BRANCH   1   4
HETATM    4  C   UNK N   1       2.227   1.336  -0.000  0.00  0.00     0.193 C 
BRANCH   4   5
HETATM    5  O   UNK N   1       3.332   0.489   0.000  0.00  0.00    -0.394 OA
HETATM    6  C   UNK N   1       4.428   1.349  -0.000  0.00  0.00     0.201 C 
ENDBRANCH   4   5
ENDBRANCH   1   4
TORSDOF 3
