REMARK  6 active torsions:
REMARK  status: ('A' for Active; 'I' for Inactive)
REMARK    1  A    between atoms: P_2  and  O_3 
REMARK    2  A    between atoms: P_2  and  C_5 
REMARK    3  A    between atoms: C_5  and  C_6 
REMARK    4  A    between atoms: C_6  and  C_8 
REMARK    5  A    between atoms: C_8  and  C_9 
REMARK    6  A    between atoms: C_9  and  O_10 
ROOT
HETATM    1  C   UNK N   1       4.213   1.679   0.025  0.00  0.00     0.145 C 
HETATM    2  O   UNK N   1       4.066   0.466   0.075  0.00  0.00    -0.297 OA
ENDROOT
BRANCH   1   3
HETATM    3  C   UNK N   1       3.030   2.598  -0.077  0.00  0.00     0.172 C 
BRANCH   3   4
HETATM    4  P   UNK N   1       1.365   1.748  -0.084  0.00  0.00     0.101 P 
HETATM    5  C   UNK N   1       0.722   0.806   1.384  0.00  0.00     0.109 C 
HETATM    6  O   UNK N   1       0.336   2.887  -0.316  0.00  0.00    -0.674 OA
BRANCH   4   7
HETATM    7  O   UNK N   1       1.152   0.817  -1.532  0.00  0.00    -0.349 OA
HETATM    8  H   UNK N   1       0.641   0.660  -2.342  0.00  0.00     0.217 HD
ENDBRANCH   4   7
ENDBRANCH   3   4
ENDBRANCH   1   3
BRANCH   1   9
HETATM    9  C   UNK N   1       5.583   2.311   0.075  0.00  0.00     0.188 C 
BRANCH   9  10
HETATM   10  C   UNK N   1       6.791   1.412   0.133  0.00  0.00     0.146 C 
HETATM   11  O   UNK N   1       6.687   0.197   0.076  0.00  0.00    -0.650 OA
BRANCH  10  12
HETATM   12  O   UNK N   1       8.012   1.967   0.243  0.00  0.00    -0.776 OA
HETATM   13  H   UNK N   1       8.772   1.425   0.319  0.00  0.00     0.167 HD
ENDBRANCH  10  12
ENDBRANCH   9  10
ENDBRANCH   1   9
TORSDOF 6
