MODEL 1
REMARK VINA RESULT:      -2.7      0.000      0.000
REMARK  1 active torsions:
REMARK  status: ('A' for Active; 'I' for Inactive)
REMARK    1  A    between atoms: N_2  and  C_4 
ROOT
HETATM    1  C   UNK N   1      19.868  19.145   2.594  0.00  0.00     0.151 C 
HETATM    2  N   UNK N   1      20.884  20.073   2.177  0.00  0.00    -0.368 N 
HETATM    3  C   UNK N   1      22.135  20.114   2.891  0.00  0.00     0.151 C 
ENDROOT
BRANCH   2   4
HETATM    4  C   UNK N   1      20.640  20.886   1.123  0.00  0.00     0.350 C 
HETATM    5  O   UNK N   1      21.178  20.698   0.040  0.00  0.00    -0.284 OA
ENDBRANCH   2   4
TORSDOF 1
ENDMDL
MODEL 2
REMARK VINA RESULT:      -2.7     15.417     15.719
REMARK  1 active torsions:
REMARK  status: ('A' for Active; 'I' for Inactive)
REMARK    1  A    between atoms: N_2  and  C_4 
ROOT
HETATM    1  C   UNK N   1      34.986  16.846   9.919  0.00  0.00     0.151 C 
HETATM    2  N   UNK N   1      34.594  17.137   8.568  0.00  0.00    -0.368 N 
HETATM    3  C   UNK N   1      34.278  16.048   7.677  0.00  0.00     0.151 C 
ENDROOT
BRANCH   2   4
HETATM    4  C   UNK N   1      34.530  18.427   8.163  0.00  0.00     0.350 C 
HETATM    5  O   UNK N   1      35.336  19.256   8.562  0.00  0.00    -0.284 OA
ENDBRANCH   2   4
TORSDOF 1
ENDMDL
MODEL 3
REMARK VINA RESULT:      -2.7      0.364      1.586
REMARK  1 active torsions:
REMARK  status: ('A' for Active; 'I' for Inactive)
REMARK    1  A    between atoms: N_2  and  C_4 
ROOT
HETATM    1  C   UNK N   1      22.331  20.376   2.721  0.00  0.00     0.151 C 
HETATM    2  N   UNK N   1      20.976  20.340   2.243  0.00  0.00    -0.368 N 
HETATM    3  C   UNK N   1      19.978  19.639   3.010  0.00  0.00     0.151 C 
ENDROOT
BRANCH   2   4
HETATM    4  C   UNK N   1      20.670  20.966   1.082  0.00  0.00     0.350 C 
HETATM    5  O   UNK N   1      21.251  20.689   0.041  0.00  0.00    -0.284 OA
ENDBRANCH   2   4
TORSDOF 1
ENDMDL
MODEL 4
REMARK VINA RESULT:      -2.7     14.092     14.626
REMARK  1 active torsions:
REMARK  status: ('A' for Active; 'I' for Inactive)
REMARK    1  A    between atoms: N_2  and  C_4 
ROOT
HETATM    1  C   UNK N   1      32.347  18.006   8.310  0.00  0.00     0.151 C 
HETATM    2  N   UNK N   1      33.630  17.870   7.677  0.00  0.00    -0.368 N 
HETATM    3  C   UNK N   1      33.694  17.479   6.292  0.00  0.00     0.151 C 
ENDROOT
BRANCH   2   4
HETATM    4  C   UNK N   1      34.749  18.113   8.398  0.00  0.00     0.350 C 
HETATM    5  O   UNK N   1      35.231  19.236   8.460  0.00  0.00    -0.284 OA
ENDBRANCH   2   4
TORSDOF 1
ENDMDL
MODEL 5
REMARK VINA RESULT:      -2.4      2.033      2.716
REMARK  1 active torsions:
REMARK  status: ('A' for Active; 'I' for Inactive)
REMARK    1  A    between atoms: N_2  and  C_4 
ROOT
HETATM    1  C   UNK N   1      20.969  20.303   1.148  0.00  0.00     0.151 C 
HETATM    2  N   UNK N   1      20.639  19.341   2.163  0.00  0.00    -0.368 N 
HETATM    3  C   UNK N   1      20.198  18.027   1.770  0.00  0.00     0.151 C 
ENDROOT
BRANCH   2   4
HETATM    4  C   UNK N   1      20.750  19.693   3.465  0.00  0.00     0.350 C 
HETATM    5  O   UNK N   1      20.333  20.771   3.868  0.00  0.00    -0.284 OA
ENDBRANCH   2   4
TORSDOF 1
ENDMDL
MODEL 6
REMARK VINA RESULT:      -2.4     12.023     12.431
REMARK  1 active torsions:
REMARK  status: ('A' for Active; 'I' for Inactive)
REMARK    1  A    between atoms: N_2  and  C_4 
ROOT
HETATM    1  C   UNK N   1      23.115  11.875  12.825  0.00  0.00     0.151 C 
HETATM    2  N   UNK N   1      23.246  12.176  11.426  0.00  0.00    -0.368 N 
HETATM    3  C   UNK N   1      24.553  12.152  10.820  0.00  0.00     0.151 C 
ENDROOT
BRANCH   2   4
HETATM    4  C   UNK N   1      22.137  12.476  10.711  0.00  0.00     0.350 C 
HETATM    5  O   UNK N   1      22.010  13.564  10.165  0.00  0.00    -0.284 OA
ENDBRANCH   2   4
TORSDOF 1
ENDMDL
MODEL 7
REMARK VINA RESULT:      -2.4     11.741     12.265
REMARK  1 active torsions:
REMARK  status: ('A' for Active; 'I' for Inactive)
REMARK    1  A    between atoms: N_2  and  C_4 
ROOT
HETATM    1  C   UNK N   1      24.600  13.074   9.479  0.00  0.00     0.151 C 
HETATM    2  N   UNK N   1      23.452  12.797  10.297  0.00  0.00    -0.368 N 
HETATM    3  C   UNK N   1      22.189  13.408   9.969  0.00  0.00     0.151 C 
ENDROOT
BRANCH   2   4
HETATM    4  C   UNK N   1      23.585  11.967  11.358  0.00  0.00     0.350 C 
HETATM    5  O   UNK N   1      24.602  11.966  12.039  0.00  0.00    -0.284 OA
ENDBRANCH   2   4
TORSDOF 1
ENDMDL
MODEL 8
REMARK VINA RESULT:      -2.3     10.114     10.641
REMARK  1 active torsions:
REMARK  status: ('A' for Active; 'I' for Inactive)
REMARK    1  A    between atoms: N_2  and  C_4 
ROOT
HETATM    1  C   UNK N   1      30.294  22.292  -4.180  0.00  0.00     0.151 C 
HETATM    2  N   UNK N   1      29.378  23.096  -3.419  0.00  0.00    -0.368 N 
HETATM    3  C   UNK N   1      28.456  23.960  -4.112  0.00  0.00     0.151 C 
ENDROOT
BRANCH   2   4
HETATM    4  C   UNK N   1      29.403  23.023  -2.068  0.00  0.00     0.350 C 
HETATM    5  O   UNK N   1      30.462  22.991  -1.455  0.00  0.00    -0.284 OA
ENDBRANCH   2   4
TORSDOF 1
ENDMDL
MODEL 9
REMARK VINA RESULT:      -2.3      2.567      3.245
REMARK  1 active torsions:
REMARK  status: ('A' for Active; 'I' for Inactive)
REMARK    1  A    between atoms: N_2  and  C_4 
ROOT
HETATM    1  C   UNK N   1      23.067  18.723   3.957  0.00  0.00     0.151 C 
HETATM    2  N   UNK N   1      23.101  19.952   3.214  0.00  0.00    -0.368 N 
HETATM    3  C   UNK N   1      21.889  20.442   2.608  0.00  0.00     0.151 C 
ENDROOT
BRANCH   2   4
HETATM    4  C   UNK N   1      24.273  20.621   3.099  0.00  0.00     0.350 C 
HETATM    5  O   UNK N   1      24.794  20.804   2.008  0.00  0.00    -0.284 OA
ENDBRANCH   2   4
TORSDOF 1
ENDMDL
