REMARK  5 active torsions:
REMARK  status: ('A' for Active; 'I' for Inactive)
REMARK    1  A    between atoms: O_1  and  C_2 
REMARK    2  A    between atoms: C_3  and  C_2 
REMARK    3  A    between atoms: C_5  and  N_10 
REMARK    4  A    between atoms: C_6  and  O_7 
REMARK    5  A    between atoms: C_8  and  O_9 
ROOT
HETATM    1  C   UNK N   1       0.152  -0.044   0.625  0.00  0.00     0.179 C 
HETATM    2  O   UNK N   1       1.228  -0.946   0.492  0.00  0.00    -0.353 OA
HETATM    3  C   UNK N   1       0.703  -2.027  -0.237  0.00  0.00     0.264 C 
HETATM    4  C   UNK N   1      -0.756  -2.128   0.128  0.00  0.00     0.198 C 
HETATM    5  C   UNK N   1      -1.065  -0.678  -0.032  0.00  0.00     0.182 C 
ENDROOT
BRANCH   3   6
HETATM    6  N   UNK N   1       1.565  -3.216  -0.125  0.00  0.00    -0.277 N 
HETATM    7  C   UNK N   1       2.818  -3.075  -0.636  0.00  0.00     0.146 A 
HETATM    8  C   UNK N   1       3.724  -4.126  -0.629  0.00  0.00     0.199 A 
HETATM    9  F   UNK N   1       4.964  -3.957  -1.151  0.00  0.00    -0.199 F 
HETATM   10  C   UNK N   1       3.331  -5.345  -0.088  0.00  0.00     0.289 A 
HETATM   11  O   UNK N   1       4.101  -6.289  -0.078  0.00  0.00    -0.265 OA
HETATM   12  N   UNK N   1       2.075  -5.482   0.434  0.00  0.00    -0.273 N 
HETATM   13  C   UNK N   1       1.186  -4.435   0.425  0.00  0.00     0.331 A 
HETATM   14  H   UNK N   1       1.803  -6.344   0.823  0.00  0.00     0.173 HD
HETATM   15  O   UNK N   1       0.079  -4.595   0.902  0.00  0.00    -0.246 OA
ENDBRANCH   3   6
BRANCH   4  16
HETATM   16  O   UNK N   1      -1.463  -2.886  -0.806  0.00  0.00    -0.388 OA
HETATM   17  H   UNK N   1      -2.165  -2.724  -1.456  0.00  0.00     0.210 HD
ENDBRANCH   4  16
BRANCH   1  18
HETATM   18  C   UNK N   1       0.513   1.270  -0.053  0.00  0.00     0.198 C 
BRANCH  18  19
HETATM   19  O   UNK N   1      -0.426   2.254   0.252  0.00  0.00    -0.398 OA
HETATM   20  H   UNK N   1      -0.160   3.162   0.464  0.00  0.00     0.209 HD
ENDBRANCH  18  19
ENDBRANCH   1  18
BRANCH   5  21
HETATM   21  O   UNK N   1      -2.253  -0.319   0.605  0.00  0.00    -0.390 OA
HETATM   22  H   UNK N   1      -2.450   0.521   1.048  0.00  0.00     0.210 HD
ENDBRANCH   5  21
TORSDOF 5
