MODEL 1
REMARK VINA RESULT:      -5.2      0.000      0.000
REMARK  11 active torsions:
REMARK  status: ('A' for Active; 'I' for Inactive)
REMARK    1  A    between atoms: C_2  and  C_3 
REMARK    2  A    between atoms: C_2  and  C_5 
REMARK    3  A    between atoms: C_3  and  O_4 
REMARK    4  A    between atoms: C_5  and  C_6 
REMARK    5  A    between atoms: C_6  and  O_7 
REMARK    6  A    between atoms: P_8  and  O_7 
REMARK    7  A    between atoms: P_8  and  O_9 
REMARK    8  A    between atoms: P_8  and  O_11 
REMARK    9  A    between atoms: O_11  and  P_12 
REMARK   10  A    between atoms: P_12  and  O_13 
REMARK   11  A    between atoms: P_12  and  O_14 
ROOT
HETATM    1  P   UNK N   1      36.006  13.567  13.179  0.00  0.00     0.401 P 
HETATM    2  O   UNK N   1      34.574  13.798  12.629  0.00  0.00    -0.631 OA
ENDROOT
BRANCH   1   3
HETATM    3  O   UNK N   1      35.025  13.363  14.602  0.00  0.00    -0.297 OA
BRANCH   3   4
HETATM    4  C   UNK N   1      35.921  13.242  15.668  0.00  0.00     0.181 C 
BRANCH   4   5
HETATM    5  C   UNK N   1      35.262  12.526  16.835  0.00  0.00     0.033 C 
BRANCH   5   6
HETATM    6  C   UNK N   1      35.035  13.484  17.998  0.00  0.00     0.007 C 
HETATM    7  C   UNK N   1      35.896  14.731  17.849  0.00  0.00     0.012 C 
BRANCH   6   8
HETATM    8  C   UNK N   1      35.369  12.780  19.301  0.00  0.00     0.168 C 
BRANCH   8   9
HETATM    9  O   UNK N   1      34.669  13.365  20.359  0.00  0.00    -0.400 OA
HETATM   10  H   UNK N   1      34.612  14.327  20.466  0.00  0.00     0.209 HD
ENDBRANCH   8   9
ENDBRANCH   6   8
ENDBRANCH   5   6
ENDBRANCH   4   5
ENDBRANCH   3   4
ENDBRANCH   1   3
BRANCH   1  11
HETATM   11  O   UNK N   1      36.406  14.805  14.331  0.00  0.00    -0.307 OA
HETATM   12  H   UNK N   1      36.484  15.769  14.404  0.00  0.00     0.222 HD
ENDBRANCH   1  11
BRANCH   1  13
HETATM   13  O   UNK N   1      36.152  15.123  12.413  0.00  0.00    -0.195 OA
BRANCH  13  14
HETATM   14  P   UNK N   1      36.360  14.790  10.717  0.00  0.00     0.399 P 
HETATM   15  O   UNK N   1      36.694  16.302  10.807  0.00  0.00    -0.631 OA
BRANCH  14  16
HETATM   16  O   UNK N   1      37.934  14.886   9.993  0.00  0.00    -0.307 OA
HETATM   17  H   UNK N   1      38.645  14.287  10.269  0.00  0.00     0.222 HD
ENDBRANCH  14  16
BRANCH  14  18
HETATM   18  O   UNK N   1      37.512  13.868  11.631  0.00  0.00    -0.307 OA
HETATM   19  H   UNK N   1      37.457  13.427  12.493  0.00  0.00     0.222 HD
ENDBRANCH  14  18
ENDBRANCH  13  14
ENDBRANCH   1  13
TORSDOF 11
ENDMDL
MODEL 2
REMARK VINA RESULT:      -5.1     15.234     16.407
REMARK  11 active torsions:
REMARK  status: ('A' for Active; 'I' for Inactive)
REMARK    1  A    between atoms: C_2  and  C_3 
REMARK    2  A    between atoms: C_2  and  C_5 
REMARK    3  A    between atoms: C_3  and  O_4 
REMARK    4  A    between atoms: C_5  and  C_6 
REMARK    5  A    between atoms: C_6  and  O_7 
REMARK    6  A    between atoms: P_8  and  O_7 
REMARK    7  A    between atoms: P_8  and  O_9 
REMARK    8  A    between atoms: P_8  and  O_11 
REMARK    9  A    between atoms: O_11  and  P_12 
REMARK   10  A    between atoms: P_12  and  O_13 
REMARK   11  A    between atoms: P_12  and  O_14 
ROOT
HETATM    1  P   UNK N   1      20.962  15.025   7.670  0.00  0.00     0.401 P 
HETATM    2  O   UNK N   1      19.855  14.441   6.753  0.00  0.00    -0.631 OA
ENDROOT
BRANCH   1   3
HETATM    3  O   UNK N   1      20.362  13.693   8.615  0.00  0.00    -0.297 OA
BRANCH   3   4
HETATM    4  C   UNK N   1      20.917  13.850   9.889  0.00  0.00     0.181 C 
BRANCH   4   5
HETATM    5  C   UNK N   1      21.467  12.526  10.393  0.00  0.00     0.033 C 
BRANCH   5   6
HETATM    6  C   UNK N   1      22.989  12.510  10.316  0.00  0.00     0.007 C 
HETATM    7  C   UNK N   1      23.464  11.682   9.130  0.00  0.00     0.012 C 
BRANCH   6   8
HETATM    8  C   UNK N   1      23.551  11.935  11.604  0.00  0.00     0.168 C 
BRANCH   8   9
HETATM    9  O   UNK N   1      24.898  12.275  11.738  0.00  0.00    -0.400 OA
HETATM   10  H   UNK N   1      25.587  11.864  11.193  0.00  0.00     0.209 HD
ENDBRANCH   8   9
ENDBRANCH   6   8
ENDBRANCH   5   6
ENDBRANCH   4   5
ENDBRANCH   3   4
ENDBRANCH   1   3
BRANCH   1  11
HETATM   11  O   UNK N   1      20.257  15.637   9.135  0.00  0.00    -0.307 OA
HETATM   12  H   UNK N   1      19.897  16.454   9.514  0.00  0.00     0.222 HD
ENDBRANCH   1  11
BRANCH   1  13
HETATM   13  O   UNK N   1      19.967  16.419   7.361  0.00  0.00    -0.195 OA
BRANCH  13  14
HETATM   14  P   UNK N   1      19.334  16.893   8.912  0.00  0.00     0.399 P 
HETATM   15  O   UNK N   1      20.005  18.198   8.408  0.00  0.00    -0.631 OA
BRANCH  14  16
HETATM   16  O   UNK N   1      18.051  18.055   9.015  0.00  0.00    -0.307 OA
HETATM   17  H   UNK N   1      17.757  18.396   9.874  0.00  0.00     0.222 HD
ENDBRANCH  14  16
BRANCH  14  18
HETATM   18  O   UNK N   1      18.023  16.452   7.865  0.00  0.00    -0.307 OA
HETATM   19  H   UNK N   1      17.925  15.750   7.203  0.00  0.00     0.222 HD
ENDBRANCH  14  18
ENDBRANCH  13  14
ENDBRANCH   1  13
TORSDOF 11
ENDMDL
MODEL 3
REMARK VINA RESULT:      -5.0      2.102      2.464
REMARK  11 active torsions:
REMARK  status: ('A' for Active; 'I' for Inactive)
REMARK    1  A    between atoms: C_2  and  C_3 
REMARK    2  A    between atoms: C_2  and  C_5 
REMARK    3  A    between atoms: C_3  and  O_4 
REMARK    4  A    between atoms: C_5  and  C_6 
REMARK    5  A    between atoms: C_6  and  O_7 
REMARK    6  A    between atoms: P_8  and  O_7 
REMARK    7  A    between atoms: P_8  and  O_9 
REMARK    8  A    between atoms: P_8  and  O_11 
REMARK    9  A    between atoms: O_11  and  P_12 
REMARK   10  A    between atoms: P_12  and  O_13 
REMARK   11  A    between atoms: P_12  and  O_14 
ROOT
HETATM    1  P   UNK N   1      36.173  13.728  12.845  0.00  0.00     0.401 P 
HETATM    2  O   UNK N   1      34.648  13.446  12.853  0.00  0.00    -0.631 OA
ENDROOT
BRANCH   1   3
HETATM    3  O   UNK N   1      35.828  13.601  14.546  0.00  0.00    -0.297 OA
BRANCH   3   4
HETATM    4  C   UNK N   1      36.953  12.999  15.119  0.00  0.00     0.181 C 
BRANCH   4   5
HETATM    5  C   UNK N   1      36.660  11.549  15.464  0.00  0.00     0.033 C 
BRANCH   5   6
HETATM    6  C   UNK N   1      35.370  11.435  16.267  0.00  0.00     0.007 C 
HETATM    7  C   UNK N   1      35.642  10.873  17.655  0.00  0.00     0.012 C 
BRANCH   6   8
HETATM    8  C   UNK N   1      34.396  10.535  15.528  0.00  0.00     0.168 C 
BRANCH   8   9
HETATM    9  O   UNK N   1      33.754  11.248  14.513  0.00  0.00    -0.400 OA
HETATM   10  H   UNK N   1      33.868  12.205  14.409  0.00  0.00     0.209 HD
ENDBRANCH   8   9
ENDBRANCH   6   8
ENDBRANCH   5   6
ENDBRANCH   4   5
ENDBRANCH   3   4
ENDBRANCH   1   3
BRANCH   1  11
HETATM   11  O   UNK N   1      36.498  15.254  13.610  0.00  0.00    -0.307 OA
HETATM   12  H   UNK N   1      36.203  16.178  13.603  0.00  0.00     0.222 HD
ENDBRANCH   1  11
BRANCH   1  13
HETATM   13  O   UNK N   1      35.548  15.054  11.906  0.00  0.00    -0.195 OA
BRANCH  13  14
HETATM   14  P   UNK N   1      36.321  14.928  10.352  0.00  0.00     0.399 P 
HETATM   15  O   UNK N   1      36.599  16.402  10.748  0.00  0.00    -0.631 OA
BRANCH  14  16
HETATM   16  O   UNK N   1      38.046  15.048  10.220  0.00  0.00    -0.307 OA
HETATM   17  H   UNK N   1      38.575  15.423  10.942  0.00  0.00     0.222 HD
ENDBRANCH  14  16
BRANCH  14  18
HETATM   18  O   UNK N   1      37.097  13.851  11.469  0.00  0.00    -0.307 OA
HETATM   19  H   UNK N   1      37.343  12.915  11.408  0.00  0.00     0.222 HD
ENDBRANCH  14  18
ENDBRANCH  13  14
ENDBRANCH   1  13
TORSDOF 11
ENDMDL
MODEL 4
REMARK VINA RESULT:      -5.0      8.839     10.082
REMARK  11 active torsions:
REMARK  status: ('A' for Active; 'I' for Inactive)
REMARK    1  A    between atoms: C_2  and  C_3 
REMARK    2  A    between atoms: C_2  and  C_5 
REMARK    3  A    between atoms: C_3  and  O_4 
REMARK    4  A    between atoms: C_5  and  C_6 
REMARK    5  A    between atoms: C_6  and  O_7 
REMARK    6  A    between atoms: P_8  and  O_7 
REMARK    7  A    between atoms: P_8  and  O_9 
REMARK    8  A    between atoms: P_8  and  O_11 
REMARK    9  A    between atoms: O_11  and  P_12 
REMARK   10  A    between atoms: P_12  and  O_13 
REMARK   11  A    between atoms: P_12  and  O_14 
ROOT
HETATM    1  P   UNK N   1      32.065  16.156   7.571  0.00  0.00     0.401 P 
HETATM    2  O   UNK N   1      32.626  16.004   6.133  0.00  0.00    -0.631 OA
ENDROOT
BRANCH   1   3
HETATM    3  O   UNK N   1      31.044  17.231   6.659  0.00  0.00    -0.297 OA
BRANCH   3   4
HETATM    4  C   UNK N   1      29.735  16.936   7.051  0.00  0.00     0.181 C 
BRANCH   4   5
HETATM    5  C   UNK N   1      28.740  17.700   6.193  0.00  0.00     0.033 C 
BRANCH   5   6
HETATM    6  C   UNK N   1      27.819  18.548   7.061  0.00  0.00     0.007 C 
HETATM    7  C   UNK N   1      27.687  19.957   6.498  0.00  0.00     0.012 C 
BRANCH   6   8
HETATM    8  C   UNK N   1      28.374  18.608   8.473  0.00  0.00     0.168 C 
BRANCH   8   9
HETATM    9  O   UNK N   1      27.418  18.158   9.387  0.00  0.00    -0.400 OA
HETATM   10  H   UNK N   1      27.667  17.788  10.248  0.00  0.00     0.209 HD
ENDBRANCH   8   9
ENDBRANCH   6   8
ENDBRANCH   5   6
ENDBRANCH   4   5
ENDBRANCH   3   4
ENDBRANCH   1   3
BRANCH   1  11
HETATM   11  O   UNK N   1      32.304  17.783   8.131  0.00  0.00    -0.307 OA
HETATM   12  H   UNK N   1      31.858  18.478   8.641  0.00  0.00     0.222 HD
ENDBRANCH   1  11
BRANCH   1  13
HETATM   13  O   UNK N   1      33.755  16.509   7.795  0.00  0.00    -0.195 OA
BRANCH  13  14
HETATM   14  P   UNK N   1      33.822  18.177   8.288  0.00  0.00     0.399 P 
HETATM   15  O   UNK N   1      34.638  17.465   9.398  0.00  0.00    -0.631 OA
BRANCH  14  16
HETATM   16  O   UNK N   1      35.330  19.034   8.273  0.00  0.00    -0.307 OA
HETATM   17  H   UNK N   1      36.168  18.567   8.417  0.00  0.00     0.222 HD
ENDBRANCH  14  16
BRANCH  14  18
HETATM   18  O   UNK N   1      34.614  17.996   6.754  0.00  0.00    -0.307 OA
HETATM   19  H   UNK N   1      34.739  17.231   6.171  0.00  0.00     0.222 HD
ENDBRANCH  14  18
ENDBRANCH  13  14
ENDBRANCH   1  13
TORSDOF 11
ENDMDL
MODEL 5
REMARK VINA RESULT:      -4.9      5.659      7.813
REMARK  11 active torsions:
REMARK  status: ('A' for Active; 'I' for Inactive)
REMARK    1  A    between atoms: C_2  and  C_3 
REMARK    2  A    between atoms: C_2  and  C_5 
REMARK    3  A    between atoms: C_3  and  O_4 
REMARK    4  A    between atoms: C_5  and  C_6 
REMARK    5  A    between atoms: C_6  and  O_7 
REMARK    6  A    between atoms: P_8  and  O_7 
REMARK    7  A    between atoms: P_8  and  O_9 
REMARK    8  A    between atoms: P_8  and  O_11 
REMARK    9  A    between atoms: O_11  and  P_12 
REMARK   10  A    between atoms: P_12  and  O_13 
REMARK   11  A    between atoms: P_12  and  O_14 
ROOT
HETATM    1  P   UNK N   1      35.580  15.825  11.420  0.00  0.00     0.401 P 
HETATM    2  O   UNK N   1      34.466  15.475  10.398  0.00  0.00    -0.631 OA
ENDROOT
BRANCH   1   3
HETATM    3  O   UNK N   1      35.549  17.238  10.404  0.00  0.00    -0.297 OA
BRANCH   3   4
HETATM    4  C   UNK N   1      34.593  16.977   9.417  0.00  0.00     0.181 C 
BRANCH   4   5
HETATM    5  C   UNK N   1      34.547  18.114   8.410  0.00  0.00     0.033 C 
BRANCH   5   6
HETATM    6  C   UNK N   1      33.181  18.185   7.738  0.00  0.00     0.007 C 
HETATM    7  C   UNK N   1      32.130  17.462   8.569  0.00  0.00     0.012 C 
BRANCH   6   8
HETATM    8  C   UNK N   1      33.268  17.559   6.358  0.00  0.00     0.168 C 
BRANCH   8   9
HETATM    9  O   UNK N   1      34.600  17.304   6.026  0.00  0.00    -0.400 OA
HETATM   10  H   UNK N   1      35.274  18.001   6.042  0.00  0.00     0.209 HD
ENDBRANCH   8   9
ENDBRANCH   6   8
ENDBRANCH   5   6
ENDBRANCH   4   5
ENDBRANCH   3   4
ENDBRANCH   1   3
BRANCH   1  11
HETATM   11  O   UNK N   1      37.106  15.976  10.604  0.00  0.00    -0.307 OA
HETATM   12  H   UNK N   1      37.972  15.544  10.540  0.00  0.00     0.222 HD
ENDBRANCH   1  11
BRANCH   1  13
HETATM   13  O   UNK N   1      36.120  14.292  10.797  0.00  0.00    -0.195 OA
BRANCH  13  14
HETATM   14  P   UNK N   1      36.198  13.231  12.174  0.00  0.00     0.399 P 
HETATM   15  O   UNK N   1      37.641  13.156  11.609  0.00  0.00    -0.631 OA
BRANCH  14  16
HETATM   16  O   UNK N   1      37.176  13.647  13.545  0.00  0.00    -0.307 OA
HETATM   17  H   UNK N   1      37.861  14.330  13.478  0.00  0.00     0.222 HD
ENDBRANCH  14  16
BRANCH  14  18
HETATM   18  O   UNK N   1      35.849  14.844  12.709  0.00  0.00    -0.307 OA
HETATM   19  H   UNK N   1      36.202  15.709  12.447  0.00  0.00     0.222 HD
ENDBRANCH  14  18
ENDBRANCH  13  14
ENDBRANCH   1  13
TORSDOF 11
ENDMDL
MODEL 6
REMARK VINA RESULT:      -4.9      7.888     10.269
REMARK  11 active torsions:
REMARK  status: ('A' for Active; 'I' for Inactive)
REMARK    1  A    between atoms: C_2  and  C_3 
REMARK    2  A    between atoms: C_2  and  C_5 
REMARK    3  A    between atoms: C_3  and  O_4 
REMARK    4  A    between atoms: C_5  and  C_6 
REMARK    5  A    between atoms: C_6  and  O_7 
REMARK    6  A    between atoms: P_8  and  O_7 
REMARK    7  A    between atoms: P_8  and  O_9 
REMARK    8  A    between atoms: P_8  and  O_11 
REMARK    9  A    between atoms: O_11  and  P_12 
REMARK   10  A    between atoms: P_12  and  O_13 
REMARK   11  A    between atoms: P_12  and  O_14 
ROOT
HETATM    1  P   UNK N   1      33.986  17.649   8.281  0.00  0.00     0.401 P 
HETATM    2  O   UNK N   1      34.790  16.447   7.721  0.00  0.00    -0.631 OA
ENDROOT
BRANCH   1   3
HETATM    3  O   UNK N   1      34.306  18.147   6.645  0.00  0.00    -0.297 OA
BRANCH   3   4
HETATM    4  C   UNK N   1      33.719  17.175   5.829  0.00  0.00     0.181 C 
BRANCH   4   5
HETATM    5  C   UNK N   1      33.304  17.780   4.498  0.00  0.00     0.033 C 
BRANCH   5   6
HETATM    6  C   UNK N   1      31.934  17.267   4.075  0.00  0.00     0.007 C 
HETATM    7  C   UNK N   1      31.052  17.011   5.290  0.00  0.00     0.012 C 
BRANCH   6   8
HETATM    8  C   UNK N   1      32.101  15.985   3.280  0.00  0.00     0.168 C 
BRANCH   8   9
HETATM    9  O   UNK N   1      33.251  16.052   2.491  0.00  0.00    -0.400 OA
HETATM   10  H   UNK N   1      33.206  16.157   1.528  0.00  0.00     0.209 HD
ENDBRANCH   8   9
ENDBRANCH   6   8
ENDBRANCH   5   6
ENDBRANCH   4   5
ENDBRANCH   3   4
ENDBRANCH   1   3
BRANCH   1  11
HETATM   11  O   UNK N   1      34.983  19.072   8.302  0.00  0.00    -0.307 OA
HETATM   12  H   UNK N   1      35.075  19.934   7.866  0.00  0.00     0.222 HD
ENDBRANCH   1  11
BRANCH   1  13
HETATM   13  O   UNK N   1      35.278  17.501   9.437  0.00  0.00    -0.195 OA
BRANCH  13  14
HETATM   14  P   UNK N   1      35.374  15.804   9.814  0.00  0.00     0.399 P 
HETATM   15  O   UNK N   1      36.443  16.420  10.755  0.00  0.00    -0.631 OA
BRANCH  14  16
HETATM   16  O   UNK N   1      34.894  15.228  11.378  0.00  0.00    -0.307 OA
HETATM   17  H   UNK N   1      33.982  14.943  11.545  0.00  0.00     0.222 HD
ENDBRANCH  14  16
BRANCH  14  18
HETATM   18  O   UNK N   1      33.798  16.399  10.229  0.00  0.00    -0.307 OA
HETATM   19  H   UNK N   1      33.469  16.894  10.996  0.00  0.00     0.222 HD
ENDBRANCH  14  18
ENDBRANCH  13  14
ENDBRANCH   1  13
TORSDOF 11
ENDMDL
MODEL 7
REMARK VINA RESULT:      -4.9      7.492      9.107
REMARK  11 active torsions:
REMARK  status: ('A' for Active; 'I' for Inactive)
REMARK    1  A    between atoms: C_2  and  C_3 
REMARK    2  A    between atoms: C_2  and  C_5 
REMARK    3  A    between atoms: C_3  and  O_4 
REMARK    4  A    between atoms: C_5  and  C_6 
REMARK    5  A    between atoms: C_6  and  O_7 
REMARK    6  A    between atoms: P_8  and  O_7 
REMARK    7  A    between atoms: P_8  and  O_9 
REMARK    8  A    between atoms: P_8  and  O_11 
REMARK    9  A    between atoms: O_11  and  P_12 
REMARK   10  A    between atoms: P_12  and  O_13 
REMARK   11  A    between atoms: P_12  and  O_14 
ROOT
HETATM    1  P   UNK N   1      33.248  16.916   7.818  0.00  0.00     0.401 P 
HETATM    2  O   UNK N   1      33.737  18.332   7.417  0.00  0.00    -0.631 OA
ENDROOT
BRANCH   1   3
HETATM    3  O   UNK N   1      32.111  17.947   8.637  0.00  0.00    -0.297 OA
BRANCH   3   4
HETATM    4  C   UNK N   1      30.907  17.237   8.670  0.00  0.00     0.181 C 
BRANCH   4   5
HETATM    5  C   UNK N   1      30.231  17.277   7.309  0.00  0.00     0.033 C 
BRANCH   5   6
HETATM    6  C   UNK N   1      28.773  17.698   7.442  0.00  0.00     0.007 C 
HETATM    7  C   UNK N   1      28.339  18.536   6.247  0.00  0.00     0.012 C 
BRANCH   6   8
HETATM    8  C   UNK N   1      28.597  18.496   8.722  0.00  0.00     0.168 C 
BRANCH   8   9
HETATM    9  O   UNK N   1      27.461  18.062   9.409  0.00  0.00    -0.400 OA
HETATM   10  H   UNK N   1      26.575  18.109   9.016  0.00  0.00     0.209 HD
ENDBRANCH   8   9
ENDBRANCH   6   8
ENDBRANCH   5   6
ENDBRANCH   4   5
ENDBRANCH   3   4
ENDBRANCH   1   3
BRANCH   1  11
HETATM   11  O   UNK N   1      33.411  16.697   9.534  0.00  0.00    -0.307 OA
HETATM   12  H   UNK N   1      32.925  16.841  10.362  0.00  0.00     0.222 HD
ENDBRANCH   1  11
BRANCH   1  13
HETATM   13  O   UNK N   1      34.921  16.877   8.297  0.00  0.00    -0.195 OA
BRANCH  13  14
HETATM   14  P   UNK N   1      34.916  16.401   9.971  0.00  0.00     0.399 P 
HETATM   15  O   UNK N   1      35.786  15.300   9.311  0.00  0.00    -0.631 OA
BRANCH  14  16
HETATM   16  O   UNK N   1      36.380  16.453  10.900  0.00  0.00    -0.307 OA
HETATM   17  H   UNK N   1      36.391  16.840  11.789  0.00  0.00     0.222 HD
ENDBRANCH  14  16
BRANCH  14  18
HETATM   18  O   UNK N   1      35.687  17.948   9.814  0.00  0.00    -0.307 OA
HETATM   19  H   UNK N   1      35.570  18.786  10.289  0.00  0.00     0.222 HD
ENDBRANCH  14  18
ENDBRANCH  13  14
ENDBRANCH   1  13
TORSDOF 11
ENDMDL
MODEL 8
REMARK VINA RESULT:      -4.9     18.835     20.238
REMARK  11 active torsions:
REMARK  status: ('A' for Active; 'I' for Inactive)
REMARK    1  A    between atoms: C_2  and  C_3 
REMARK    2  A    between atoms: C_2  and  C_5 
REMARK    3  A    between atoms: C_3  and  O_4 
REMARK    4  A    between atoms: C_5  and  C_6 
REMARK    5  A    between atoms: C_6  and  O_7 
REMARK    6  A    between atoms: P_8  and  O_7 
REMARK    7  A    between atoms: P_8  and  O_9 
REMARK    8  A    between atoms: P_8  and  O_11 
REMARK    9  A    between atoms: O_11  and  P_12 
REMARK   10  A    between atoms: P_12  and  O_13 
REMARK   11  A    between atoms: P_12  and  O_14 
ROOT
HETATM    1  P   UNK N   1      21.188  17.627   4.136  0.00  0.00     0.401 P 
HETATM    2  O   UNK N   1      22.691  17.701   4.512  0.00  0.00    -0.631 OA
ENDROOT
BRANCH   1   3
HETATM    3  O   UNK N   1      21.947  16.815   2.797  0.00  0.00    -0.297 OA
BRANCH   3   4
HETATM    4  C   UNK N   1      21.356  15.549   2.735  0.00  0.00     0.181 C 
BRANCH   4   5
HETATM    5  C   UNK N   1      21.039  15.182   1.295  0.00  0.00     0.033 C 
BRANCH   5   6
HETATM    6  C   UNK N   1      19.551  15.345   1.012  0.00  0.00     0.007 C 
HETATM    7  C   UNK N   1      18.961  14.058   0.451  0.00  0.00     0.012 C 
BRANCH   6   8
HETATM    8  C   UNK N   1      19.349  16.479   0.022  0.00  0.00     0.168 C 
BRANCH   8   9
HETATM    9  O   UNK N   1      20.474  17.305  -0.001  0.00  0.00    -0.400 OA
HETATM   10  H   UNK N   1      21.257  17.120   0.540  0.00  0.00     0.209 HD
ENDBRANCH   8   9
ENDBRANCH   6   8
ENDBRANCH   5   6
ENDBRANCH   4   5
ENDBRANCH   3   4
ENDBRANCH   1   3
BRANCH   1  11
HETATM   11  O   UNK N   1      20.897  18.530   2.680  0.00  0.00    -0.307 OA
HETATM   12  H   UNK N   1      21.042  19.410   2.298  0.00  0.00     0.222 HD
ENDBRANCH   1  11
BRANCH   1  13
HETATM   13  O   UNK N   1      21.421  19.333   4.390  0.00  0.00    -0.195 OA
BRANCH  13  14
HETATM   14  P   UNK N   1      21.132  20.079   2.844  0.00  0.00     0.399 P 
HETATM   15  O   UNK N   1      20.191  20.877   3.784  0.00  0.00    -0.631 OA
BRANCH  14  16
HETATM   16  O   UNK N   1      21.606  21.724   2.564  0.00  0.00    -0.307 OA
HETATM   17  H   UNK N   1      22.216  21.950   1.846  0.00  0.00     0.222 HD
ENDBRANCH  14  16
BRANCH  14  18
HETATM   18  O   UNK N   1      22.787  20.327   3.303  0.00  0.00    -0.307 OA
HETATM   19  H   UNK N   1      23.507  19.708   3.506  0.00  0.00     0.222 HD
ENDBRANCH  14  18
ENDBRANCH  13  14
ENDBRANCH   1  13
TORSDOF 11
ENDMDL
MODEL 9
REMARK VINA RESULT:      -4.8     15.789     16.985
REMARK  11 active torsions:
REMARK  status: ('A' for Active; 'I' for Inactive)
REMARK    1  A    between atoms: C_2  and  C_3 
REMARK    2  A    between atoms: C_2  and  C_5 
REMARK    3  A    between atoms: C_3  and  O_4 
REMARK    4  A    between atoms: C_5  and  C_6 
REMARK    5  A    between atoms: C_6  and  O_7 
REMARK    6  A    between atoms: P_8  and  O_7 
REMARK    7  A    between atoms: P_8  and  O_9 
REMARK    8  A    between atoms: P_8  and  O_11 
REMARK    9  A    between atoms: O_11  and  P_12 
REMARK   10  A    between atoms: P_12  and  O_13 
REMARK   11  A    between atoms: P_12  and  O_14 
ROOT
HETATM    1  P   UNK N   1      21.068  13.873   9.439  0.00  0.00     0.401 P 
HETATM    2  O   UNK N   1      19.711  13.821  10.187  0.00  0.00    -0.631 OA
ENDROOT
BRANCH   1   3
HETATM    3  O   UNK N   1      19.938  14.306   8.189  0.00  0.00    -0.297 OA
BRANCH   3   4
HETATM    4  C   UNK N   1      20.434  15.481   7.616  0.00  0.00     0.181 C 
BRANCH   4   5
HETATM    5  C   UNK N   1      19.340  16.533   7.531  0.00  0.00     0.033 C 
BRANCH   5   6
HETATM    6  C   UNK N   1      18.950  17.019   8.922  0.00  0.00     0.007 C 
HETATM    7  C   UNK N   1      17.436  17.098   9.064  0.00  0.00     0.012 C 
BRANCH   6   8
HETATM    8  C   UNK N   1      19.563  18.386   9.165  0.00  0.00     0.168 C 
BRANCH   8   9
HETATM    9  O   UNK N   1      18.872  19.051  10.181  0.00  0.00    -0.400 OA
HETATM   10  H   UNK N   1      18.219  19.741   9.990  0.00  0.00     0.209 HD
ENDBRANCH   8   9
ENDBRANCH   6   8
ENDBRANCH   5   6
ENDBRANCH   4   5
ENDBRANCH   3   4
ENDBRANCH   1   3
BRANCH   1  11
HETATM   11  O   UNK N   1      21.104  12.664   8.192  0.00  0.00    -0.307 OA
HETATM   12  H   UNK N   1      21.414  11.759   8.029  0.00  0.00     0.222 HD
ENDBRANCH   1  11
BRANCH   1  13
HETATM   13  O   UNK N   1      21.081  12.269  10.112  0.00  0.00    -0.195 OA
BRANCH  13  14
HETATM   14  P   UNK N   1      22.754  11.909  10.430  0.00  0.00     0.399 P 
HETATM   15  O   UNK N   1      22.781  13.438  10.167  0.00  0.00    -0.631 OA
BRANCH  14  16
HETATM   16  O   UNK N   1      23.528  12.535  11.850  0.00  0.00    -0.307 OA
HETATM   17  H   UNK N   1      23.274  12.224  12.733  0.00  0.00     0.222 HD
ENDBRANCH  14  16
BRANCH  14  18
HETATM   18  O   UNK N   1      21.811  11.563  11.845  0.00  0.00    -0.307 OA
HETATM   19  H   UNK N   1      21.716  10.763  12.386  0.00  0.00     0.222 HD
ENDBRANCH  14  18
ENDBRANCH  13  14
ENDBRANCH   1  13
TORSDOF 11
ENDMDL
