REMARK  5 active torsions:
REMARK  status: ('A' for Active; 'I' for Inactive)
REMARK    1  A    between atoms: C_2  and  N_1 
REMARK    2  A    between atoms: C_2  and  C_3 
REMARK    3  A    between atoms: C_2  and  C_20 
REMARK    4  A    between atoms: C_3  and  C_4 
REMARK    5  A    between atoms: C_20  and  O_21 
ROOT
HETATM    1  C   UNK N   1      -2.392   0.044   0.069  0.00  0.00     0.012 A 
HETATM    2  C   UNK N   1      -3.059  -1.189   0.025  0.00  0.00     0.026 A 
HETATM    3  C   UNK N   1      -2.323  -2.370  -0.072  0.00  0.00     0.016 A 
HETATM    4  C   UNK N   1      -0.930  -2.317  -0.092  0.00  0.00    -0.007 A 
HETATM    5  C   UNK N   1      -0.176  -3.493  -0.134  0.00  0.00     0.014 A 
HETATM    6  C   UNK N   1       1.221  -3.432  -0.115  0.00  0.00     0.014 A 
HETATM    7  C   UNK N   1       1.868  -2.193  -0.064  0.00  0.00    -0.007 A 
HETATM    8  C   UNK N   1       1.116  -0.998  -0.037  0.00  0.00     0.070 A 
HETATM    9  N   UNK N   1       1.758   0.204   0.015  0.00  0.00    -0.363 N 
ATOM     10  HN  UNK N   1       1.208   1.063   0.034  1.00  0.00     0.165 HD
HETATM   11  C   UNK N   1       3.116   0.282   0.043  0.00  0.00     0.088 A 
HETATM   12  C   UNK N   1       3.891  -0.881   0.024  0.00  0.00     0.018 A 
HETATM   13  C   UNK N   1       3.260  -2.125  -0.031  0.00  0.00     0.015 A 
HETATM   14  C   UNK N   1      -0.287  -1.059  -0.045  0.00  0.00     0.070 A 
HETATM   15  N   UNK N   1      -1.032   0.078   0.027  0.00  0.00    -0.357 N 
ATOM     16  HN  UNK N   1      -0.558   0.981   0.050  1.00  0.00     0.166 HD
ENDROOT
BRANCH   1  17
HETATM   17  C   UNK N   1      -3.141   1.320   0.305  0.00  0.00     0.092 C 
BRANCH  17  18
HETATM   18  C   UNK N   1      -4.354   1.541  -0.590  0.00  0.00     0.178 C 
BRANCH  18  19
HETATM   19  N   UNK N   1      -5.441   0.676  -0.152  0.00  0.00    -0.417 N 
HETATM   20  H   UNK N   1      -6.346   1.032   0.155  0.00  0.00     0.150 HD
HETATM   21  H   UNK N   1      -5.289  -0.333  -0.152  0.00  0.00     0.150 HD
ENDBRANCH  18  19
BRANCH  18  22
HETATM   22  C   UNK N   1      -4.771   2.982  -0.491  0.00  0.00     0.163 C 
HETATM   23  O   UNK N   1      -4.009   3.859  -0.864  0.00  0.00    -0.648 OA
BRANCH  22  24
HETATM   24  O   UNK N   1      -5.977   3.319   0.009  0.00  0.00    -0.775 OA
HETATM   25  H   UNK N   1      -6.193   4.161   0.357  0.00  0.00     0.167 HD
ENDBRANCH  22  24
ENDBRANCH  18  22
ENDBRANCH  17  18
ENDBRANCH   1  17
TORSDOF 5
