REMARK  17 active torsions:
REMARK  status: ('A' for Active; 'I' for Inactive)
REMARK    1  A    between atoms: C_4  and  C_1 
REMARK    2  A    between atoms: O_20  and  C_1 
REMARK    3  A    between atoms: C_5  and  C_2 
REMARK    4  A    between atoms: O_21  and  C_2 
REMARK    5  A    between atoms: C_6  and  C_3 
REMARK    6  A    between atoms: O_22  and  C_3 
REMARK    7  A    between atoms: C_8  and  O_23 
REMARK    8  A    between atoms: C_9  and  O_24 
REMARK    9  A    between atoms: C_10  and  O_25 
REMARK   10  A    between atoms: C_11  and  O_26 
REMARK   11  A    between atoms: C_12  and  O_27 
REMARK   12  A    between atoms: C_13  and  O_28 
REMARK   13  A    between atoms: C_14  and  O_33 
REMARK   14  A    between atoms: C_15  and  O_34 
REMARK   15  A    between atoms: C_16  and  O_29 
REMARK   16  A    between atoms: C_17  and  O_34 
REMARK   17  A    between atoms: C_18  and  O_33 
ROOT
HETATM    1  C   UNK N   1       0.476  -3.683   0.474  0.00  0.00     0.180 C 
HETATM    2  C   UNK N   1      -0.720  -5.460  -0.897  0.00  0.00     0.183 C 
HETATM    3  C   UNK N   1       0.393  -6.416  -0.449  0.00  0.00     0.204 C 
HETATM    4  C   UNK N   1      -0.916  -4.309   0.112  0.00  0.00     0.187 C 
HETATM    5  C   UNK N   1       1.672  -5.594  -0.225  0.00  0.00     0.292 C 
HETATM    6  O   UNK N   1       1.450  -4.663   0.829  0.00  0.00    -0.348 OA
ENDROOT
BRANCH   4   7
HETATM    7  O   UNK N   1      -1.835  -3.397  -0.484  0.00  0.00    -0.348 OA
BRANCH   7   8
HETATM    8  C   UNK N   1      -2.157  -2.252   0.288  0.00  0.00     0.292 C 
HETATM    9  C   UNK N   1      -3.461  -1.675  -0.308  0.00  0.00     0.204 C 
HETATM   10  C   UNK N   1      -3.811  -0.325   0.341  0.00  0.00     0.183 C 
HETATM   11  C   UNK N   1      -2.602   0.616   0.233  0.00  0.00     0.180 C 
HETATM   12  C   UNK N   1      -1.381  -0.100   0.845  0.00  0.00     0.179 C 
HETATM   13  O   UNK N   1      -1.120  -1.295   0.136  0.00  0.00    -0.348 OA
BRANCH   9  14
HETATM   14  O   UNK N   1      -4.515  -2.578  -0.151  0.00  0.00    -0.388 OA
HETATM   15  H   UNK N   1      -5.424  -2.257  -0.041  0.00  0.00     0.210 HD
ENDBRANCH   9  14
BRANCH  10  16
HETATM   16  O   UNK N   1      -4.141  -0.514   1.687  0.00  0.00    -0.390 OA
HETATM   17  H   UNK N   1      -4.370  -0.381   2.620  0.00  0.00     0.210 HD
ENDBRANCH  10  16
BRANCH  11  18
HETATM   18  O   UNK N   1      -2.362   0.921  -1.112  0.00  0.00    -0.390 OA
HETATM   19  H   UNK N   1      -2.096   0.883  -2.044  0.00  0.00     0.210 HD
ENDBRANCH  11  18
BRANCH  12  20
HETATM   20  C   UNK N   1      -0.128   0.775   0.814  0.00  0.00     0.198 C 
BRANCH  20  21
HETATM   21  O   UNK N   1       0.320   0.980  -0.493  0.00  0.00    -0.398 OA
HETATM   22  H   UNK N   1       0.599   0.782  -1.401  0.00  0.00     0.209 HD
ENDBRANCH  20  21
ENDBRANCH  12  20
ENDBRANCH   7   8
ENDBRANCH   4   7
BRANCH   1  23
HETATM   23  C   UNK N   1       1.038  -2.649  -0.521  0.00  0.00     0.198 C 
BRANCH  23  24
HETATM   24  O   UNK N   1       0.961  -3.049  -1.852  0.00  0.00    -0.398 OA
HETATM   25  H   UNK N   1       0.693  -3.142  -2.780  0.00  0.00     0.209 HD
ENDBRANCH  23  24
ENDBRANCH   1  23
BRANCH   2  26
HETATM   26  O   UNK N   1      -1.917  -6.158  -1.076  0.00  0.00    -0.390 OA
HETATM   27  H   UNK N   1      -2.752  -5.681  -1.200  0.00  0.00     0.210 HD
ENDBRANCH   2  26
BRANCH   3  28
HETATM   28  O   UNK N   1       0.033  -7.078   0.730  0.00  0.00    -0.388 OA
HETATM   29  H   UNK N   1      -0.490  -7.091   1.547  0.00  0.00     0.210 HD
ENDBRANCH   3  28
BRANCH   5  30
HETATM   30  O   UNK N   1       2.737  -6.474   0.080  0.00  0.00    -0.348 OA
BRANCH  30  31
HETATM   31  C   UNK N   1       3.976  -5.840   0.404  0.00  0.00     0.187 C 
HETATM   32  C   UNK N   1       4.544  -4.845  -0.698  0.00  0.00     0.180 C 
HETATM   33  O   UNK N   1       5.960  -4.622  -0.670  0.00  0.00    -0.348 OA
HETATM   34  C   UNK N   1       6.554  -4.913   0.579  0.00  0.00     0.294 C 
HETATM   35  C   UNK N   1       6.396  -6.399   0.942  0.00  0.00     0.256 C 
HETATM   36  C   UNK N   1       5.030  -6.951   0.491  0.00  0.00     0.188 C 
HETATM   37  F   UNK N   1       7.388  -7.155   0.339  0.00  0.00    -0.241 F 
BRANCH  32  38
HETATM   38  C   UNK N   1       3.848  -3.490  -0.747  0.00  0.00     0.198 C 
BRANCH  38  39
HETATM   39  O   UNK N   1       4.001  -2.784   0.447  0.00  0.00    -0.398 OA
HETATM   40  H   UNK N   1       4.478  -2.630   1.277  0.00  0.00     0.209 HD
ENDBRANCH  38  39
ENDBRANCH  32  38
BRANCH  34  41
HETATM   41  O   UNK N   1       6.011  -4.098   1.579  0.00  0.00    -0.368 OA
HETATM   42  H   UNK N   1       6.311  -3.489   2.272  0.00  0.00     0.212 HD
ENDBRANCH  34  41
BRANCH  36  43
HETATM   43  O   UNK N   1       4.632  -7.988   1.337  0.00  0.00    -0.390 OA
HETATM   44  H   UNK N   1       3.870  -8.109   1.925  0.00  0.00     0.210 HD
ENDBRANCH  36  43
ENDBRANCH  30  31
ENDBRANCH   5  30
TORSDOF 17
