REMARK  6 active torsions:
REMARK  status: ('A' for Active; 'I' for Inactive)
REMARK    1  A    between atoms: O_1  and  C_2 
REMARK    2  A    between atoms: C_2  and  C_4 
REMARK    3  A    between atoms: C_4  and  C_5 
REMARK    4  A    between atoms: C_9  and  O_10 
REMARK    5  A    between atoms: O_10  and  C_11 
REMARK    6  A    between atoms: C_15  and  O_16 
ROOT
HETATM    1  C   UNK N   1       2.673  -0.125   0.031  0.00  0.00    -0.046 A 
HETATM    2  C   UNK N   1       3.678  -0.838   0.687  0.00  0.00     0.028 A 
HETATM    3  C   UNK N   1       3.733  -2.233   0.596  0.00  0.00     0.042 A 
HETATM    4  I   UNK N   1       5.300  -3.249   1.585  0.00  0.00    -0.042 I 
HETATM    5  C   UNK N   1       2.765  -2.939  -0.146  0.00  0.00     0.109 A 
HETATM    6  C   UNK N   1       1.777  -2.200  -0.859  0.00  0.00     0.042 A 
HETATM    7  I   UNK N   1       0.354  -3.026  -2.208  0.00  0.00    -0.042 I 
HETATM    8  C   UNK N   1       1.751  -0.813  -0.759  0.00  0.00     0.028 A 
ENDROOT
BRANCH   5   9
HETATM    9  O   UNK N   1       2.829  -4.297  -0.178  0.00  0.00    -0.308 OA
BRANCH   9  10
HETATM   10  C   UNK N   1       1.768  -5.138  -0.040  0.00  0.00     0.078 A 
HETATM   11  C   UNK N   1       1.888  -6.468  -0.451  0.00  0.00     0.058 A 
HETATM   12  C   UNK N   1       0.794  -7.337  -0.364  0.00  0.00     0.043 A 
HETATM   13  I   UNK N   1       1.012  -9.330  -1.024  0.00  0.00    -0.042 I 
HETATM   14  C   UNK N   1      -0.433  -6.874   0.137  0.00  0.00     0.098 A 
HETATM   15  C   UNK N   1      -0.549  -5.550   0.579  0.00  0.00     0.043 A 
HETATM   16  I   UNK N   1      -2.375  -4.792   1.317  0.00  0.00    -0.042 I 
HETATM   17  C   UNK N   1       0.550  -4.694   0.503  0.00  0.00     0.058 A 
BRANCH  14  18
HETATM   18  O   UNK N   1      -1.495  -7.697   0.192  0.00  0.00    -0.358 OA
HETATM   19  H   UNK N   1      -2.362  -7.344   0.230  0.00  0.00     0.217 HD
ENDBRANCH  14  18
ENDBRANCH   9  10
ENDBRANCH   5   9
BRANCH   1  20
HETATM   20  C   UNK N   1       2.628   1.372   0.139  0.00  0.00     0.148 C 
BRANCH  20  21
HETATM   21  C   UNK N   1       1.233   1.932   0.098  0.00  0.00     0.143 C 
HETATM   22  O   UNK N   1       0.562   1.837  -0.918  0.00  0.00    -0.650 OA
BRANCH  21  23
HETATM   23  O   UNK N   1       0.730   2.566   1.173  0.00  0.00    -0.776 OA
HETATM   24  H   UNK N   1       0.938   3.091   1.921  0.00  0.00     0.167 HD
ENDBRANCH  21  23
ENDBRANCH  20  21
ENDBRANCH   1  20
TORSDOF 6
