MODEL 1
REMARK VINA RESULT:      -6.3      0.000      0.000
REMARK  5 active torsions:
REMARK  status: ('A' for Active; 'I' for Inactive)
REMARK    1  A    between atoms: C_3  and  C_2 
REMARK    2  A    between atoms: C_9  and  O_10 
REMARK    3  A    between atoms: C_9  and  C_15 
REMARK    4  A    between atoms: O_10  and  C_11 
REMARK    5  A    between atoms: C_11  and  C_13 
ROOT
HETATM    1  C   UNK N   1      36.088  14.146  14.738  0.00  0.00     0.053 C 
HETATM    2  C   UNK N   1      36.157  14.581  13.256  0.00  0.00     0.279 C 
HETATM    3  N   UNK N   1      36.235  13.447  12.326  0.00  0.00     0.084 N 
HETATM    4  C   UNK N   1      36.661  13.968  11.039  0.00  0.00     0.309 C 
HETATM    5  C   UNK N   1      37.244  12.483  12.767  0.00  0.00     0.275 C 
HETATM    6  C   UNK N   1      36.878  11.864  14.128  0.00  0.00     0.074 C 
HETATM    7  C   UNK N   1      35.748  12.632  14.859  0.00  0.00     0.104 C 
ENDROOT
BRANCH   7   8
HETATM    8  O   UNK N   1      34.507  12.426  14.250  0.00  0.00    -0.305 OA
BRANCH   8   9
HETATM    9  C   UNK N   1      33.899  11.223  14.049  0.00  0.00     0.259 C 
HETATM   10  O   UNK N   1      33.116  10.766  14.871  0.00  0.00    -0.265 OA
BRANCH   9  11
HETATM   11  C   UNK N   1      34.182  10.451  12.807  0.00  0.00     0.106 C 
HETATM   12  C   UNK N   1      34.919   9.171  13.167  0.00  0.00     0.015 C 
ENDBRANCH   9  11
ENDBRANCH   8   9
ENDBRANCH   7   8
BRANCH   7  13
HETATM   13  C   UNK N   1      35.626  12.164  16.310  0.00  0.00    -0.023 A 
HETATM   14  C   UNK N   1      35.074  13.020  17.279  0.00  0.00     0.010 A 
HETATM   15  C   UNK N   1      35.003  12.630  18.619  0.00  0.00     0.001 A 
HETATM   16  C   UNK N   1      35.484  11.379  19.010  0.00  0.00     0.000 A 
HETATM   17  C   UNK N   1      36.036  10.518  18.062  0.00  0.00     0.001 A 
HETATM   18  C   UNK N   1      36.112  10.909  16.723  0.00  0.00     0.010 A 
ENDBRANCH   7  13
BRANCH   1  19
HETATM   19  C   UNK N   1      37.427  14.488  15.406  0.00  0.00     0.005 C 
HETATM   20  C   UNK N   1      37.339  15.793  16.175  0.00  0.00     0.005 C 
ENDBRANCH   1  19
TORSDOF 5
ENDMDL
MODEL 2
REMARK VINA RESULT:      -5.7     22.057     25.328
REMARK  5 active torsions:
REMARK  status: ('A' for Active; 'I' for Inactive)
REMARK    1  A    between atoms: C_3  and  C_2 
REMARK    2  A    between atoms: C_9  and  O_10 
REMARK    3  A    between atoms: C_9  and  C_15 
REMARK    4  A    between atoms: O_10  and  C_11 
REMARK    5  A    between atoms: C_11  and  C_13 
ROOT
HETATM    1  C   UNK N   1      28.264  26.662  -5.483  0.00  0.00     0.053 C 
HETATM    2  C   UNK N   1      28.470  27.854  -4.519  0.00  0.00     0.279 C 
HETATM    3  N   UNK N   1      27.625  27.778  -3.320  0.00  0.00     0.084 N 
HETATM    4  C   UNK N   1      27.630  29.090  -2.701  0.00  0.00     0.309 C 
HETATM    5  C   UNK N   1      26.242  27.464  -3.679  0.00  0.00     0.275 C 
HETATM    6  C   UNK N   1      26.129  26.080  -4.342  0.00  0.00     0.074 C 
HETATM    7  C   UNK N   1      27.499  25.504  -4.779  0.00  0.00     0.104 C 
ENDROOT
BRANCH   7   8
HETATM    8  O   UNK N   1      28.262  25.095  -3.683  0.00  0.00    -0.305 OA
BRANCH   8   9
HETATM    9  C   UNK N   1      28.037  23.994  -2.911  0.00  0.00     0.259 C 
HETATM   10  O   UNK N   1      26.925  23.761  -2.455  0.00  0.00    -0.265 OA
BRANCH   9  11
HETATM   11  C   UNK N   1      29.155  23.054  -2.621  0.00  0.00     0.106 C 
HETATM   12  C   UNK N   1      30.455  23.644  -3.142  0.00  0.00     0.015 C 
ENDBRANCH   9  11
ENDBRANCH   8   9
ENDBRANCH   7   8
BRANCH   7  13
HETATM   13  C   UNK N   1      27.310  24.283  -5.682  0.00  0.00    -0.023 A 
HETATM   14  C   UNK N   1      28.423  23.691  -6.304  0.00  0.00     0.010 A 
HETATM   15  C   UNK N   1      28.263  22.608  -7.173  0.00  0.00     0.001 A 
HETATM   16  C   UNK N   1      26.988  22.102  -7.433  0.00  0.00     0.000 A 
HETATM   17  C   UNK N   1      25.872  22.679  -6.825  0.00  0.00     0.001 A 
HETATM   18  C   UNK N   1      26.031  23.764  -5.960  0.00  0.00     0.010 A 
ENDBRANCH   7  13
BRANCH   1  19
HETATM   19  C   UNK N   1      27.522  27.168  -6.728  0.00  0.00     0.005 C 
HETATM   20  C   UNK N   1      27.825  28.631  -6.990  0.00  0.00     0.005 C 
ENDBRANCH   1  19
TORSDOF 5
ENDMDL
MODEL 3
REMARK VINA RESULT:      -5.7     11.911     14.693
REMARK  5 active torsions:
REMARK  status: ('A' for Active; 'I' for Inactive)
REMARK    1  A    between atoms: C_3  and  C_2 
REMARK    2  A    between atoms: C_9  and  O_10 
REMARK    3  A    between atoms: C_9  and  C_15 
REMARK    4  A    between atoms: O_10  and  C_11 
REMARK    5  A    between atoms: C_11  and  C_13 
ROOT
HETATM    1  C   UNK N   1      27.642  16.351   4.658  0.00  0.00     0.053 C 
HETATM    2  C   UNK N   1      28.694  15.464   5.363  0.00  0.00     0.279 C 
HETATM    3  N   UNK N   1      29.771  16.238   5.994  0.00  0.00     0.084 N 
HETATM    4  C   UNK N   1      30.855  15.318   6.286  0.00  0.00     0.309 C 
HETATM    5  C   UNK N   1      30.289  17.252   5.074  0.00  0.00     0.275 C 
HETATM    6  C   UNK N   1      29.210  18.286   4.705  0.00  0.00     0.074 C 
HETATM    7  C   UNK N   1      27.781  17.837   5.100  0.00  0.00     0.104 C 
ENDROOT
BRANCH   7   8
HETATM    8  O   UNK N   1      27.587  17.888   6.483  0.00  0.00    -0.305 OA
BRANCH   8   9
HETATM    9  C   UNK N   1      27.944  18.912   7.309  0.00  0.00     0.259 C 
HETATM   10  O   UNK N   1      27.489  20.037   7.152  0.00  0.00    -0.265 OA
BRANCH   9  11
HETATM   11  C   UNK N   1      28.897  18.662   8.426  0.00  0.00     0.106 C 
HETATM   12  C   UNK N   1      28.321  17.600   9.349  0.00  0.00     0.015 C 
ENDBRANCH   9  11
ENDBRANCH   8   9
ENDBRANCH   7   8
BRANCH   7  13
HETATM   13  C   UNK N   1      26.731  18.748   4.460  0.00  0.00    -0.023 A 
HETATM   14  C   UNK N   1      25.363  18.468   4.626  0.00  0.00     0.010 A 
HETATM   15  C   UNK N   1      24.392  19.258   4.006  0.00  0.00     0.001 A 
HETATM   16  C   UNK N   1      24.774  20.339   3.209  0.00  0.00     0.000 A 
HETATM   17  C   UNK N   1      26.127  20.631   3.033  0.00  0.00     0.001 A 
HETATM   18  C   UNK N   1      27.098  19.838   3.649  0.00  0.00     0.010 A 
ENDBRANCH   7  13
BRANCH   1  19
HETATM   19  C   UNK N   1      27.809  16.186   3.141  0.00  0.00     0.005 C 
HETATM   20  C   UNK N   1      26.537  15.660   2.503  0.00  0.00     0.005 C 
ENDBRANCH   1  19
TORSDOF 5
ENDMDL
MODEL 4
REMARK VINA RESULT:      -5.6      7.121     10.803
REMARK  5 active torsions:
REMARK  status: ('A' for Active; 'I' for Inactive)
REMARK    1  A    between atoms: C_3  and  C_2 
REMARK    2  A    between atoms: C_9  and  O_10 
REMARK    3  A    between atoms: C_9  and  C_15 
REMARK    4  A    between atoms: O_10  and  C_11 
REMARK    5  A    between atoms: C_11  and  C_13 
ROOT
HETATM    1  C   UNK N   1      34.047  15.305   7.338  0.00  0.00     0.053 C 
HETATM    2  C   UNK N   1      34.607  15.360   8.779  0.00  0.00     0.279 C 
HETATM    3  N   UNK N   1      34.367  16.649   9.441  0.00  0.00     0.084 N 
HETATM    4  C   UNK N   1      35.236  16.709  10.603  0.00  0.00     0.309 C 
HETATM    5  C   UNK N   1      34.730  17.760   8.561  0.00  0.00     0.275 C 
HETATM    6  C   UNK N   1      33.855  17.788   7.295  0.00  0.00     0.074 C 
HETATM    7  C   UNK N   1      33.056  16.478   7.081  0.00  0.00     0.104 C 
ENDROOT
BRANCH   7   8
HETATM    8  O   UNK N   1      32.009  16.356   7.998  0.00  0.00    -0.305 OA
BRANCH   8   9
HETATM    9  C   UNK N   1      31.019  17.269   8.214  0.00  0.00     0.259 C 
HETATM   10  O   UNK N   1      31.255  18.336   8.765  0.00  0.00    -0.265 OA
BRANCH   9  11
HETATM   11  C   UNK N   1      29.629  16.971   7.768  0.00  0.00     0.106 C 
HETATM   12  C   UNK N   1      29.275  17.869   6.595  0.00  0.00     0.015 C 
ENDBRANCH   9  11
ENDBRANCH   8   9
ENDBRANCH   7   8
BRANCH   7  13
HETATM   13  C   UNK N   1      32.442  16.440   5.680  0.00  0.00    -0.023 A 
HETATM   14  C   UNK N   1      31.698  15.319   5.270  0.00  0.00     0.010 A 
HETATM   15  C   UNK N   1      31.175  15.245   3.977  0.00  0.00     0.001 A 
HETATM   16  C   UNK N   1      31.388  16.289   3.074  0.00  0.00     0.000 A 
HETATM   17  C   UNK N   1      32.124  17.408   3.465  0.00  0.00     0.001 A 
HETATM   18  C   UNK N   1      32.652  17.481   4.756  0.00  0.00     0.010 A 
ENDBRANCH   7  13
BRANCH   1  19
HETATM   19  C   UNK N   1      35.228  15.327   6.359  0.00  0.00     0.005 C 
HETATM   20  C   UNK N   1      35.231  14.094   5.474  0.00  0.00     0.005 C 
ENDBRANCH   1  19
TORSDOF 5
ENDMDL
MODEL 5
REMARK VINA RESULT:      -5.4     21.580     24.343
REMARK  5 active torsions:
REMARK  status: ('A' for Active; 'I' for Inactive)
REMARK    1  A    between atoms: C_3  and  C_2 
REMARK    2  A    between atoms: C_9  and  O_10 
REMARK    3  A    between atoms: C_9  and  C_15 
REMARK    4  A    between atoms: O_10  and  C_11 
REMARK    5  A    between atoms: C_11  and  C_13 
ROOT
HETATM    1  C   UNK N   1      29.987  26.488  -3.856  0.00  0.00     0.053 C 
HETATM    2  C   UNK N   1      29.430  27.908  -4.107  0.00  0.00     0.279 C 
HETATM    3  N   UNK N   1      28.329  27.931  -5.079  0.00  0.00     0.084 N 
HETATM    4  C   UNK N   1      28.149  29.309  -5.501  0.00  0.00     0.309 C 
HETATM    5  C   UNK N   1      28.670  27.148  -6.268  0.00  0.00     0.275 C 
HETATM    6  C   UNK N   1      28.876  25.661  -5.925  0.00  0.00     0.074 C 
HETATM    7  C   UNK N   1      29.015  25.403  -4.404  0.00  0.00     0.104 C 
ENDROOT
BRANCH   7   8
HETATM    8  O   UNK N   1      27.794  25.554  -3.741  0.00  0.00    -0.305 OA
BRANCH   8   9
HETATM    9  C   UNK N   1      26.717  24.723  -3.840  0.00  0.00     0.259 C 
HETATM   10  O   UNK N   1      26.469  23.905  -2.963  0.00  0.00    -0.265 OA
BRANCH   9  11
HETATM   11  C   UNK N   1      25.821  24.814  -5.026  0.00  0.00     0.106 C 
HETATM   12  C   UNK N   1      25.876  23.507  -5.799  0.00  0.00     0.015 C 
ENDBRANCH   9  11
ENDBRANCH   8   9
ENDBRANCH   7   8
BRANCH   7  13
HETATM   13  C   UNK N   1      29.505  23.978  -4.139  0.00  0.00    -0.023 A 
HETATM   14  C   UNK N   1      29.988  23.628  -2.866  0.00  0.00     0.010 A 
HETATM   15  C   UNK N   1      30.488  22.346  -2.621  0.00  0.00     0.001 A 
HETATM   16  C   UNK N   1      30.513  21.397  -3.644  0.00  0.00     0.000 A 
HETATM   17  C   UNK N   1      30.038  21.728  -4.913  0.00  0.00     0.001 A 
HETATM   18  C   UNK N   1      29.542  23.011  -5.161  0.00  0.00     0.010 A 
ENDBRANCH   7  13
BRANCH   1  19
HETATM   19  C   UNK N   1      31.377  26.392  -4.500  0.00  0.00     0.005 C 
HETATM   20  C   UNK N   1      32.044  27.753  -4.572  0.00  0.00     0.005 C 
ENDBRANCH   1  19
TORSDOF 5
ENDMDL
MODEL 6
REMARK VINA RESULT:      -5.4      6.079      8.778
REMARK  5 active torsions:
REMARK  status: ('A' for Active; 'I' for Inactive)
REMARK    1  A    between atoms: C_3  and  C_2 
REMARK    2  A    between atoms: C_9  and  O_10 
REMARK    3  A    between atoms: C_9  and  C_15 
REMARK    4  A    between atoms: O_10  and  C_11 
REMARK    5  A    between atoms: C_11  and  C_13 
ROOT
HETATM    1  C   UNK N   1      31.953  15.916   7.561  0.00  0.00     0.053 C 
HETATM    2  C   UNK N   1      31.436  15.993   6.106  0.00  0.00     0.279 C 
HETATM    3  N   UNK N   1      32.466  16.420   5.150  0.00  0.00     0.084 N 
HETATM    4  C   UNK N   1      31.791  16.805   3.925  0.00  0.00     0.309 C 
HETATM    5  C   UNK N   1      33.180  17.597   5.648  0.00  0.00     0.275 C 
HETATM    6  C   UNK N   1      33.940  17.289   6.951  0.00  0.00     0.074 C 
HETATM    7  C   UNK N   1      33.508  15.950   7.602  0.00  0.00     0.104 C 
ENDROOT
BRANCH   7   8
HETATM    8  O   UNK N   1      33.976  14.850   6.879  0.00  0.00    -0.305 OA
BRANCH   8   9
HETATM    9  C   UNK N   1      35.278  14.573   6.586  0.00  0.00     0.259 C 
HETATM   10  O   UNK N   1      35.924  15.296   5.838  0.00  0.00    -0.265 OA
BRANCH   9  11
HETATM   11  C   UNK N   1      35.934  13.380   7.190  0.00  0.00     0.106 C 
HETATM   12  C   UNK N   1      37.014  13.836   8.157  0.00  0.00     0.015 C 
ENDBRANCH   9  11
ENDBRANCH   8   9
ENDBRANCH   7   8
BRANCH   7  13
HETATM   13  C   UNK N   1      34.068  15.833   9.021  0.00  0.00    -0.023 A 
HETATM   14  C   UNK N   1      34.956  16.808   9.508  0.00  0.00     0.010 A 
HETATM   15  C   UNK N   1      35.517  16.690  10.782  0.00  0.00     0.001 A 
HETATM   16  C   UNK N   1      35.201  15.594  11.587  0.00  0.00     0.000 A 
HETATM   17  C   UNK N   1      34.322  14.616  11.119  0.00  0.00     0.001 A 
HETATM   18  C   UNK N   1      33.764  14.732   9.844  0.00  0.00     0.010 A 
ENDBRANCH   7  13
BRANCH   1  19
HETATM   19  C   UNK N   1      31.332  17.073   8.356  0.00  0.00     0.005 C 
HETATM   20  C   UNK N   1      30.046  17.554   7.713  0.00  0.00     0.005 C 
ENDBRANCH   1  19
TORSDOF 5
ENDMDL
MODEL 7
REMARK VINA RESULT:      -5.3     13.035     15.383
REMARK  5 active torsions:
REMARK  status: ('A' for Active; 'I' for Inactive)
REMARK    1  A    between atoms: C_3  and  C_2 
REMARK    2  A    between atoms: C_9  and  O_10 
REMARK    3  A    between atoms: C_9  and  C_15 
REMARK    4  A    between atoms: O_10  and  C_11 
REMARK    5  A    between atoms: C_11  and  C_13 
ROOT
HETATM    1  C   UNK N   1      28.085  18.920   5.230  0.00  0.00     0.053 C 
HETATM    2  C   UNK N   1      29.339  18.126   5.663  0.00  0.00     0.279 C 
HETATM    3  N   UNK N   1      29.106  16.678   5.741  0.00  0.00     0.084 N 
HETATM    4  C   UNK N   1      30.205  16.100   6.493  0.00  0.00     0.309 C 
HETATM    5  C   UNK N   1      27.871  16.389   6.470  0.00  0.00     0.275 C 
HETATM    6  C   UNK N   1      26.639  16.959   5.744  0.00  0.00     0.074 C 
HETATM    7  C   UNK N   1      27.006  17.972   4.631  0.00  0.00     0.104 C 
ENDROOT
BRANCH   7   8
HETATM    8  O   UNK N   1      27.568  17.338   3.520  0.00  0.00    -0.305 OA
BRANCH   8   9
HETATM    9  C   UNK N   1      27.183  16.139   2.997  0.00  0.00     0.259 C 
HETATM   10  O   UNK N   1      27.859  15.132   3.162  0.00  0.00    -0.265 OA
BRANCH   9  11
HETATM   11  C   UNK N   1      25.916  16.045   2.220  0.00  0.00     0.106 C 
HETATM   12  C   UNK N   1      25.115  14.848   2.706  0.00  0.00     0.015 C 
ENDBRANCH   9  11
ENDBRANCH   8   9
ENDBRANCH   7   8
BRANCH   7  13
HETATM   13  C   UNK N   1      25.761  18.719   4.147  0.00  0.00    -0.023 A 
HETATM   14  C   UNK N   1      24.487  18.316   4.583  0.00  0.00     0.010 A 
HETATM   15  C   UNK N   1      23.337  18.953   4.110  0.00  0.00     0.001 A 
HETATM   16  C   UNK N   1      23.443  20.001   3.195  0.00  0.00     0.000 A 
HETATM   17  C   UNK N   1      24.700  20.414   2.751  0.00  0.00     0.001 A 
HETATM   18  C   UNK N   1      25.851  19.774   3.219  0.00  0.00     0.010 A 
ENDBRANCH   7  13
BRANCH   1  19
HETATM   19  C   UNK N   1      27.558  19.694   6.446  0.00  0.00     0.005 C 
HETATM   20  C   UNK N   1      27.564  21.189   6.189  0.00  0.00     0.005 C 
ENDBRANCH   1  19
TORSDOF 5
ENDMDL
MODEL 8
REMARK VINA RESULT:      -5.3     24.319     26.908
REMARK  5 active torsions:
REMARK  status: ('A' for Active; 'I' for Inactive)
REMARK    1  A    between atoms: C_3  and  C_2 
REMARK    2  A    between atoms: C_9  and  O_10 
REMARK    3  A    between atoms: C_9  and  C_15 
REMARK    4  A    between atoms: O_10  and  C_11 
REMARK    5  A    between atoms: C_11  and  C_13 
ROOT
HETATM    1  C   UNK N   1      28.595  28.509  -5.370  0.00  0.00     0.053 C 
HETATM    2  C   UNK N   1      28.841  29.084  -3.957  0.00  0.00     0.279 C 
HETATM    3  N   UNK N   1      27.762  28.769  -3.011  0.00  0.00     0.084 N 
HETATM    4  C   UNK N   1      27.916  29.648  -1.867  0.00  0.00     0.309 C 
HETATM    5  C   UNK N   1      26.453  29.043  -3.605  0.00  0.00     0.275 C 
HETATM    6  C   UNK N   1      26.191  28.149  -4.831  0.00  0.00     0.074 C 
HETATM    7  C   UNK N   1      27.466  27.437  -5.347  0.00  0.00     0.104 C 
ENDROOT
BRANCH   7   8
HETATM    8  O   UNK N   1      27.871  26.414  -4.486  0.00  0.00    -0.305 OA
BRANCH   8   9
HETATM    9  C   UNK N   1      27.086  25.404  -4.011  0.00  0.00     0.259 C 
HETATM   10  O   UNK N   1      26.406  25.555  -3.005  0.00  0.00    -0.265 OA
BRANCH   9  11
HETATM   11  C   UNK N   1      27.047  24.100  -4.729  0.00  0.00     0.106 C 
HETATM   12  C   UNK N   1      28.468  23.643  -5.019  0.00  0.00     0.015 C 
ENDBRANCH   9  11
ENDBRANCH   8   9
ENDBRANCH   7   8
BRANCH   7  13
HETATM   13  C   UNK N   1      27.217  26.806  -6.718  0.00  0.00    -0.023 A 
HETATM   14  C   UNK N   1      25.903  26.659  -7.195  0.00  0.00     0.010 A 
HETATM   15  C   UNK N   1      25.654  26.037  -8.421  0.00  0.00     0.001 A 
HETATM   16  C   UNK N   1      26.715  25.553  -9.188  0.00  0.00     0.000 A 
HETATM   17  C   UNK N   1      28.025  25.690  -8.730  0.00  0.00     0.001 A 
HETATM   18  C   UNK N   1      28.275  26.307  -7.502  0.00  0.00     0.010 A 
ENDBRANCH   7  13
BRANCH   1  19
HETATM   19  C   UNK N   1      28.264  29.671  -6.316  0.00  0.00     0.005 C 
HETATM   20  C   UNK N   1      29.338  29.842  -7.374  0.00  0.00     0.005 C 
ENDBRANCH   1  19
TORSDOF 5
ENDMDL
MODEL 9
REMARK VINA RESULT:      -5.2     24.144     27.357
REMARK  5 active torsions:
REMARK  status: ('A' for Active; 'I' for Inactive)
REMARK    1  A    between atoms: C_3  and  C_2 
REMARK    2  A    between atoms: C_9  and  O_10 
REMARK    3  A    between atoms: C_9  and  C_15 
REMARK    4  A    between atoms: O_10  and  C_11 
REMARK    5  A    between atoms: C_11  and  C_13 
ROOT
HETATM    1  C   UNK N   1      25.613  24.781  -8.549  0.00  0.00     0.053 C 
HETATM    2  C   UNK N   1      25.865  23.481  -9.347  0.00  0.00     0.279 C 
HETATM    3  N   UNK N   1      27.219  22.943  -9.159  0.00  0.00     0.084 N 
HETATM    4  C   UNK N   1      27.451  21.971 -10.212  0.00  0.00     0.309 C 
HETATM    5  C   UNK N   1      28.222  23.998  -9.304  0.00  0.00     0.275 C 
HETATM    6  C   UNK N   1      28.064  25.081  -8.222  0.00  0.00     0.074 C 
HETATM    7  C   UNK N   1      26.713  24.992  -7.468  0.00  0.00     0.104 C 
ENDROOT
BRANCH   7   8
HETATM    8  O   UNK N   1      26.675  23.895  -6.604  0.00  0.00    -0.305 OA
BRANCH   8   9
HETATM    9  C   UNK N   1      27.625  23.562  -5.684  0.00  0.00     0.259 C 
HETATM   10  O   UNK N   1      28.553  22.819  -5.976  0.00  0.00    -0.265 OA
BRANCH   9  11
HETATM   11  C   UNK N   1      27.541  24.114  -4.303  0.00  0.00     0.106 C 
HETATM   12  C   UNK N   1      28.826  24.859  -3.981  0.00  0.00     0.015 C 
ENDBRANCH   9  11
ENDBRANCH   8   9
ENDBRANCH   7   8
BRANCH   7  13
HETATM   13  C   UNK N   1      26.482  26.246  -6.622  0.00  0.00    -0.023 A 
HETATM   14  C   UNK N   1      27.475  27.239  -6.552  0.00  0.00     0.010 A 
HETATM   15  C   UNK N   1      27.303  28.365  -5.743  0.00  0.00     0.001 A 
HETATM   16  C   UNK N   1      26.135  28.514  -4.991  0.00  0.00     0.000 A 
HETATM   17  C   UNK N   1      25.140  27.539  -5.049  0.00  0.00     0.001 A 
HETATM   18  C   UNK N   1      25.314  26.410  -5.854  0.00  0.00     0.010 A 
ENDBRANCH   7  13
BRANCH   1  19
HETATM   19  C   UNK N   1      25.549  25.952  -9.538  0.00  0.00     0.005 C 
HETATM   20  C   UNK N   1      24.872  25.542 -10.832  0.00  0.00     0.005 C 
ENDBRANCH   1  19
TORSDOF 5
ENDMDL
