MODEL 1
REMARK VINA RESULT:      -4.1      0.000      0.000
REMARK  3 active torsions:
REMARK  status: ('A' for Active; 'I' for Inactive)
REMARK    1  A    between atoms: C_2  and  N_1 
REMARK    2  A    between atoms: C_2  and  C_3 
REMARK    3  A    between atoms: C_2  and  C_5 
ROOT
HETATM    1  C   UNK N   1      33.775  17.350   8.897  0.00  0.00     0.305 C 
ENDROOT
BRANCH   1   2
HETATM    2  N   UNK N   1      34.429  16.937  10.127  0.00  0.00    -0.062 N 
HETATM    3  H   UNK N   1      35.442  17.011  10.215  0.00  0.00     0.275 HD
HETATM    4  H   UNK N   1      33.874  16.574  10.902  0.00  0.00     0.275 HD
HETATM    5  H   UNK N   1      34.888  16.648  10.991  0.00  0.00     0.275 HD
ENDBRANCH   1   2
BRANCH   1   6
HETATM    6  C   UNK N   1      32.394  16.801   8.669  0.00  0.00     0.006 C 
HETATM    7  C   UNK N   1      31.356  17.574   8.358  0.00  0.00     0.009 C 
ENDBRANCH   1   6
BRANCH   1   8
HETATM    8  C   UNK N   1      34.547  18.274   7.994  0.00  0.00     0.208 C 
HETATM    9  O   UNK N   1      35.305  19.251   8.527  0.00  0.00    -0.646 OA
HETATM   10  O   UNK N   1      34.494  18.148   6.779  0.00  0.00    -0.646 OA
ENDBRANCH   1   8
TORSDOF 3
ENDMDL
MODEL 2
REMARK VINA RESULT:      -4.0      1.472      2.263
REMARK  3 active torsions:
REMARK  status: ('A' for Active; 'I' for Inactive)
REMARK    1  A    between atoms: C_2  and  N_1 
REMARK    2  A    between atoms: C_2  and  C_3 
REMARK    3  A    between atoms: C_2  and  C_5 
ROOT
HETATM    1  C   UNK N   1      33.992  17.223   8.969  0.00  0.00     0.305 C 
ENDROOT
BRANCH   1   2
HETATM    2  N   UNK N   1      32.543  17.194   9.066  0.00  0.00    -0.062 N 
HETATM    3  H   UNK N   1      32.075  17.634   9.858  0.00  0.00     0.275 HD
HETATM    4  H   UNK N   1      31.992  16.732   8.341  0.00  0.00     0.275 HD
HETATM    5  H   UNK N   1      31.525  17.173   9.133  0.00  0.00     0.275 HD
ENDBRANCH   1   2
BRANCH   1   6
HETATM    6  C   UNK N   1      34.729  16.216   9.807  0.00  0.00     0.006 C 
HETATM    7  C   UNK N   1      35.406  16.551  10.903  0.00  0.00     0.009 C 
ENDBRANCH   1   6
BRANCH   1   8
HETATM    8  C   UNK N   1      34.590  18.251   8.047  0.00  0.00     0.208 C 
HETATM    9  O   UNK N   1      35.312  19.268   8.557  0.00  0.00    -0.646 OA
HETATM   10  O   UNK N   1      34.430  18.173   6.838  0.00  0.00    -0.646 OA
ENDBRANCH   1   8
TORSDOF 3
ENDMDL
MODEL 3
REMARK VINA RESULT:      -3.7     12.387     12.829
REMARK  3 active torsions:
REMARK  status: ('A' for Active; 'I' for Inactive)
REMARK    1  A    between atoms: C_2  and  N_1 
REMARK    2  A    between atoms: C_2  and  C_3 
REMARK    3  A    between atoms: C_2  and  C_5 
ROOT
HETATM    1  C   UNK N   1      22.400  12.320  11.387  0.00  0.00     0.305 C 
ENDROOT
BRANCH   1   2
HETATM    2  N   UNK N   1      21.158  11.741  11.867  0.00  0.00    -0.062 N 
HETATM    3  H   UNK N   1      20.816  10.867  11.469  0.00  0.00     0.275 HD
HETATM    4  H   UNK N   1      20.627  12.210  12.602  0.00  0.00     0.275 HD
HETATM    5  H   UNK N   1      20.285  11.334  12.204  0.00  0.00     0.275 HD
ENDBRANCH   1   2
BRANCH   1   6
HETATM    6  C   UNK N   1      22.313  13.094  10.100  0.00  0.00     0.006 C 
HETATM    7  C   UNK N   1      21.268  13.857   9.789  0.00  0.00     0.009 C 
ENDBRANCH   1   6
BRANCH   1   8
HETATM    8  C   UNK N   1      23.628  12.084  12.224  0.00  0.00     0.208 C 
HETATM    9  O   UNK N   1      23.525  12.043  13.567  0.00  0.00    -0.646 OA
HETATM   10  O   UNK N   1      24.721  11.929  11.699  0.00  0.00    -0.646 OA
ENDBRANCH   1   8
TORSDOF 3
ENDMDL
MODEL 4
REMARK VINA RESULT:      -3.6     12.915     13.744
REMARK  3 active torsions:
REMARK  status: ('A' for Active; 'I' for Inactive)
REMARK    1  A    between atoms: C_2  and  N_1 
REMARK    2  A    between atoms: C_2  and  C_3 
REMARK    3  A    between atoms: C_2  and  C_5 
ROOT
HETATM    1  C   UNK N   1      21.298  12.530  10.816  0.00  0.00     0.305 C 
ENDROOT
BRANCH   1   2
HETATM    2  N   UNK N   1      20.388  11.922  11.770  0.00  0.00    -0.062 N 
HETATM    3  H   UNK N   1      20.720  11.191  12.398  0.00  0.00     0.275 HD
HETATM    4  H   UNK N   1      19.415  12.228  11.812  0.00  0.00     0.275 HD
HETATM    5  H   UNK N   1      19.747  11.496  12.441  0.00  0.00     0.275 HD
ENDBRANCH   1   2
BRANCH   1   6
HETATM    6  C   UNK N   1      22.673  11.925  10.739  0.00  0.00     0.006 C 
HETATM    7  C   UNK N   1      23.496  11.875  11.784  0.00  0.00     0.009 C 
ENDBRANCH   1   6
BRANCH   1   8
HETATM    8  C   UNK N   1      20.770  13.690  10.015  0.00  0.00     0.208 C 
HETATM    9  O   UNK N   1      19.440  13.865   9.889  0.00  0.00    -0.646 OA
HETATM   10  O   UNK N   1      21.535  14.476   9.477  0.00  0.00    -0.646 OA
ENDBRANCH   1   8
TORSDOF 3
ENDMDL
MODEL 5
REMARK VINA RESULT:      -3.5      2.237      2.500
REMARK  3 active torsions:
REMARK  status: ('A' for Active; 'I' for Inactive)
REMARK    1  A    between atoms: C_2  and  N_1 
REMARK    2  A    between atoms: C_2  and  C_3 
REMARK    3  A    between atoms: C_2  and  C_5 
ROOT
HETATM    1  C   UNK N   1      33.510  17.700   7.453  0.00  0.00     0.305 C 
ENDROOT
BRANCH   1   2
HETATM    2  N   UNK N   1      32.126  17.564   7.872  0.00  0.00    -0.062 N 
HETATM    3  H   UNK N   1      31.541  18.393   7.976  0.00  0.00     0.275 HD
HETATM    4  H   UNK N   1      31.739  16.639   8.061  0.00  0.00     0.275 HD
HETATM    5  H   UNK N   1      31.154  17.469   8.166  0.00  0.00     0.275 HD
ENDBRANCH   1   2
BRANCH   1   6
HETATM    6  C   UNK N   1      33.790  17.419   6.002  0.00  0.00     0.006 C 
HETATM    7  C   UNK N   1      32.836  17.409   5.074  0.00  0.00     0.009 C 
ENDBRANCH   1   6
BRANCH   1   8
HETATM    8  C   UNK N   1      34.504  18.104   8.509  0.00  0.00     0.208 C 
HETATM    9  O   UNK N   1      35.168  19.269   8.391  0.00  0.00    -0.646 OA
HETATM   10  O   UNK N   1      34.715  17.385   9.474  0.00  0.00    -0.646 OA
ENDBRANCH   1   8
TORSDOF 3
ENDMDL
MODEL 6
REMARK VINA RESULT:      -3.3     11.691     12.285
REMARK  3 active torsions:
REMARK  status: ('A' for Active; 'I' for Inactive)
REMARK    1  A    between atoms: C_2  and  N_1 
REMARK    2  A    between atoms: C_2  and  C_3 
REMARK    3  A    between atoms: C_2  and  C_5 
ROOT
HETATM    1  C   UNK N   1      23.899  12.111  10.893  0.00  0.00     0.305 C 
ENDROOT
BRANCH   1   2
HETATM    2  N   UNK N   1      25.211  12.730  10.967  0.00  0.00    -0.062 N 
HETATM    3  H   UNK N   1      25.903  12.382  11.630  0.00  0.00     0.275 HD
HETATM    4  H   UNK N   1      25.440  13.514  10.355  0.00  0.00     0.275 HD
HETATM    5  H   UNK N   1      26.132  13.165  11.019  0.00  0.00     0.275 HD
ENDBRANCH   1   2
BRANCH   1   6
HETATM    6  C   UNK N   1      23.470  11.637   9.532  0.00  0.00     0.006 C 
HETATM    7  C   UNK N   1      24.075  12.024   8.412  0.00  0.00     0.009 C 
ENDBRANCH   1   6
BRANCH   1   8
HETATM    8  C   UNK N   1      23.120  12.014  12.177  0.00  0.00     0.208 C 
HETATM    9  O   UNK N   1      21.776  11.932  12.140  0.00  0.00    -0.646 OA
HETATM   10  O   UNK N   1      23.694  12.008  13.256  0.00  0.00    -0.646 OA
ENDBRANCH   1   8
TORSDOF 3
ENDMDL
MODEL 7
REMARK VINA RESULT:      -3.3      1.630      1.800
REMARK  3 active torsions:
REMARK  status: ('A' for Active; 'I' for Inactive)
REMARK    1  A    between atoms: C_2  and  N_1 
REMARK    2  A    between atoms: C_2  and  C_3 
REMARK    3  A    between atoms: C_2  and  C_5 
ROOT
HETATM    1  C   UNK N   1      33.855  17.300   7.734  0.00  0.00     0.305 C 
ENDROOT
BRANCH   1   2
HETATM    2  N   UNK N   1      34.443  16.180   7.021  0.00  0.00    -0.062 N 
HETATM    3  H   UNK N   1      35.417  16.219   6.724  0.00  0.00     0.275 HD
HETATM    4  H   UNK N   1      33.880  15.353   6.817  0.00  0.00     0.275 HD
HETATM    5  H   UNK N   1      34.855  15.392   6.520  0.00  0.00     0.275 HD
ENDBRANCH   1   2
BRANCH   1   6
HETATM    6  C   UNK N   1      32.393  17.548   7.482  0.00  0.00     0.006 C 
HETATM    7  C   UNK N   1      31.512  17.715   8.466  0.00  0.00     0.009 C 
ENDBRANCH   1   6
BRANCH   1   8
HETATM    8  C   UNK N   1      34.767  18.084   8.639  0.00  0.00     0.208 C 
HETATM    9  O   UNK N   1      35.231  17.521   9.771  0.00  0.00    -0.646 OA
HETATM   10  O   UNK N   1      35.092  19.228   8.358  0.00  0.00    -0.646 OA
ENDBRANCH   1   8
TORSDOF 3
ENDMDL
MODEL 8
REMARK VINA RESULT:      -3.3     14.542     14.859
REMARK  3 active torsions:
REMARK  status: ('A' for Active; 'I' for Inactive)
REMARK    1  A    between atoms: C_2  and  N_1 
REMARK    2  A    between atoms: C_2  and  C_3 
REMARK    3  A    between atoms: C_2  and  C_5 
ROOT
HETATM    1  C   UNK N   1      20.091  18.801   2.636  0.00  0.00     0.305 C 
ENDROOT
BRANCH   1   2
HETATM    2  N   UNK N   1      18.681  18.700   2.305  0.00  0.00    -0.062 N 
HETATM    3  H   UNK N   1      18.376  18.083   1.552  0.00  0.00     0.275 HD
HETATM    4  H   UNK N   1      17.994  19.245   2.827  0.00  0.00     0.275 HD
HETATM    5  H   UNK N   1      17.690  18.628   2.073  0.00  0.00     0.275 HD
ENDBRANCH   1   2
BRANCH   1   6
HETATM    6  C   UNK N   1      20.846  17.503   2.711  0.00  0.00     0.006 C 
HETATM    7  C   UNK N   1      20.535  16.446   1.964  0.00  0.00     0.009 C 
ENDBRANCH   1   6
BRANCH   1   8
HETATM    8  C   UNK N   1      20.638  20.185   2.865  0.00  0.00     0.208 C 
HETATM    9  O   UNK N   1      21.493  20.722   1.974  0.00  0.00    -0.646 OA
HETATM   10  O   UNK N   1      20.315  20.828   3.853  0.00  0.00    -0.646 OA
ENDBRANCH   1   8
TORSDOF 3
ENDMDL
MODEL 9
REMARK VINA RESULT:      -3.3     16.675     17.288
REMARK  3 active torsions:
REMARK  status: ('A' for Active; 'I' for Inactive)
REMARK    1  A    between atoms: C_2  and  N_1 
REMARK    2  A    between atoms: C_2  and  C_3 
REMARK    3  A    between atoms: C_2  and  C_5 
ROOT
HETATM    1  C   UNK N   1      25.799  24.892  -5.293  0.00  0.00     0.305 C 
ENDROOT
BRANCH   1   2
HETATM    2  N   UNK N   1      25.389  23.608  -5.833  0.00  0.00    -0.062 N 
HETATM    3  H   UNK N   1      25.922  23.179  -6.589  0.00  0.00     0.275 HD
HETATM    4  H   UNK N   1      24.567  23.135  -5.456  0.00  0.00     0.275 HD
HETATM    5  H   UNK N   1      25.101  22.706  -6.213  0.00  0.00     0.275 HD
ENDBRANCH   1   2
BRANCH   1   6
HETATM    6  C   UNK N   1      25.433  26.099  -6.111  0.00  0.00     0.006 C 
HETATM    7  C   UNK N   1      24.731  27.117  -5.618  0.00  0.00     0.009 C 
ENDBRANCH   1   6
BRANCH   1   8
HETATM    8  C   UNK N   1      26.539  24.873  -3.982  0.00  0.00     0.208 C 
HETATM    9  O   UNK N   1      27.485  25.798  -3.734  0.00  0.00    -0.646 OA
HETATM   10  O   UNK N   1      26.290  24.025  -3.137  0.00  0.00    -0.646 OA
ENDBRANCH   1   8
TORSDOF 3
ENDMDL
