MODEL 1
REMARK VINA RESULT:      -7.7      0.000      0.000
REMARK  0 active torsions:
REMARK  status: ('A' for Active; 'I' for Inactive)
ROOT
HETATM    1  C   UNK N   1      35.610  12.271  16.030  0.00  0.00    -0.001 C 
HETATM    2  C   UNK N   1      34.736  11.052  16.439  0.00  0.00     0.003 C 
HETATM    3  C   UNK N   1      35.187  12.716  14.621  0.00  0.00     0.006 C 
HETATM    4  C   UNK N   1      35.399  13.406  17.039  0.00  0.00     0.033 C 
HETATM    5  C   UNK N   1      35.200  10.526  17.823  0.00  0.00    -0.016 C 
HETATM    6  C   UNK N   1      34.745   9.937  15.362  0.00  0.00     0.007 C 
HETATM    7  C   UNK N   1      35.365  11.589  13.600  0.00  0.00     0.021 C 
HETATM    8  C   UNK N   1      35.854  13.919  13.971  0.00  0.00     0.013 C 
HETATM    9  C   UNK N   1      35.304  12.945  18.475  0.00  0.00    -0.022 C 
HETATM   10  C   UNK N   1      35.209  11.654  18.849  0.00  0.00    -0.068 C 
HETATM   11  C   UNK N   1      34.242   9.425  18.290  0.00  0.00     0.021 C 
HETATM   12  C   UNK N   1      36.617   9.947  17.732  0.00  0.00     0.020 C 
HETATM   13  C   UNK N   1      34.383  10.476  13.964  0.00  0.00     0.018 C 
HETATM   14  C   UNK N   1      35.126  12.356  12.354  0.00  0.00     0.135 C 
HETATM   15  C   UNK N   1      36.790  11.028  13.522  0.00  0.00     0.024 C 
HETATM   16  C   UNK N   1      35.361  13.824  12.517  0.00  0.00     0.079 C 
HETATM   17  C   UNK N   1      35.083  11.371  20.325  0.00  0.00     0.113 C 
HETATM   18  C   UNK N   1      34.649   8.863  19.648  0.00  0.00     0.079 C 
HETATM   19  O   UNK N   1      34.958  11.832  11.264  0.00  0.00    -0.297 OA
HETATM   20  C   UNK N   1      34.753   9.943  20.683  0.00  0.00     0.130 C 
HETATM   21  O   UNK N   1      34.561   9.658  21.853  0.00  0.00    -0.298 OA
ENDROOT
TORSDOF 0
ENDMDL
MODEL 2
REMARK VINA RESULT:      -7.6     22.525     25.950
REMARK  0 active torsions:
REMARK  status: ('A' for Active; 'I' for Inactive)
ROOT
HETATM    1  C   UNK N   1      29.198  23.197  -5.286  0.00  0.00    -0.001 C 
HETATM    2  C   UNK N   1      28.429  23.984  -4.188  0.00  0.00     0.003 C 
HETATM    3  C   UNK N   1      30.003  22.080  -4.604  0.00  0.00     0.006 C 
HETATM    4  C   UNK N   1      28.194  22.607  -6.283  0.00  0.00     0.033 C 
HETATM    5  C   UNK N   1      27.676  25.174  -4.838  0.00  0.00    -0.016 C 
HETATM    6  C   UNK N   1      29.360  24.445  -3.037  0.00  0.00     0.007 C 
HETATM    7  C   UNK N   1      30.996  22.645  -3.585  0.00  0.00     0.021 C 
HETATM    8  C   UNK N   1      30.834  21.120  -5.443  0.00  0.00     0.013 C 
HETATM    9  C   UNK N   1      27.049  23.531  -6.625  0.00  0.00    -0.022 C 
HETATM   10  C   UNK N   1      26.795  24.688  -5.984  0.00  0.00    -0.068 C 
HETATM   11  C   UNK N   1      26.800  25.854  -3.780  0.00  0.00     0.021 C 
HETATM   12  C   UNK N   1      28.669  26.201  -5.395  0.00  0.00     0.020 C 
HETATM   13  C   UNK N   1      30.186  23.281  -2.455  0.00  0.00     0.018 C 
HETATM   14  C   UNK N   1      31.762  21.411  -3.289  0.00  0.00     0.135 C 
HETATM   15  C   UNK N   1      31.982  23.665  -4.164  0.00  0.00     0.024 C 
HETATM   16  C   UNK N   1      31.670  20.390  -4.378  0.00  0.00     0.079 C 
HETATM   17  C   UNK N   1      25.586  25.473  -6.428  0.00  0.00     0.113 C 
HETATM   18  C   UNK N   1      26.035  27.039  -4.359  0.00  0.00     0.079 C 
HETATM   19  O   UNK N   1      32.549  21.315  -2.359  0.00  0.00    -0.297 OA
HETATM   20  C   UNK N   1      25.210  26.636  -5.544  0.00  0.00     0.130 C 
HETATM   21  O   UNK N   1      24.199  27.268  -5.801  0.00  0.00    -0.298 OA
ENDROOT
TORSDOF 0
ENDMDL
MODEL 3
REMARK VINA RESULT:      -7.2     22.167     25.112
REMARK  0 active torsions:
REMARK  status: ('A' for Active; 'I' for Inactive)
ROOT
HETATM    1  C   UNK N   1      29.234  23.613  -4.367  0.00  0.00    -0.001 C 
HETATM    2  C   UNK N   1      29.568  22.286  -5.104  0.00  0.00     0.003 C 
HETATM    3  C   UNK N   1      27.747  23.929  -4.593  0.00  0.00     0.006 C 
HETATM    4  C   UNK N   1      29.529  23.449  -2.872  0.00  0.00     0.033 C 
HETATM    5  C   UNK N   1      31.084  21.987  -4.967  0.00  0.00    -0.016 C 
HETATM    6  C   UNK N   1      29.113  22.308  -6.586  0.00  0.00     0.007 C 
HETATM    7  C   UNK N   1      27.424  24.071  -6.082  0.00  0.00     0.021 C 
HETATM    8  C   UNK N   1      27.126  25.162  -3.955  0.00  0.00     0.013 C 
HETATM    9  C   UNK N   1      30.791  22.673  -2.573  0.00  0.00    -0.022 C 
HETATM   10  C   UNK N   1      31.502  22.003  -3.501  0.00  0.00    -0.068 C 
HETATM   11  C   UNK N   1      31.381  20.606  -5.562  0.00  0.00     0.021 C 
HETATM   12  C   UNK N   1      31.911  23.039  -5.715  0.00  0.00     0.020 C 
HETATM   13  C   UNK N   1      27.630  22.704  -6.733  0.00  0.00     0.018 C 
HETATM   14  C   UNK N   1      26.041  24.595  -5.977  0.00  0.00     0.135 C 
HETATM   15  C   UNK N   1      28.258  25.132  -6.810  0.00  0.00     0.024 C 
HETATM   16  C   UNK N   1      25.761  25.246  -4.660  0.00  0.00     0.079 C 
HETATM   17  C   UNK N   1      32.717  21.247  -3.025  0.00  0.00     0.113 C 
HETATM   18  C   UNK N   1      32.862  20.256  -5.460  0.00  0.00     0.079 C 
HETATM   19  O   UNK N   1      25.278  24.675  -6.927  0.00  0.00    -0.297 OA
HETATM   20  C   UNK N   1      33.351  20.334  -4.045  0.00  0.00     0.130 C 
HETATM   21  O   UNK N   1      34.290  19.634  -3.707  0.00  0.00    -0.298 OA
ENDROOT
TORSDOF 0
ENDMDL
MODEL 4
REMARK VINA RESULT:      -7.1     11.184     14.194
REMARK  0 active torsions:
REMARK  status: ('A' for Active; 'I' for Inactive)
ROOT
HETATM    1  C   UNK N   1      29.917  16.677   6.624  0.00  0.00    -0.001 C 
HETATM    2  C   UNK N   1      29.618  16.971   5.127  0.00  0.00     0.003 C 
HETATM    3  C   UNK N   1      31.194  17.434   7.019  0.00  0.00     0.006 C 
HETATM    4  C   UNK N   1      28.730  17.139   7.478  0.00  0.00     0.033 C 
HETATM    5  C   UNK N   1      28.382  16.150   4.676  0.00  0.00    -0.016 C 
HETATM    6  C   UNK N   1      30.849  16.711   4.221  0.00  0.00     0.007 C 
HETATM    7  C   UNK N   1      32.388  17.006   6.161  0.00  0.00     0.021 C 
HETATM    8  C   UNK N   1      31.713  17.359   8.447  0.00  0.00     0.013 C 
HETATM    9  C   UNK N   1      27.380  16.847   6.867  0.00  0.00    -0.022 C 
HETATM   10  C   UNK N   1      27.201  16.406   5.606  0.00  0.00    -0.068 C 
HETATM   11  C   UNK N   1      27.999  16.557   3.249  0.00  0.00     0.021 C 
HETATM   12  C   UNK N   1      28.695  14.649   4.698  0.00  0.00     0.020 C 
HETATM   13  C   UNK N   1      32.107  17.447   4.725  0.00  0.00     0.018 C 
HETATM   14  C   UNK N   1      33.473  17.690   6.904  0.00  0.00     0.135 C 
HETATM   15  C   UNK N   1      32.686  15.503   6.201  0.00  0.00     0.024 C 
HETATM   16  C   UNK N   1      33.111  17.990   8.324  0.00  0.00     0.079 C 
HETATM   17  C   UNK N   1      25.780  16.201   5.142  0.00  0.00     0.113 C 
HETATM   18  C   UNK N   1      26.789  15.778   2.747  0.00  0.00     0.079 C 
HETATM   19  O   UNK N   1      34.610  17.812   6.474  0.00  0.00    -0.297 OA
HETATM   20  C   UNK N   1      25.616  15.928   3.668  0.00  0.00     0.130 C 
HETATM   21  O   UNK N   1      24.490  15.828   3.209  0.00  0.00    -0.298 OA
ENDROOT
TORSDOF 0
ENDMDL
MODEL 5
REMARK VINA RESULT:      -7.0      1.955      3.762
REMARK  0 active torsions:
REMARK  status: ('A' for Active; 'I' for Inactive)
ROOT
HETATM    1  C   UNK N   1      36.717  11.528  13.328  0.00  0.00    -0.001 C 
HETATM    2  C   UNK N   1      36.504  12.690  14.339  0.00  0.00     0.003 C 
HETATM    3  C   UNK N   1      37.408  12.097  12.079  0.00  0.00     0.006 C 
HETATM    4  C   UNK N   1      37.584  10.444  13.978  0.00  0.00     0.033 C 
HETATM    5  C   UNK N   1      35.728  12.162  15.575  0.00  0.00    -0.016 C 
HETATM    6  C   UNK N   1      35.801  13.910  13.690  0.00  0.00     0.007 C 
HETATM    7  C   UNK N   1      36.571  13.200  11.427  0.00  0.00     0.021 C 
HETATM    8  C   UNK N   1      37.776  11.174  10.926  0.00  0.00     0.013 C 
HETATM    9  C   UNK N   1      37.258  10.181  15.430  0.00  0.00    -0.022 C 
HETATM   10  C   UNK N   1      36.430  10.945  16.167  0.00  0.00    -0.068 C 
HETATM   11  C   UNK N   1      35.654  13.268  16.633  0.00  0.00     0.021 C 
HETATM   12  C   UNK N   1      34.303  11.753  15.182  0.00  0.00     0.020 C 
HETATM   13  C   UNK N   1      36.513  14.374  12.404  0.00  0.00     0.018 C 
HETATM   14  C   UNK N   1      37.338  13.371  10.171  0.00  0.00     0.135 C 
HETATM   15  C   UNK N   1      35.152  12.769  11.039  0.00  0.00     0.024 C 
HETATM   16  C   UNK N   1      38.155  12.170   9.816  0.00  0.00     0.079 C 
HETATM   17  C   UNK N   1      36.244  10.563  17.615  0.00  0.00     0.113 C 
HETATM   18  C   UNK N   1      34.896  12.810  17.874  0.00  0.00     0.079 C 
HETATM   19  O   UNK N   1      37.168  14.304   9.400  0.00  0.00    -0.297 OA
HETATM   20  C   UNK N   1      35.495  11.566  18.457  0.00  0.00     0.130 C 
HETATM   21  O   UNK N   1      35.374  11.358  19.652  0.00  0.00    -0.298 OA
ENDROOT
TORSDOF 0
ENDMDL
MODEL 6
REMARK VINA RESULT:      -7.0     11.202     13.969
REMARK  0 active torsions:
REMARK  status: ('A' for Active; 'I' for Inactive)
ROOT
HETATM    1  C   UNK N   1      29.962  15.907   4.172  0.00  0.00    -0.001 C 
HETATM    2  C   UNK N   1      29.910  16.752   5.475  0.00  0.00     0.003 C 
HETATM    3  C   UNK N   1      28.570  15.937   3.522  0.00  0.00     0.006 C 
HETATM    4  C   UNK N   1      31.012  16.501   3.225  0.00  0.00     0.033 C 
HETATM    5  C   UNK N   1      31.280  16.668   6.200  0.00  0.00    -0.016 C 
HETATM    6  C   UNK N   1      28.739  16.332   6.400  0.00  0.00     0.007 C 
HETATM    7  C   UNK N   1      27.501  15.372   4.460  0.00  0.00     0.021 C 
HETATM    8  C   UNK N   1      28.330  15.218   2.203  0.00  0.00     0.013 C 
HETATM    9  C   UNK N   1      32.271  16.970   3.916  0.00  0.00    -0.022 C 
HETATM   10  C   UNK N   1      32.410  17.057   5.253  0.00  0.00    -0.068 C 
HETATM   11  C   UNK N   1      31.274  17.621   7.400  0.00  0.00     0.021 C 
HETATM   12  C   UNK N   1      31.539  15.241   6.698  0.00  0.00     0.020 C 
HETATM   13  C   UNK N   1      27.388  16.317   5.656  0.00  0.00     0.018 C 
HETATM   14  C   UNK N   1      26.363  15.304   3.512  0.00  0.00     0.135 C 
HETATM   15  C   UNK N   1      27.777  13.943   4.942  0.00  0.00     0.024 C 
HETATM   16  C   UNK N   1      26.797  15.256   2.081  0.00  0.00     0.079 C 
HETATM   17  C   UNK N   1      33.723  17.583   5.778  0.00  0.00     0.113 C 
HETATM   18  C   UNK N   1      32.597  17.579   8.158  0.00  0.00     0.079 C 
HETATM   19  O   UNK N   1      25.210  15.100   3.858  0.00  0.00    -0.297 OA
HETATM   20  C   UNK N   1      33.758  17.876   7.257  0.00  0.00     0.130 C 
HETATM   21  O   UNK N   1      34.762  18.375   7.735  0.00  0.00    -0.298 OA
ENDROOT
TORSDOF 0
ENDMDL
MODEL 7
REMARK VINA RESULT:      -6.9      6.834     10.259
REMARK  0 active torsions:
REMARK  status: ('A' for Active; 'I' for Inactive)
ROOT
HETATM    1  C   UNK N   1      33.870  16.473   6.659  0.00  0.00    -0.001 C 
HETATM    2  C   UNK N   1      33.384  15.407   7.681  0.00  0.00     0.003 C 
HETATM    3  C   UNK N   1      32.809  16.602   5.556  0.00  0.00     0.006 C 
HETATM    4  C   UNK N   1      34.065  17.812   7.379  0.00  0.00     0.033 C 
HETATM    5  C   UNK N   1      34.477  15.192   8.762  0.00  0.00    -0.016 C 
HETATM    6  C   UNK N   1      32.978  14.078   6.994  0.00  0.00     0.007 C 
HETATM    7  C   UNK N   1      32.580  15.268   4.839  0.00  0.00     0.021 C 
HETATM    8  C   UNK N   1      33.003  17.604   4.428  0.00  0.00     0.013 C 
HETATM    9  C   UNK N   1      34.684  17.691   8.752  0.00  0.00    -0.022 C 
HETATM   10  C   UNK N   1      34.873  16.521   9.394  0.00  0.00    -0.068 C 
HETATM   11  C   UNK N   1      33.934  14.257   9.848  0.00  0.00     0.021 C 
HETATM   12  C   UNK N   1      35.729  14.560   8.143  0.00  0.00     0.020 C 
HETATM   13  C   UNK N   1      31.968  14.300   5.850  0.00  0.00     0.018 C 
HETATM   14  C   UNK N   1      31.731  15.741   3.720  0.00  0.00     0.135 C 
HETATM   15  C   UNK N   1      33.844  14.657   4.224  0.00  0.00     0.024 C 
HETATM   16  C   UNK N   1      31.899  17.200   3.434  0.00  0.00     0.079 C 
HETATM   17  C   UNK N   1      35.469  16.583  10.778  0.00  0.00     0.113 C 
HETATM   18  C   UNK N   1      34.967  14.003  10.940  0.00  0.00     0.079 C 
HETATM   19  O   UNK N   1      31.117  14.991   2.977  0.00  0.00    -0.297 OA
HETATM   20  C   UNK N   1      35.455  15.284  11.546  0.00  0.00     0.130 C 
HETATM   21  O   UNK N   1      35.851  15.277  12.699  0.00  0.00    -0.298 OA
ENDROOT
TORSDOF 0
ENDMDL
MODEL 8
REMARK VINA RESULT:      -6.8     23.027     25.485
REMARK  0 active torsions:
REMARK  status: ('A' for Active; 'I' for Inactive)
ROOT
HETATM    1  C   UNK N   1      28.564  22.891  -5.433  0.00  0.00    -0.001 C 
HETATM    2  C   UNK N   1      29.980  23.365  -5.001  0.00  0.00     0.003 C 
HETATM    3  C   UNK N   1      27.694  24.133  -5.679  0.00  0.00     0.006 C 
HETATM    4  C   UNK N   1      28.679  22.051  -6.710  0.00  0.00     0.033 C 
HETATM    5  C   UNK N   1      30.856  22.131  -4.660  0.00  0.00    -0.016 C 
HETATM    6  C   UNK N   1      29.927  24.380  -3.830  0.00  0.00     0.007 C 
HETATM    7  C   UNK N   1      27.586  25.000  -4.423  0.00  0.00     0.021 C 
HETATM    8  C   UNK N   1      26.256  23.973  -6.150  0.00  0.00     0.013 C 
HETATM    9  C   UNK N   1      29.868  21.118  -6.730  0.00  0.00    -0.022 C 
HETATM   10  C   UNK N   1      30.861  21.141  -5.821  0.00  0.00    -0.068 C 
HETATM   11  C   UNK N   1      32.291  22.592  -4.384  0.00  0.00     0.021 C 
HETATM   12  C   UNK N   1      30.316  21.413  -3.418  0.00  0.00     0.020 C 
HETATM   13  C   UNK N   1      28.977  25.558  -4.125  0.00  0.00     0.018 C 
HETATM   14  C   UNK N   1      26.535  25.944  -4.874  0.00  0.00     0.135 C 
HETATM   15  C   UNK N   1      27.040  24.265  -3.194  0.00  0.00     0.024 C 
HETATM   16  C   UNK N   1      25.695  25.397  -5.984  0.00  0.00     0.079 C 
HETATM   17  C   UNK N   1      31.994  20.164  -6.011  0.00  0.00     0.113 C 
HETATM   18  C   UNK N   1      33.203  21.420  -4.037  0.00  0.00     0.079 C 
HETATM   19  O   UNK N   1      26.249  26.969  -4.275  0.00  0.00    -0.297 OA
HETATM   20  C   UNK N   1      33.186  20.373  -5.110  0.00  0.00     0.130 C 
HETATM   21  O   UNK N   1      34.169  19.668  -5.261  0.00  0.00    -0.298 OA
ENDROOT
TORSDOF 0
ENDMDL
MODEL 9
REMARK VINA RESULT:      -6.6     14.636     16.621
REMARK  0 active torsions:
REMARK  status: ('A' for Active; 'I' for Inactive)
ROOT
HETATM    1  C   UNK N   1      23.228  15.332   6.193  0.00  0.00    -0.001 C 
HETATM    2  C   UNK N   1      22.249  15.794   7.308  0.00  0.00     0.003 C 
HETATM    3  C   UNK N   1      23.757  16.580   5.469  0.00  0.00     0.006 C 
HETATM    4  C   UNK N   1      24.382  14.546   6.825  0.00  0.00     0.033 C 
HETATM    5  C   UNK N   1      21.630  14.549   7.999  0.00  0.00    -0.016 C 
HETATM    6  C   UNK N   1      21.161  16.759   6.771  0.00  0.00     0.007 C 
HETATM    7  C   UNK N   1      22.618  17.395   4.851  0.00  0.00     0.021 C 
HETATM    8  C   UNK N   1      24.769  16.435   4.342  0.00  0.00     0.013 C 
HETATM    9  C   UNK N   1      23.958  13.619   7.941  0.00  0.00    -0.022 C 
HETATM   10  C   UNK N   1      22.727  13.608   8.487  0.00  0.00    -0.068 C 
HETATM   11  C   UNK N   1      20.786  15.004   9.195  0.00  0.00     0.021 C 
HETATM   12  C   UNK N   1      20.735  13.780   7.021  0.00  0.00     0.020 C 
HETATM   13  C   UNK N   1      21.768  17.945   5.996  0.00  0.00     0.018 C 
HETATM   14  C   UNK N   1      23.418  18.353   4.050  0.00  0.00     0.135 C 
HETATM   15  C   UNK N   1      21.738  16.608   3.873  0.00  0.00     0.024 C 
HETATM   16  C   UNK N   1      24.790  17.848   3.734  0.00  0.00     0.079 C 
HETATM   17  C   UNK N   1      22.483  12.644   9.621  0.00  0.00     0.113 C 
HETATM   18  C   UNK N   1      20.146  13.822   9.914  0.00  0.00     0.079 C 
HETATM   19  O   UNK N   1      22.946  19.351   3.528  0.00  0.00    -0.297 OA
HETATM   20  C   UNK N   1      21.173  12.820  10.348  0.00  0.00     0.130 C 
HETATM   21  O   UNK N   1      20.943  12.125  11.323  0.00  0.00    -0.298 OA
ENDROOT
TORSDOF 0
ENDMDL
