REMARK  9 active torsions:
REMARK  status: ('A' for Active; 'I' for Inactive)
REMARK    1  A    between atoms: C_3  and  Fe_4 
REMARK    2  A    between atoms: C_5  and  Fe_4 
REMARK    3  A    between atoms: Fe_4  and  C_6 
REMARK    4  A    between atoms: C_5  and  C_6 
REMARK    5  A    between atoms: C_8  and  C_9 
REMARK    6  A    between atoms: C_20  and  C_8 
REMARK    7  A    between atoms: C_9  and  C_10 
REMARK    8  A    between atoms: C_10  and  C_11 
REMARK    9  A    between atoms: C_16  and  N_18 
ROOT
HETATM    1  C   UNK N   1       0.827  -3.367   0.000  0.00  0.00     0.000 A 
HETATM    2  C   UNK N   1       0.026  -3.751   0.000  0.00  0.00     0.000 A 
HETATM    3  C   UNK N   1       1.702  -3.726   0.000  0.00  0.00     0.000 A 
HETATM    4 Fe   UNK N   1       0.813  -2.436   0.000  0.00  0.00     0.000 Fe
HETATM    5  C   UNK N   1       0.468  -4.241   0.000  0.00  0.00     0.000 A 
HETATM    6  C   UNK N   1       1.213  -4.230   0.000  0.00  0.00     0.000 A 
HETATM    7  C   UNK N   1       0.797  -1.380   0.000  0.00  0.00     0.005 A 
HETATM    8  C   UNK N   1       1.660  -0.933   0.000  0.00  0.00    -0.022 A 
HETATM    9  C   UNK N   1       1.156  -0.443   0.000  0.00  0.00     0.005 A 
HETATM   10  C   UNK N   1       0.411  -0.455   0.000  0.00  0.00     0.001 A 
HETATM   11  C   UNK N   1       0.045  -0.895   0.000  0.00  0.00     0.001 A 
HETATM   12  O   UNK N   1       3.964  -0.232   0.000  0.00  0.00    -0.268 OA
HETATM   13  C   UNK N   1       4.206  -1.020   0.000  0.00  0.00     0.250 A 
HETATM   14  C   UNK N   1       4.987  -1.288   0.000  0.00  0.00     0.080 A 
HETATM   15  C   UNK N   1       4.974  -2.113   0.000  0.00  0.00     0.080 A 
HETATM   16  C   UNK N   1       4.185  -2.355   0.000  0.00  0.00     0.250 A 
HETATM   17  O   UNK N   1       3.917  -3.136   0.000  0.00  0.00    -0.268 OA
HETATM   18  N   UNK N   1       3.711  -1.680   0.000  0.00  0.00    -0.281 N 
HETATM   19  C   UNK N   1       2.886  -1.667   0.000  0.00  0.00     0.136 A 
HETATM   20  C   UNK N   1       2.485  -0.946   0.000  0.00  0.00     0.031 A 
ENDROOT
TORSDOF 9
