MODEL 1
REMARK VINA RESULT:      -3.7      0.000      0.000
REMARK  4 active torsions:
REMARK  status: ('A' for Active; 'I' for Inactive)
REMARK    1  A    between atoms: O_1  and  C_2 
REMARK    2  A    between atoms: C_2  and  C_3 
REMARK    3  A    between atoms: C_3  and  C_5 
REMARK    4  A    between atoms: C_5  and  O_6 
ROOT
HETATM    1  C   UNK N   1      20.299  19.949   2.689  0.00  0.00     0.173 C 
HETATM    2  O   UNK N   1      20.326  20.627   3.705  0.00  0.00    -0.293 OA
ENDROOT
BRANCH   1   3
HETATM    3  C   UNK N   1      20.983  20.422   1.444  0.00  0.00     0.244 C 
BRANCH   3   4
HETATM    4  O   UNK N   1      20.513  19.729   0.326  0.00  0.00    -0.394 OA
HETATM    5  H   UNK N   1      19.616  19.361   0.325  0.00  0.00     0.209 HD
ENDBRANCH   3   4
ENDBRANCH   1   3
BRANCH   1   6
HETATM    6  C   UNK N   1      19.583  18.634   2.671  0.00  0.00     0.244 C 
BRANCH   6   7
HETATM    7  O   UNK N   1      18.248  18.800   2.297  0.00  0.00    -0.394 OA
HETATM    8  H   UNK N   1      17.684  19.428   2.776  0.00  0.00     0.209 HD
ENDBRANCH   6   7
ENDBRANCH   1   6
TORSDOF 4
ENDMDL
MODEL 2
REMARK VINA RESULT:      -3.7      0.014      2.350
REMARK  4 active torsions:
REMARK  status: ('A' for Active; 'I' for Inactive)
REMARK    1  A    between atoms: O_1  and  C_2 
REMARK    2  A    between atoms: C_2  and  C_3 
REMARK    3  A    between atoms: C_3  and  C_5 
REMARK    4  A    between atoms: C_5  and  O_6 
ROOT
HETATM    1  C   UNK N   1      20.305  19.951   2.686  0.00  0.00     0.173 C 
HETATM    2  O   UNK N   1      20.332  20.631   3.701  0.00  0.00    -0.293 OA
ENDROOT
BRANCH   1   3
HETATM    3  C   UNK N   1      19.600  18.631   2.675  0.00  0.00     0.244 C 
BRANCH   3   4
HETATM    4  O   UNK N   1      18.260  18.787   2.313  0.00  0.00    -0.394 OA
HETATM    5  H   UNK N   1      17.670  18.017   2.293  0.00  0.00     0.209 HD
ENDBRANCH   3   4
ENDBRANCH   1   3
BRANCH   1   6
HETATM    6  C   UNK N   1      20.978  20.427   1.435  0.00  0.00     0.244 C 
BRANCH   6   7
HETATM    7  O   UNK N   1      20.513  19.723   0.323  0.00  0.00    -0.394 OA
HETATM    8  H   UNK N   1      21.100  19.104  -0.140  0.00  0.00     0.209 HD
ENDBRANCH   6   7
ENDBRANCH   1   6
TORSDOF 4
ENDMDL
MODEL 3
REMARK VINA RESULT:      -3.5     15.508     16.115
REMARK  4 active torsions:
REMARK  status: ('A' for Active; 'I' for Inactive)
REMARK    1  A    between atoms: O_1  and  C_2 
REMARK    2  A    between atoms: C_2  and  C_3 
REMARK    3  A    between atoms: C_3  and  C_5 
REMARK    4  A    between atoms: C_5  and  O_6 
ROOT
HETATM    1  C   UNK N   1      34.572  18.128   8.396  0.00  0.00     0.173 C 
HETATM    2  O   UNK N   1      35.237  19.150   8.470  0.00  0.00    -0.293 OA
ENDROOT
BRANCH   1   3
HETATM    3  C   UNK N   1      33.577  17.949   7.291  0.00  0.00     0.244 C 
BRANCH   3   4
HETATM    4  O   UNK N   1      34.220  17.841   6.056  0.00  0.00    -0.394 OA
HETATM    5  H   UNK N   1      34.734  18.587   5.710  0.00  0.00     0.209 HD
ENDBRANCH   3   4
ENDBRANCH   1   3
BRANCH   1   6
HETATM    6  C   UNK N   1      34.740  17.037   9.408  0.00  0.00     0.244 C 
BRANCH   6   7
HETATM    7  O   UNK N   1      35.659  17.408  10.391  0.00  0.00    -0.394 OA
HETATM    8  H   UNK N   1      36.610  17.386  10.200  0.00  0.00     0.209 HD
ENDBRANCH   6   7
ENDBRANCH   1   6
TORSDOF 4
ENDMDL
MODEL 4
REMARK VINA RESULT:      -3.3     11.816     12.688
REMARK  4 active torsions:
REMARK  status: ('A' for Active; 'I' for Inactive)
REMARK    1  A    between atoms: O_1  and  C_2 
REMARK    2  A    between atoms: C_2  and  C_3 
REMARK    3  A    between atoms: C_3  and  C_5 
REMARK    4  A    between atoms: C_5  and  O_6 
ROOT
HETATM    1  C   UNK N   1      30.969  21.680  -3.306  0.00  0.00     0.173 C 
HETATM    2  O   UNK N   1      30.347  20.788  -3.863  0.00  0.00    -0.293 OA
ENDROOT
BRANCH   1   3
HETATM    3  C   UNK N   1      32.459  21.599  -3.175  0.00  0.00     0.244 C 
BRANCH   3   4
HETATM    4  O   UNK N   1      32.821  21.122  -1.912  0.00  0.00    -0.394 OA
HETATM    5  H   UNK N   1      33.703  21.312  -1.557  0.00  0.00     0.209 HD
ENDBRANCH   3   4
ENDBRANCH   1   3
BRANCH   1   6
HETATM    6  C   UNK N   1      30.253  22.869  -2.744  0.00  0.00     0.244 C 
BRANCH   6   7
HETATM    7  O   UNK N   1      30.507  23.002  -1.377  0.00  0.00    -0.394 OA
HETATM    8  H   UNK N   1      29.769  23.047  -0.748  0.00  0.00     0.209 HD
ENDBRANCH   6   7
ENDBRANCH   1   6
TORSDOF 4
ENDMDL
MODEL 5
REMARK VINA RESULT:      -3.3     11.798     12.745
REMARK  4 active torsions:
REMARK  status: ('A' for Active; 'I' for Inactive)
REMARK    1  A    between atoms: O_1  and  C_2 
REMARK    2  A    between atoms: C_2  and  C_3 
REMARK    3  A    between atoms: C_3  and  C_5 
REMARK    4  A    between atoms: C_5  and  O_6 
ROOT
HETATM    1  C   UNK N   1      30.948  21.673  -3.265  0.00  0.00     0.173 C 
HETATM    2  O   UNK N   1      30.315  20.773  -3.794  0.00  0.00    -0.293 OA
ENDROOT
BRANCH   1   3
HETATM    3  C   UNK N   1      30.242  22.866  -2.698  0.00  0.00     0.244 C 
BRANCH   3   4
HETATM    4  O   UNK N   1      30.512  23.001  -1.334  0.00  0.00    -0.394 OA
HETATM    5  H   UNK N   1      30.242  23.805  -0.864  0.00  0.00     0.209 HD
ENDBRANCH   3   4
ENDBRANCH   1   3
BRANCH   1   6
HETATM    6  C   UNK N   1      32.441  21.600  -3.174  0.00  0.00     0.244 C 
BRANCH   6   7
HETATM    7  O   UNK N   1      32.840  21.131  -1.920  0.00  0.00    -0.394 OA
HETATM    8  H   UNK N   1      32.757  21.702  -1.140  0.00  0.00     0.209 HD
ENDBRANCH   6   7
ENDBRANCH   1   6
TORSDOF 4
ENDMDL
MODEL 6
REMARK VINA RESULT:      -3.2      1.149      2.927
REMARK  4 active torsions:
REMARK  status: ('A' for Active; 'I' for Inactive)
REMARK    1  A    between atoms: O_1  and  C_2 
REMARK    2  A    between atoms: C_2  and  C_3 
REMARK    3  A    between atoms: C_3  and  C_5 
REMARK    4  A    between atoms: C_5  and  O_6 
ROOT
HETATM    1  C   UNK N   1      20.717  19.806   1.690  0.00  0.00     0.173 C 
HETATM    2  O   UNK N   1      21.025  20.221   0.583  0.00  0.00    -0.293 OA
ENDROOT
BRANCH   1   3
HETATM    3  C   UNK N   1      20.224  18.403   1.864  0.00  0.00     0.244 C 
BRANCH   3   4
HETATM    4  O   UNK N   1      18.870  18.391   2.204  0.00  0.00    -0.394 OA
HETATM    5  H   UNK N   1      18.604  18.316   3.133  0.00  0.00     0.209 HD
ENDBRANCH   3   4
ENDBRANCH   1   3
BRANCH   1   6
HETATM    6  C   UNK N   1      20.828  20.692   2.892  0.00  0.00     0.244 C 
BRANCH   6   7
HETATM    7  O   UNK N   1      21.831  21.647   2.714  0.00  0.00    -0.394 OA
HETATM    8  H   UNK N   1      21.642  22.466   2.230  0.00  0.00     0.209 HD
ENDBRANCH   6   7
ENDBRANCH   1   6
TORSDOF 4
ENDMDL
MODEL 7
REMARK VINA RESULT:      -3.2     16.200     16.756
REMARK  4 active torsions:
REMARK  status: ('A' for Active; 'I' for Inactive)
REMARK    1  A    between atoms: O_1  and  C_2 
REMARK    2  A    between atoms: C_2  and  C_3 
REMARK    3  A    between atoms: C_3  and  C_5 
REMARK    4  A    between atoms: C_5  and  O_6 
ROOT
HETATM    1  C   UNK N   1      34.806  17.113   9.414  0.00  0.00     0.173 C 
HETATM    2  O   UNK N   1      35.570  17.391  10.325  0.00  0.00    -0.293 OA
ENDROOT
BRANCH   1   3
HETATM    3  C   UNK N   1      34.135  15.775   9.368  0.00  0.00     0.244 C 
BRANCH   3   4
HETATM    4  O   UNK N   1      33.507  15.492  10.583  0.00  0.00    -0.394 OA
HETATM    5  H   UNK N   1      33.391  16.192  11.243  0.00  0.00     0.209 HD
ENDBRANCH   3   4
ENDBRANCH   1   3
BRANCH   1   6
HETATM    6  C   UNK N   1      34.525  18.105   8.327  0.00  0.00     0.244 C 
BRANCH   6   7
HETATM    7  O   UNK N   1      35.295  19.257   8.496  0.00  0.00    -0.394 OA
HETATM    8  H   UNK N   1      36.037  19.438   7.897  0.00  0.00     0.209 HD
ENDBRANCH   6   7
ENDBRANCH   1   6
TORSDOF 4
ENDMDL
MODEL 8
REMARK VINA RESULT:      -3.2      1.143      2.100
REMARK  4 active torsions:
REMARK  status: ('A' for Active; 'I' for Inactive)
REMARK    1  A    between atoms: O_1  and  C_2 
REMARK    2  A    between atoms: C_2  and  C_3 
REMARK    3  A    between atoms: C_3  and  C_5 
REMARK    4  A    between atoms: C_5  and  O_6 
ROOT
HETATM    1  C   UNK N   1      20.713  19.804   1.706  0.00  0.00     0.173 C 
HETATM    2  O   UNK N   1      21.022  20.220   0.600  0.00  0.00    -0.293 OA
ENDROOT
BRANCH   1   3
HETATM    3  C   UNK N   1      20.828  20.688   2.909  0.00  0.00     0.244 C 
BRANCH   3   4
HETATM    4  O   UNK N   1      21.818  21.655   2.722  0.00  0.00    -0.394 OA
HETATM    5  H   UNK N   1      21.789  22.234   1.944  0.00  0.00     0.209 HD
ENDBRANCH   3   4
ENDBRANCH   1   3
BRANCH   1   6
HETATM    6  C   UNK N   1      20.213  18.403   1.878  0.00  0.00     0.244 C 
BRANCH   6   7
HETATM    7  O   UNK N   1      18.852  18.396   2.194  0.00  0.00    -0.394 OA
HETATM    8  H   UNK N   1      18.281  19.120   1.894  0.00  0.00     0.209 HD
ENDBRANCH   6   7
ENDBRANCH   1   6
TORSDOF 4
ENDMDL
MODEL 9
REMARK VINA RESULT:      -3.2     15.159     15.843
REMARK  4 active torsions:
REMARK  status: ('A' for Active; 'I' for Inactive)
REMARK    1  A    between atoms: O_1  and  C_2 
REMARK    2  A    between atoms: C_2  and  C_3 
REMARK    3  A    between atoms: C_3  and  C_5 
REMARK    4  A    between atoms: C_5  and  O_6 
ROOT
HETATM    1  C   UNK N   1      34.384  18.102   8.501  0.00  0.00     0.173 C 
HETATM    2  O   UNK N   1      35.079  19.090   8.319  0.00  0.00    -0.293 OA
ENDROOT
BRANCH   1   3
HETATM    3  C   UNK N   1      34.929  16.916   9.236  0.00  0.00     0.244 C 
BRANCH   3   4
HETATM    4  O   UNK N   1      34.745  17.059  10.614  0.00  0.00    -0.394 OA
HETATM    5  H   UNK N   1      35.343  17.623  11.127  0.00  0.00     0.209 HD
ENDBRANCH   3   4
ENDBRANCH   1   3
BRANCH   1   6
HETATM    6  C   UNK N   1      32.976  18.059   7.993  0.00  0.00     0.244 C 
BRANCH   6   7
HETATM    7  O   UNK N   1      32.109  17.569   8.972  0.00  0.00    -0.394 OA
HETATM    8  H   UNK N   1      31.903  18.109   9.752  0.00  0.00     0.209 HD
ENDBRANCH   6   7
ENDBRANCH   1   6
TORSDOF 4
ENDMDL
