MODEL 1
REMARK VINA RESULT:      -7.3      0.000      0.000
REMARK WARNING: 32 MAX_TORS EXCEEDED!!!
REMARK  33 active torsions:
REMARK  status: ('A' for Active; 'I' for Inactive)
REMARK    1  A    between atoms: C_8  and  C_5 
REMARK    2  A    between atoms: C_14  and  C_5 
REMARK    3  A    between atoms: C_9  and  C_6 
REMARK    4  A    between atoms: C_15  and  C_6 
REMARK    5  A    between atoms: C_10  and  C_7 
REMARK    6  A    between atoms: C_16  and  C_7 
REMARK    7  A    between atoms: C_27  and  C_8 
REMARK    8  A    between atoms: C_28  and  C_9 
REMARK    9  A    between atoms: C_29  and  C_10 
REMARK   10  A    between atoms: C_17  and  C_11 
REMARK   11  A    between atoms: C_23  and  C_11 
REMARK   12  A    between atoms: C_18  and  C_12 
REMARK   13  A    between atoms: C_24  and  C_12 
REMARK   14  A    between atoms: C_19  and  C_13 
REMARK   15  A    between atoms: C_25  and  C_13 
REMARK   16  A    between atoms: N_42  and  C_14 
REMARK   17  A    between atoms: N_43  and  C_15 
REMARK   18  A    between atoms: N_44  and  C_16 
REMARK   19  A    between atoms: O_45  and  C_17 
REMARK   20  A    between atoms: O_46  and  C_18 
REMARK   21  A    between atoms: O_60  and  C_19 
REMARK   22  A    between atoms: C_30  and  C_20 
REMARK   23  A    between atoms: C_31  and  C_21 
REMARK   24  A    between atoms: C_32  and  C_22 
REMARK   25  A    between atoms: C_35  and  C_29 
REMARK   26  A    between atoms: C_29  and  N_36 
REMARK       I    between atoms: N_42  and  C_30 
REMARK       I    between atoms: N_44  and  C_31 
REMARK       I    between atoms: N_43  and  C_32 
REMARK   27  A    between atoms: O_51  and  C_33 
REMARK   28  A    between atoms: O_52  and  C_34 
REMARK   29  A    between atoms: O_60  and  C_35 
REMARK   30  A    between atoms: O_54  and  N_42 
REMARK   31  A    between atoms: O_56  and  N_43 
REMARK   32  A    between atoms: O_58  and  N_44 
REMARK   33  A    between atoms: Fe_61  and  Fe_61 
ROOT
HETATM    1  C   UNK N   1      20.579  20.183   2.919  0.00  0.00     0.097 C 
HETATM    2  C   UNK N   1      20.047  18.800   2.792  0.00  0.00     0.107 C 
HETATM    3  N   UNK N   1      20.848  17.794   2.967  0.00  0.00    -0.361 N 
ATOM      4  HN  UNK N   1      21.821  18.013   3.182  1.00  0.00     0.162 HD
HETATM    5  O   UNK N   1      18.732  18.618   2.550  0.00  0.00    -0.350 OA
HETATM    6  H   UNK N   1      17.808  18.564   2.409  0.00  0.00     0.219 HD
ENDROOT
BRANCH   3   7
HETATM    7  C   UNK N   1      20.491  16.374   2.886  0.00  0.00     0.183 C 
BRANCH   7   8
HETATM    8  C   UNK N   1      20.975  15.554   4.099  0.00  0.00     0.037 C 
BRANCH   8   9
HETATM    9  C   UNK N   1      21.143  16.337   5.409  0.00  0.00     0.025 C 
BRANCH   9  10
HETATM   10  C   UNK N   1      20.035  16.043   6.417  0.00  0.00     0.159 C 
BRANCH  10  11
HETATM   11  N   UNK N   1      20.535  15.499   7.637  0.00  0.00    -0.225 N 
HETATM   12  C   UNK N   1      20.601  14.154   7.832  0.00  0.00     0.267 C 
HETATM   13  O   UNK N   1      20.229  13.384   6.955  0.00  0.00    -0.266 OA
BRANCH  12  14
HETATM   14  C   UNK N   1      21.175  13.638   9.089  0.00  0.00     0.079 C 
HETATM   15  C   UNK N   1      22.465  13.305   9.268  0.00  0.00    -0.076 C 
HETATM   16  C   UNK N   1      23.488  13.398   8.178  0.00  0.00     0.043 C 
BRANCH  15  17
HETATM   17  C   UNK N   1      22.914  12.893  10.631  0.00  0.00     0.059 C 
BRANCH  17  18
HETATM   18  C   UNK N   1      24.203  12.092  10.510  0.00  0.00     0.168 C 
BRANCH  18  19
HETATM   19  O   UNK N   1      25.189  12.652  11.316  0.00  0.00    -0.401 OA
HETATM   20  H   UNK N   1      26.130  12.444  11.202  0.00  0.00     0.209 HD
ENDBRANCH  18  19
ENDBRANCH  17  18
ENDBRANCH  15  17
ENDBRANCH  12  14
BRANCH  11  21
HETATM   21  O   UNK N   1      20.949  16.350   8.586  0.00  0.00    -0.285 OA
ATOM     22  HO  UNK N   1      21.877  16.381   8.788  1.00  0.00     0.245 HD
ENDBRANCH  11  21
ENDBRANCH  10  11
ENDBRANCH   9  10
ENDBRANCH   8   9
ENDBRANCH   7   8
BRANCH   7  23
HETATM   23  C   UNK N   1      20.930  15.708   1.605  0.00  0.00     0.281 C 
HETATM   24  O   UNK N   1      20.613  16.224   0.543  0.00  0.00    -0.263 OA
BRANCH  23  25
HETATM   25  O   UNK N   1      21.682  14.586   1.574  0.00  0.00    -0.320 OA
BRANCH  25  26
HETATM   26  C   UNK N   1      23.064  14.540   1.521  0.00  0.00     0.183 C 
BRANCH  26  27
HETATM   27  C   UNK N   1      23.608  13.473   2.460  0.00  0.00     0.060 C 
BRANCH  27  28
HETATM   28  C   UNK N   1      24.586  14.226   3.256  0.00  0.00    -0.076 C 
HETATM   29  C   UNK N   1      25.709  13.448   3.875  0.00  0.00     0.043 C 
HETATM   30  C   UNK N   1      24.529  15.573   3.218  0.00  0.00     0.079 C 
BRANCH  30  31
HETATM   31  C   UNK N   1      25.647  16.400   3.681  0.00  0.00     0.267 C 
HETATM   32  N   UNK N   1      25.679  16.900   4.941  0.00  0.00    -0.225 N 
HETATM   33  O   UNK N   1      26.579  16.618   2.921  0.00  0.00    -0.266 OA
BRANCH  32  34
HETATM   34  C   UNK N   1      26.919  17.460   5.452  0.00  0.00     0.159 C 
BRANCH  34  35
HETATM   35  C   UNK N   1      27.516  16.680   6.683  0.00  0.00     0.025 C 
BRANCH  35  36
HETATM   36  C   UNK N   1      28.039  17.471   7.931  0.00  0.00     0.035 C 
BRANCH  36  37
HETATM   37  C   UNK N   1      29.540  17.629   7.837  0.00  0.00     0.158 C 
HETATM   38  C   UNK N   1      30.459  17.974   8.991  0.00  0.00     0.135 C 
HETATM   39  N   UNK N   1      31.733  18.030   8.721  0.00  0.00    -0.361 N 
HETATM   40  C   UNK N   1      32.162  17.780   7.338  0.00  0.00     0.158 C 
ATOM     41  HN  UNK N   1      32.414  18.242   9.451  1.00  0.00     0.162 HD
HETATM   42  C   UNK N   1      31.365  16.575   6.820  0.00  0.00     0.135 C 
HETATM   43  N   UNK N   1      30.113  16.530   7.100  0.00  0.00    -0.361 N 
ATOM     44  HN  UNK N   1      29.539  15.738   6.809  1.00  0.00     0.162 HD
BRANCH  38  45
HETATM   45  O   UNK N   1      30.003  18.218  10.235  0.00  0.00    -0.348 OA
HETATM   46  H   UNK N   1      29.899  18.066  11.154  0.00  0.00     0.219 HD
ENDBRANCH  38  45
BRANCH  40  47
HETATM   47  C   UNK N   1      33.674  17.761   7.174  0.00  0.00     0.035 C 
BRANCH  47  48
HETATM   48  C   UNK N   1      34.410  17.656   8.488  0.00  0.00     0.025 C 
BRANCH  48  49
HETATM   49  C   UNK N   1      34.748  16.195   8.681  0.00  0.00     0.159 C 
BRANCH  49  50
HETATM   50  N   UNK N   1      34.789  15.863  10.081  0.00  0.00    -0.225 N 
HETATM   51  C   UNK N   1      34.664  14.571  10.476  0.00  0.00     0.267 C 
HETATM   52  O   UNK N   1      34.547  13.693   9.630  0.00  0.00    -0.266 OA
BRANCH  51  53
HETATM   53  C   UNK N   1      34.656  14.229  11.928  0.00  0.00     0.079 C 
HETATM   54  C   UNK N   1      35.704  13.691  12.595  0.00  0.00    -0.076 C 
HETATM   55  C   UNK N   1      37.009  13.408  11.918  0.00  0.00     0.043 C 
BRANCH  54  56
HETATM   56  C   UNK N   1      35.636  13.383  14.071  0.00  0.00     0.059 C 
BRANCH  56  57
HETATM   57  C   UNK N   1      36.865  13.777  14.880  0.00  0.00     0.168 C 
BRANCH  57  58
HETATM   58  O   UNK N   1      37.147  15.127  14.678  0.00  0.00    -0.401 OA
HETATM   59  H   UNK N   1      37.033  15.826  14.016  0.00  0.00     0.209 HD
ENDBRANCH  57  58
ENDBRANCH  56  57
ENDBRANCH  54  56
ENDBRANCH  51  53
BRANCH  50  60
HETATM   60  O   UNK N   1      34.918  16.842  10.993  0.00  0.00    -0.285 OA
ATOM     61  HO  UNK N   1      34.896  16.627  11.918  1.00  0.00     0.245 HD
ENDBRANCH  50  60
ENDBRANCH  49  50
ENDBRANCH  48  49
ENDBRANCH  47  48
ENDBRANCH  40  47
BRANCH  42  62
HETATM   62  O   UNK N   1      31.914  15.576   6.115  0.00  0.00    -0.348 OA
HETATM   63  H   UNK N   1      32.506  15.647   5.393  0.00  0.00     0.219 HD
ENDBRANCH  42  62
ENDBRANCH  36  37
ENDBRANCH  35  36
ENDBRANCH  34  35
ENDBRANCH  32  34
BRANCH  32  64
HETATM   64  O   UNK N   1      24.654  16.686   5.786  0.00  0.00    -0.285 OA
ATOM     65  HO  UNK N   1      24.292  17.417   6.274  1.00  0.00     0.245 HD
ENDBRANCH  32  64
ENDBRANCH  30  31
ENDBRANCH  27  28
ENDBRANCH  26  27
ENDBRANCH  25  26
ENDBRANCH  23  25
ENDBRANCH   7  23
ENDBRANCH   3   7
TORSDOF 33
ENDMDL
MODEL 2
REMARK VINA RESULT:      -6.9      2.371      4.877
REMARK WARNING: 32 MAX_TORS EXCEEDED!!!
REMARK  33 active torsions:
REMARK  status: ('A' for Active; 'I' for Inactive)
REMARK    1  A    between atoms: C_8  and  C_5 
REMARK    2  A    between atoms: C_14  and  C_5 
REMARK    3  A    between atoms: C_9  and  C_6 
REMARK    4  A    between atoms: C_15  and  C_6 
REMARK    5  A    between atoms: C_10  and  C_7 
REMARK    6  A    between atoms: C_16  and  C_7 
REMARK    7  A    between atoms: C_27  and  C_8 
REMARK    8  A    between atoms: C_28  and  C_9 
REMARK    9  A    between atoms: C_29  and  C_10 
REMARK   10  A    between atoms: C_17  and  C_11 
REMARK   11  A    between atoms: C_23  and  C_11 
REMARK   12  A    between atoms: C_18  and  C_12 
REMARK   13  A    between atoms: C_24  and  C_12 
REMARK   14  A    between atoms: C_19  and  C_13 
REMARK   15  A    between atoms: C_25  and  C_13 
REMARK   16  A    between atoms: N_42  and  C_14 
REMARK   17  A    between atoms: N_43  and  C_15 
REMARK   18  A    between atoms: N_44  and  C_16 
REMARK   19  A    between atoms: O_45  and  C_17 
REMARK   20  A    between atoms: O_46  and  C_18 
REMARK   21  A    between atoms: O_60  and  C_19 
REMARK   22  A    between atoms: C_30  and  C_20 
REMARK   23  A    between atoms: C_31  and  C_21 
REMARK   24  A    between atoms: C_32  and  C_22 
REMARK   25  A    between atoms: C_35  and  C_29 
REMARK   26  A    between atoms: C_29  and  N_36 
REMARK       I    between atoms: N_42  and  C_30 
REMARK       I    between atoms: N_44  and  C_31 
REMARK       I    between atoms: N_43  and  C_32 
REMARK   27  A    between atoms: O_51  and  C_33 
REMARK   28  A    between atoms: O_52  and  C_34 
REMARK   29  A    between atoms: O_60  and  C_35 
REMARK   30  A    between atoms: O_54  and  N_42 
REMARK   31  A    between atoms: O_56  and  N_43 
REMARK   32  A    between atoms: O_58  and  N_44 
REMARK   33  A    between atoms: Fe_61  and  Fe_61 
ROOT
HETATM    1  C   UNK N   1      22.136  11.829   7.105  0.00  0.00     0.097 C 
HETATM    2  C   UNK N   1      21.832  12.944   6.168  0.00  0.00     0.107 C 
HETATM    3  N   UNK N   1      20.612  13.373   6.068  0.00  0.00    -0.361 N 
ATOM      4  HN  UNK N   1      19.912  12.910   6.648  1.00  0.00     0.162 HD
HETATM    5  O   UNK N   1      22.840  13.521   5.481  0.00  0.00    -0.350 OA
HETATM    6  H   UNK N   1      23.588  13.892   5.057  0.00  0.00     0.219 HD
ENDROOT
BRANCH   3   7
HETATM    7  C   UNK N   1      20.141  14.461   5.204  0.00  0.00     0.183 C 
BRANCH   7   8
HETATM    8  C   UNK N   1      19.443  15.597   5.980  0.00  0.00     0.037 C 
BRANCH   8   9
HETATM    9  C   UNK N   1      20.096  15.993   7.311  0.00  0.00     0.025 C 
BRANCH   9  10
HETATM   10  C   UNK N   1      21.532  16.484   7.140  0.00  0.00     0.159 C 
BRANCH  10  11
HETATM   11  N   UNK N   1      21.619  17.645   6.317  0.00  0.00    -0.225 N 
HETATM   12  C   UNK N   1      22.281  17.615   5.128  0.00  0.00     0.267 C 
HETATM   13  O   UNK N   1      22.815  16.582   4.745  0.00  0.00    -0.266 OA
BRANCH  12  14
HETATM   14  C   UNK N   1      22.300  18.826   4.287  0.00  0.00     0.079 C 
HETATM   15  C   UNK N   1      21.429  19.091   3.297  0.00  0.00    -0.076 C 
HETATM   16  C   UNK N   1      20.329  18.153   2.910  0.00  0.00     0.043 C 
BRANCH  15  17
HETATM   17  C   UNK N   1      21.519  20.410   2.602  0.00  0.00     0.059 C 
BRANCH  17  18
HETATM   18  C   UNK N   1      20.952  20.269   1.195  0.00  0.00     0.168 C 
BRANCH  18  19
HETATM   19  O   UNK N   1      20.578  21.517   0.705  0.00  0.00    -0.401 OA
HETATM   20  H   UNK N   1      21.207  22.107   0.261  0.00  0.00     0.209 HD
ENDBRANCH  18  19
ENDBRANCH  17  18
ENDBRANCH  15  17
ENDBRANCH  12  14
BRANCH  11  21
HETATM   21  O   UNK N   1      21.024  18.768   6.742  0.00  0.00    -0.285 OA
ATOM     22  HO  UNK N   1      20.116  18.912   6.502  1.00  0.00     0.245 HD
ENDBRANCH  11  21
ENDBRANCH  10  11
ENDBRANCH   9  10
ENDBRANCH   8   9
ENDBRANCH   7   8
BRANCH   7  23
HETATM   23  C   UNK N   1      19.264  13.998   4.066  0.00  0.00     0.281 C 
HETATM   24  O   UNK N   1      18.141  13.592   4.326  0.00  0.00    -0.263 OA
BRANCH  23  25
HETATM   25  O   UNK N   1      19.648  14.041   2.771  0.00  0.00    -0.320 OA
BRANCH  25  26
HETATM   26  C   UNK N   1      20.788  13.457   2.246  0.00  0.00     0.183 C 
BRANCH  26  27
HETATM   27  C   UNK N   1      21.386  14.324   1.150  0.00  0.00     0.060 C 
BRANCH  27  28
HETATM   28  C   UNK N   1      22.813  13.984   1.225  0.00  0.00    -0.076 C 
HETATM   29  C   UNK N   1      23.369  13.118   0.133  0.00  0.00     0.043 C 
HETATM   30  C   UNK N   1      23.567  14.622   2.144  0.00  0.00     0.079 C 
BRANCH  30  31
HETATM   31  C   UNK N   1      25.032  14.618   2.069  0.00  0.00     0.267 C 
HETATM   32  N   UNK N   1      25.778  13.892   2.938  0.00  0.00    -0.225 N 
HETATM   33  O   UNK N   1      25.583  15.261   1.188  0.00  0.00    -0.266 OA
BRANCH  32  34
HETATM   34  C   UNK N   1      27.189  13.681   2.657  0.00  0.00     0.159 C 
BRANCH  34  35
HETATM   35  C   UNK N   1      28.149  14.672   3.415  0.00  0.00     0.025 C 
BRANCH  35  36
HETATM   36  C   UNK N   1      28.656  14.322   4.856  0.00  0.00     0.035 C 
BRANCH  36  37
HETATM   37  C   UNK N   1      29.787  15.251   5.234  0.00  0.00     0.158 C 
HETATM   38  C   UNK N   1      29.628  16.600   5.903  0.00  0.00     0.135 C 
HETATM   39  N   UNK N   1      30.727  17.240   6.186  0.00  0.00    -0.361 N 
HETATM   40  C   UNK N   1      32.007  16.619   5.820  0.00  0.00     0.158 C 
ATOM     41  HN  UNK N   1      30.699  18.149   6.651  1.00  0.00     0.162 HD
HETATM   42  C   UNK N   1      31.921  15.133   6.190  0.00  0.00     0.135 C 
HETATM   43  N   UNK N   1      30.830  14.517   5.911  0.00  0.00    -0.361 N 
ATOM     44  HN  UNK N   1      30.702  13.537   6.162  1.00  0.00     0.162 HD
BRANCH  38  45
HETATM   45  O   UNK N   1      28.423  17.129   6.193  0.00  0.00    -0.348 OA
HETATM   46  H   UNK N   1      27.562  17.145   6.560  0.00  0.00     0.219 HD
ENDBRANCH  38  45
BRANCH  40  47
HETATM   47  C   UNK N   1      33.216  17.407   6.303  0.00  0.00     0.035 C 
BRANCH  47  48
HETATM   48  C   UNK N   1      33.067  17.908   7.719  0.00  0.00     0.025 C 
BRANCH  48  49
HETATM   49  C   UNK N   1      34.381  17.637   8.417  0.00  0.00     0.159 C 
BRANCH  49  50
HETATM   50  N   UNK N   1      34.205  16.689   9.485  0.00  0.00    -0.225 N 
HETATM   51  C   UNK N   1      35.118  16.616  10.486  0.00  0.00     0.267 C 
HETATM   52  O   UNK N   1      36.072  17.385  10.486  0.00  0.00    -0.266 OA
BRANCH  51  53
HETATM   53  C   UNK N   1      34.964  15.601  11.568  0.00  0.00     0.079 C 
HETATM   54  C   UNK N   1      35.574  14.391  11.578  0.00  0.00    -0.076 C 
HETATM   55  C   UNK N   1      36.503  13.968  10.483  0.00  0.00     0.043 C 
BRANCH  54  56
HETATM   56  C   UNK N   1      35.388  13.415  12.713  0.00  0.00     0.059 C 
BRANCH  56  57
HETATM   57  C   UNK N   1      36.472  13.441  13.784  0.00  0.00     0.168 C 
BRANCH  57  58
HETATM   58  O   UNK N   1      36.872  14.756  14.013  0.00  0.00    -0.401 OA
HETATM   59  H   UNK N   1      37.668  15.310  14.007  0.00  0.00     0.209 HD
ENDBRANCH  57  58
ENDBRANCH  56  57
ENDBRANCH  54  56
ENDBRANCH  51  53
BRANCH  50  60
HETATM   60  O   UNK N   1      33.151  15.855   9.466  0.00  0.00    -0.285 OA
ATOM     61  HO  UNK N   1      32.336  16.119   9.876  1.00  0.00     0.245 HD
ENDBRANCH  50  60
ENDBRANCH  49  50
ENDBRANCH  48  49
ENDBRANCH  47  48
ENDBRANCH  40  47
BRANCH  42  62
HETATM   62  O   UNK N   1      32.911  14.465   6.797  0.00  0.00    -0.348 OA
HETATM   63  H   UNK N   1      33.542  13.897   6.401  0.00  0.00     0.219 HD
ENDBRANCH  42  62
ENDBRANCH  36  37
ENDBRANCH  35  36
ENDBRANCH  34  35
ENDBRANCH  32  34
BRANCH  32  64
HETATM   64  O   UNK N   1      25.190  13.192   3.924  0.00  0.00    -0.285 OA
ATOM     65  HO  UNK N   1      25.663  13.043   4.735  1.00  0.00     0.245 HD
ENDBRANCH  32  64
ENDBRANCH  30  31
ENDBRANCH  27  28
ENDBRANCH  26  27
ENDBRANCH  25  26
ENDBRANCH  23  25
ENDBRANCH   7  23
ENDBRANCH   3   7
TORSDOF 33
ENDMDL
MODEL 3
REMARK VINA RESULT:      -6.9      4.284      7.456
REMARK WARNING: 32 MAX_TORS EXCEEDED!!!
REMARK  33 active torsions:
REMARK  status: ('A' for Active; 'I' for Inactive)
REMARK    1  A    between atoms: C_8  and  C_5 
REMARK    2  A    between atoms: C_14  and  C_5 
REMARK    3  A    between atoms: C_9  and  C_6 
REMARK    4  A    between atoms: C_15  and  C_6 
REMARK    5  A    between atoms: C_10  and  C_7 
REMARK    6  A    between atoms: C_16  and  C_7 
REMARK    7  A    between atoms: C_27  and  C_8 
REMARK    8  A    between atoms: C_28  and  C_9 
REMARK    9  A    between atoms: C_29  and  C_10 
REMARK   10  A    between atoms: C_17  and  C_11 
REMARK   11  A    between atoms: C_23  and  C_11 
REMARK   12  A    between atoms: C_18  and  C_12 
REMARK   13  A    between atoms: C_24  and  C_12 
REMARK   14  A    between atoms: C_19  and  C_13 
REMARK   15  A    between atoms: C_25  and  C_13 
REMARK   16  A    between atoms: N_42  and  C_14 
REMARK   17  A    between atoms: N_43  and  C_15 
REMARK   18  A    between atoms: N_44  and  C_16 
REMARK   19  A    between atoms: O_45  and  C_17 
REMARK   20  A    between atoms: O_46  and  C_18 
REMARK   21  A    between atoms: O_60  and  C_19 
REMARK   22  A    between atoms: C_30  and  C_20 
REMARK   23  A    between atoms: C_31  and  C_21 
REMARK   24  A    between atoms: C_32  and  C_22 
REMARK   25  A    between atoms: C_35  and  C_29 
REMARK   26  A    between atoms: C_29  and  N_36 
REMARK       I    between atoms: N_42  and  C_30 
REMARK       I    between atoms: N_44  and  C_31 
REMARK       I    between atoms: N_43  and  C_32 
REMARK   27  A    between atoms: O_51  and  C_33 
REMARK   28  A    between atoms: O_52  and  C_34 
REMARK   29  A    between atoms: O_60  and  C_35 
REMARK   30  A    between atoms: O_54  and  N_42 
REMARK   31  A    between atoms: O_56  and  N_43 
REMARK   32  A    between atoms: O_58  and  N_44 
REMARK   33  A    between atoms: Fe_61  and  Fe_61 
ROOT
HETATM    1  C   UNK N   1      27.437  21.511   6.062  0.00  0.00     0.097 C 
HETATM    2  C   UNK N   1      26.787  20.758   4.956  0.00  0.00     0.107 C 
HETATM    3  N   UNK N   1      25.561  20.359   5.095  0.00  0.00    -0.361 N 
ATOM      4  HN  UNK N   1      25.101  20.585   5.977  1.00  0.00     0.162 HD
HETATM    5  O   UNK N   1      27.469  20.553   3.809  0.00  0.00    -0.350 OA
HETATM    6  H   UNK N   1      27.988  20.470   3.034  0.00  0.00     0.219 HD
ENDROOT
BRANCH   3   7
HETATM    7  C   UNK N   1      24.771  19.617   4.107  0.00  0.00     0.183 C 
BRANCH   7   8
HETATM    8  C   UNK N   1      25.553  18.465   3.443  0.00  0.00     0.037 C 
BRANCH   8   9
HETATM    9  C   UNK N   1      25.850  17.257   4.342  0.00  0.00     0.025 C 
BRANCH   9  10
HETATM   10  C   UNK N   1      24.616  16.763   5.092  0.00  0.00     0.159 C 
BRANCH  10  11
HETATM   11  N   UNK N   1      24.931  15.780   6.076  0.00  0.00    -0.225 N 
HETATM   12  C   UNK N   1      24.263  14.594   6.123  0.00  0.00     0.267 C 
HETATM   13  O   UNK N   1      23.376  14.353   5.314  0.00  0.00    -0.266 OA
BRANCH  12  14
HETATM   14  C   UNK N   1      24.659  13.588   7.125  0.00  0.00     0.079 C 
HETATM   15  C   UNK N   1      23.920  13.228   8.190  0.00  0.00    -0.076 C 
HETATM   16  C   UNK N   1      22.590  13.842   8.501  0.00  0.00     0.043 C 
BRANCH  15  17
HETATM   17  C   UNK N   1      24.413  12.119   9.059  0.00  0.00     0.059 C 
BRANCH  17  18
HETATM   18  C   UNK N   1      24.268  12.529  10.519  0.00  0.00     0.168 C 
BRANCH  18  19
HETATM   19  O   UNK N   1      25.465  13.066  10.984  0.00  0.00    -0.401 OA
HETATM   20  H   UNK N   1      26.151  13.395  10.383  0.00  0.00     0.209 HD
ENDBRANCH  18  19
ENDBRANCH  17  18
ENDBRANCH  15  17
ENDBRANCH  12  14
BRANCH  11  21
HETATM   21  O   UNK N   1      25.909  16.051   6.950  0.00  0.00    -0.285 OA
ATOM     22  HO  UNK N   1      26.354  15.321   7.366  1.00  0.00     0.245 HD
ENDBRANCH  11  21
ENDBRANCH  10  11
ENDBRANCH   9  10
ENDBRANCH   8   9
ENDBRANCH   7   8
BRANCH   7  23
HETATM   23  C   UNK N   1      24.144  20.492   3.048  0.00  0.00     0.281 C 
HETATM   24  O   UNK N   1      24.853  20.914   2.147  0.00  0.00    -0.263 OA
BRANCH  23  25
HETATM   25  O   UNK N   1      22.829  20.806   3.032  0.00  0.00    -0.320 OA
BRANCH  25  26
HETATM   26  C   UNK N   1      21.790  19.921   2.802  0.00  0.00     0.183 C 
BRANCH  26  27
HETATM   27  C   UNK N   1      21.425  19.169   4.073  0.00  0.00     0.060 C 
BRANCH  27  28
HETATM   28  C   UNK N   1      20.654  18.032   3.554  0.00  0.00    -0.076 C 
HETATM   29  C   UNK N   1      19.967  18.216   2.233  0.00  0.00     0.043 C 
HETATM   30  C   UNK N   1      20.771  16.847   4.189  0.00  0.00     0.079 C 
BRANCH  30  31
HETATM   31  C   UNK N   1      20.333  15.596   3.562  0.00  0.00     0.267 C 
HETATM   32  N   UNK N   1      21.169  14.870   2.780  0.00  0.00    -0.225 N 
HETATM   33  O   UNK N   1      19.199  15.192   3.773  0.00  0.00    -0.266 OA
BRANCH  32  34
HETATM   34  C   UNK N   1      20.804  13.510   2.420  0.00  0.00     0.159 C 
BRANCH  34  35
HETATM   35  C   UNK N   1      21.862  12.426   2.849  0.00  0.00     0.025 C 
BRANCH  35  36
HETATM   36  C   UNK N   1      22.541  11.524   1.763  0.00  0.00     0.035 C 
BRANCH  36  37
HETATM   37  C   UNK N   1      24.038  11.736   1.791  0.00  0.00     0.158 C 
HETATM   38  C   UNK N   1      25.046  10.991   0.940  0.00  0.00     0.135 C 
HETATM   39  N   UNK N   1      26.293  11.341   1.079  0.00  0.00    -0.361 N 
HETATM   40  C   UNK N   1      26.615  12.397   2.048  0.00  0.00     0.158 C 
ATOM     41  HN  UNK N   1      27.027  10.894   0.527  1.00  0.00     0.162 HD
HETATM   42  C   UNK N   1      25.567  13.506   1.887  0.00  0.00     0.135 C 
HETATM   43  N   UNK N   1      24.344  13.145   1.745  0.00  0.00    -0.361 N 
ATOM     44  HN  UNK N   1      23.607  13.836   1.602  1.00  0.00     0.162 HD
BRANCH  38  45
HETATM   45  O   UNK N   1      24.691  10.013   0.084  0.00  0.00    -0.348 OA
HETATM   46  H   UNK N   1      24.164   9.597  -0.569  0.00  0.00     0.219 HD
ENDBRANCH  38  45
BRANCH  40  47
HETATM   47  C   UNK N   1      28.084  12.794   2.037  0.00  0.00     0.035 C 
BRANCH  47  48
HETATM   48  C   UNK N   1      28.657  12.977   3.421  0.00  0.00     0.025 C 
BRANCH  48  49
HETATM   49  C   UNK N   1      29.246  14.369   3.467  0.00  0.00     0.159 C 
BRANCH  49  50
HETATM   50  N   UNK N   1      29.205  14.896   4.806  0.00  0.00    -0.225 N 
HETATM   51  C   UNK N   1      30.271  15.573   5.302  0.00  0.00     0.267 C 
HETATM   52  O   UNK N   1      31.250  15.757   4.590  0.00  0.00    -0.266 OA
BRANCH  51  53
HETATM   53  C   UNK N   1      30.251  16.076   6.706  0.00  0.00     0.079 C 
HETATM   54  C   UNK N   1      29.657  17.227   7.101  0.00  0.00    -0.076 C 
HETATM   55  C   UNK N   1      28.924  18.107   6.137  0.00  0.00     0.043 C 
BRANCH  54  56
HETATM   56  C   UNK N   1      29.660  17.672   8.544  0.00  0.00     0.059 C 
BRANCH  56  57
HETATM   57  C   UNK N   1      28.333  18.208   9.066  0.00  0.00     0.168 C 
BRANCH  57  58
HETATM   58  O   UNK N   1      27.431  17.157   9.222  0.00  0.00    -0.401 OA
HETATM   59  H   UNK N   1      27.082  16.563   9.904  0.00  0.00     0.209 HD
ENDBRANCH  57  58
ENDBRANCH  56  57
ENDBRANCH  54  56
ENDBRANCH  51  53
BRANCH  50  60
HETATM   60  O   UNK N   1      28.121  14.683   5.571  0.00  0.00    -0.285 OA
ATOM     61  HO  UNK N   1      27.780  13.801   5.669  1.00  0.00     0.245 HD
ENDBRANCH  50  60
ENDBRANCH  49  50
ENDBRANCH  48  49
ENDBRANCH  47  48
ENDBRANCH  40  47
BRANCH  42  62
HETATM   62  O   UNK N   1      25.871  14.811   1.872  0.00  0.00    -0.348 OA
HETATM   63  H   UNK N   1      25.930  15.373   1.125  0.00  0.00     0.219 HD
ENDBRANCH  42  62
ENDBRANCH  36  37
ENDBRANCH  35  36
ENDBRANCH  34  35
ENDBRANCH  32  34
BRANCH  32  64
HETATM   64  O   UNK N   1      22.415  15.308   2.522  0.00  0.00    -0.285 OA
ATOM     65  HO  UNK N   1      23.159  14.814   2.848  1.00  0.00     0.245 HD
ENDBRANCH  32  64
ENDBRANCH  30  31
ENDBRANCH  27  28
ENDBRANCH  26  27
ENDBRANCH  25  26
ENDBRANCH  23  25
ENDBRANCH   7  23
ENDBRANCH   3   7
TORSDOF 33
ENDMDL
MODEL 4
REMARK VINA RESULT:      -6.8      3.377     12.570
REMARK WARNING: 32 MAX_TORS EXCEEDED!!!
REMARK  33 active torsions:
REMARK  status: ('A' for Active; 'I' for Inactive)
REMARK    1  A    between atoms: C_8  and  C_5 
REMARK    2  A    between atoms: C_14  and  C_5 
REMARK    3  A    between atoms: C_9  and  C_6 
REMARK    4  A    between atoms: C_15  and  C_6 
REMARK    5  A    between atoms: C_10  and  C_7 
REMARK    6  A    between atoms: C_16  and  C_7 
REMARK    7  A    between atoms: C_27  and  C_8 
REMARK    8  A    between atoms: C_28  and  C_9 
REMARK    9  A    between atoms: C_29  and  C_10 
REMARK   10  A    between atoms: C_17  and  C_11 
REMARK   11  A    between atoms: C_23  and  C_11 
REMARK   12  A    between atoms: C_18  and  C_12 
REMARK   13  A    between atoms: C_24  and  C_12 
REMARK   14  A    between atoms: C_19  and  C_13 
REMARK   15  A    between atoms: C_25  and  C_13 
REMARK   16  A    between atoms: N_42  and  C_14 
REMARK   17  A    between atoms: N_43  and  C_15 
REMARK   18  A    between atoms: N_44  and  C_16 
REMARK   19  A    between atoms: O_45  and  C_17 
REMARK   20  A    between atoms: O_46  and  C_18 
REMARK   21  A    between atoms: O_60  and  C_19 
REMARK   22  A    between atoms: C_30  and  C_20 
REMARK   23  A    between atoms: C_31  and  C_21 
REMARK   24  A    between atoms: C_32  and  C_22 
REMARK   25  A    between atoms: C_35  and  C_29 
REMARK   26  A    between atoms: C_29  and  N_36 
REMARK       I    between atoms: N_42  and  C_30 
REMARK       I    between atoms: N_44  and  C_31 
REMARK       I    between atoms: N_43  and  C_32 
REMARK   27  A    between atoms: O_51  and  C_33 
REMARK   28  A    between atoms: O_52  and  C_34 
REMARK   29  A    between atoms: O_60  and  C_35 
REMARK   30  A    between atoms: O_54  and  N_42 
REMARK   31  A    between atoms: O_56  and  N_43 
REMARK   32  A    between atoms: O_58  and  N_44 
REMARK   33  A    between atoms: Fe_61  and  Fe_61 
ROOT
HETATM    1  C   UNK N   1      34.764  15.214  11.277  0.00  0.00     0.097 C 
HETATM    2  C   UNK N   1      34.711  16.365  10.335  0.00  0.00     0.107 C 
HETATM    3  N   UNK N   1      33.734  16.443   9.485  0.00  0.00    -0.361 N 
ATOM      4  HN  UNK N   1      33.045  15.692   9.505  1.00  0.00     0.162 HD
HETATM    5  O   UNK N   1      35.648  17.332  10.422  0.00  0.00    -0.350 OA
HETATM    6  H   UNK N   1      36.313  17.978  10.555  0.00  0.00     0.219 HD
ENDROOT
BRANCH   3   7
HETATM    7  C   UNK N   1      33.526  17.507   8.497  0.00  0.00     0.183 C 
BRANCH   7   8
HETATM    8  C   UNK N   1      32.047  17.921   8.350  0.00  0.00     0.037 C 
BRANCH   8   9
HETATM    9  C   UNK N   1      31.180  16.996   7.483  0.00  0.00     0.025 C 
BRANCH   9  10
HETATM   10  C   UNK N   1      29.695  17.096   7.819  0.00  0.00     0.159 C 
BRANCH  10  11
HETATM   11  N   UNK N   1      29.045  18.156   7.121  0.00  0.00    -0.225 N 
HETATM   12  C   UNK N   1      28.786  18.065   5.788  0.00  0.00     0.267 C 
HETATM   13  O   UNK N   1      29.109  17.062   5.164  0.00  0.00    -0.266 OA
BRANCH  12  14
HETATM   14  C   UNK N   1      28.066  19.164   5.120  0.00  0.00     0.079 C 
HETATM   15  C   UNK N   1      26.855  19.056   4.545  0.00  0.00    -0.076 C 
HETATM   16  C   UNK N   1      26.092  17.769   4.495  0.00  0.00     0.043 C 
BRANCH  15  17
HETATM   17  C   UNK N   1      26.212  20.287   3.997  0.00  0.00     0.059 C 
BRANCH  17  18
HETATM   18  C   UNK N   1      25.150  19.884   2.983  0.00  0.00     0.168 C 
BRANCH  18  19
HETATM   19  O   UNK N   1      24.761  20.991   2.235  0.00  0.00    -0.401 OA
HETATM   20  H   UNK N   1      24.382  21.784   2.645  0.00  0.00     0.209 HD
ENDBRANCH  18  19
ENDBRANCH  17  18
ENDBRANCH  15  17
ENDBRANCH  12  14
BRANCH  11  21
HETATM   21  O   UNK N   1      28.688  19.245   7.816  0.00  0.00    -0.285 OA
ATOM     22  HO  UNK N   1      28.175  19.125   8.606  1.00  0.00     0.245 HD
ENDBRANCH  11  21
ENDBRANCH  10  11
ENDBRANCH   9  10
ENDBRANCH   8   9
ENDBRANCH   7   8
BRANCH   7  23
HETATM   23  C   UNK N   1      34.114  17.202   7.140  0.00  0.00     0.281 C 
HETATM   24  O   UNK N   1      34.190  18.107   6.322  0.00  0.00    -0.263 OA
BRANCH  23  25
HETATM   25  O   UNK N   1      34.589  15.984   6.797  0.00  0.00    -0.320 OA
BRANCH  25  26
HETATM   26  C   UNK N   1      33.902  15.022   6.077  0.00  0.00     0.183 C 
BRANCH  26  27
HETATM   27  C   UNK N   1      33.988  15.297   4.583  0.00  0.00     0.060 C 
BRANCH  27  28
HETATM   28  C   UNK N   1      32.826  14.566   4.062  0.00  0.00    -0.076 C 
HETATM   29  C   UNK N   1      33.000  13.842   2.759  0.00  0.00     0.043 C 
HETATM   30  C   UNK N   1      31.754  14.426   4.869  0.00  0.00     0.079 C 
BRANCH  30  31
HETATM   31  C   UNK N   1      30.707  13.439   4.587  0.00  0.00     0.267 C 
HETATM   32  N   UNK N   1      29.615  13.762   3.852  0.00  0.00    -0.225 N 
HETATM   33  O   UNK N   1      30.840  12.297   5.003  0.00  0.00    -0.266 OA
BRANCH  32  34
HETATM   34  C   UNK N   1      28.756  12.701   3.353  0.00  0.00     0.159 C 
BRANCH  34  35
HETATM   35  C   UNK N   1      27.548  12.353   4.301  0.00  0.00     0.025 C 
BRANCH  35  36
HETATM   36  C   UNK N   1      26.481  13.449   4.643  0.00  0.00     0.035 C 
BRANCH  36  37
HETATM   37  C   UNK N   1      25.493  13.567   3.505  0.00  0.00     0.158 C 
HETATM   38  C   UNK N   1      25.625  14.503   2.321  0.00  0.00     0.135 C 
HETATM   39  N   UNK N   1      24.687  14.434   1.419  0.00  0.00    -0.361 N 
HETATM   40  C   UNK N   1      23.587  13.484   1.633  0.00  0.00     0.158 C 
ATOM     41  HN  UNK N   1      24.717  15.023   0.586  1.00  0.00     0.162 HD
HETATM   42  C   UNK N   1      24.202  12.172   2.138  0.00  0.00     0.135 C 
HETATM   43  N   UNK N   1      25.129  12.257   3.022  0.00  0.00    -0.361 N 
ATOM     44  HN  UNK N   1      25.598  11.421   3.372  1.00  0.00     0.162 HD
BRANCH  38  45
HETATM   45  O   UNK N   1      26.647  15.371   2.193  0.00  0.00    -0.348 OA
HETATM   46  H   UNK N   1      27.241  16.041   2.470  0.00  0.00     0.219 HD
ENDBRANCH  38  45
BRANCH  40  47
HETATM   47  C   UNK N   1      22.619  13.414   0.460  0.00  0.00     0.035 C 
BRANCH  47  48
HETATM   48  C   UNK N   1      21.190  13.180   0.888  0.00  0.00     0.025 C 
BRANCH  48  49
HETATM   49  C   UNK N   1      21.029  13.832   2.242  0.00  0.00     0.159 C 
BRANCH  49  50
HETATM   50  N   UNK N   1      20.488  15.158   2.108  0.00  0.00    -0.225 N 
HETATM   51  C   UNK N   1      21.182  16.226   2.577  0.00  0.00     0.267 C 
HETATM   52  O   UNK N   1      22.282  16.051   3.085  0.00  0.00    -0.266 OA
BRANCH  51  53
HETATM   53  C   UNK N   1      20.601  17.596   2.485  0.00  0.00     0.079 C 
HETATM   54  C   UNK N   1      20.944  18.632   3.287  0.00  0.00    -0.076 C 
HETATM   55  C   UNK N   1      21.988  18.491   4.351  0.00  0.00     0.043 C 
BRANCH  54  56
HETATM   56  C   UNK N   1      20.328  20.001   3.129  0.00  0.00     0.059 C 
BRANCH  56  57
HETATM   57  C   UNK N   1      21.020  20.919   2.129  0.00  0.00     0.168 C 
BRANCH  57  58
HETATM   58  O   UNK N   1      21.947  21.720   2.792  0.00  0.00    -0.401 OA
HETATM   59  H   UNK N   1      22.133  22.082   3.673  0.00  0.00     0.209 HD
ENDBRANCH  57  58
ENDBRANCH  56  57
ENDBRANCH  54  56
ENDBRANCH  51  53
BRANCH  50  60
HETATM   60  O   UNK N   1      19.278  15.329   1.547  0.00  0.00    -0.285 OA
ATOM     61  HO  UNK N   1      18.729  16.053   1.825  1.00  0.00     0.245 HD
ENDBRANCH  50  60
ENDBRANCH  49  50
ENDBRANCH  48  49
ENDBRANCH  47  48
ENDBRANCH  40  47
BRANCH  42  62
HETATM   62  O   UNK N   1      23.832  10.964   1.693  0.00  0.00    -0.348 OA
HETATM   63  H   UNK N   1      23.467  10.260   2.192  0.00  0.00     0.219 HD
ENDBRANCH  42  62
ENDBRANCH  36  37
ENDBRANCH  35  36
ENDBRANCH  34  35
ENDBRANCH  32  34
BRANCH  32  64
HETATM   64  O   UNK N   1      29.442  15.017   3.401  0.00  0.00    -0.285 OA
ATOM     65  HO  UNK N   1      28.600  15.271   3.041  1.00  0.00     0.245 HD
ENDBRANCH  32  64
ENDBRANCH  30  31
ENDBRANCH  27  28
ENDBRANCH  26  27
ENDBRANCH  25  26
ENDBRANCH  23  25
ENDBRANCH   7  23
ENDBRANCH   3   7
TORSDOF 33
ENDMDL
MODEL 5
REMARK VINA RESULT:      -6.7      3.078     11.388
REMARK WARNING: 32 MAX_TORS EXCEEDED!!!
REMARK  33 active torsions:
REMARK  status: ('A' for Active; 'I' for Inactive)
REMARK    1  A    between atoms: C_8  and  C_5 
REMARK    2  A    between atoms: C_14  and  C_5 
REMARK    3  A    between atoms: C_9  and  C_6 
REMARK    4  A    between atoms: C_15  and  C_6 
REMARK    5  A    between atoms: C_10  and  C_7 
REMARK    6  A    between atoms: C_16  and  C_7 
REMARK    7  A    between atoms: C_27  and  C_8 
REMARK    8  A    between atoms: C_28  and  C_9 
REMARK    9  A    between atoms: C_29  and  C_10 
REMARK   10  A    between atoms: C_17  and  C_11 
REMARK   11  A    between atoms: C_23  and  C_11 
REMARK   12  A    between atoms: C_18  and  C_12 
REMARK   13  A    between atoms: C_24  and  C_12 
REMARK   14  A    between atoms: C_19  and  C_13 
REMARK   15  A    between atoms: C_25  and  C_13 
REMARK   16  A    between atoms: N_42  and  C_14 
REMARK   17  A    between atoms: N_43  and  C_15 
REMARK   18  A    between atoms: N_44  and  C_16 
REMARK   19  A    between atoms: O_45  and  C_17 
REMARK   20  A    between atoms: O_46  and  C_18 
REMARK   21  A    between atoms: O_60  and  C_19 
REMARK   22  A    between atoms: C_30  and  C_20 
REMARK   23  A    between atoms: C_31  and  C_21 
REMARK   24  A    between atoms: C_32  and  C_22 
REMARK   25  A    between atoms: C_35  and  C_29 
REMARK   26  A    between atoms: C_29  and  N_36 
REMARK       I    between atoms: N_42  and  C_30 
REMARK       I    between atoms: N_44  and  C_31 
REMARK       I    between atoms: N_43  and  C_32 
REMARK   27  A    between atoms: O_51  and  C_33 
REMARK   28  A    between atoms: O_52  and  C_34 
REMARK   29  A    between atoms: O_60  and  C_35 
REMARK   30  A    between atoms: O_54  and  N_42 
REMARK   31  A    between atoms: O_56  and  N_43 
REMARK   32  A    between atoms: O_58  and  N_44 
REMARK   33  A    between atoms: Fe_61  and  Fe_61 
ROOT
HETATM    1  C   UNK N   1      33.819  11.873   0.798  0.00  0.00     0.097 C 
HETATM    2  C   UNK N   1      33.574  12.927   1.819  0.00  0.00     0.107 C 
HETATM    3  N   UNK N   1      33.023  12.602   2.947  0.00  0.00    -0.361 N 
ATOM      4  HN  UNK N   1      32.778  11.620   3.073  1.00  0.00     0.162 HD
HETATM    5  O   UNK N   1      33.980  14.191   1.572  0.00  0.00    -0.350 OA
HETATM    6  H   UNK N   1      34.309  15.038   1.347  0.00  0.00     0.219 HD
ENDROOT
BRANCH   3   7
HETATM    7  C   UNK N   1      32.719  13.508   4.059  0.00  0.00     0.183 C 
BRANCH   7   8
HETATM    8  C   UNK N   1      33.951  13.851   4.920  0.00  0.00     0.037 C 
BRANCH   8   9
HETATM    9  C   UNK N   1      34.306  15.342   5.012  0.00  0.00     0.025 C 
BRANCH   9  10
HETATM   10  C   UNK N   1      34.694  15.770   6.425  0.00  0.00     0.159 C 
BRANCH  10  11
HETATM   11  N   UNK N   1      33.747  16.664   7.005  0.00  0.00    -0.225 N 
HETATM   12  C   UNK N   1      32.726  16.201   7.778  0.00  0.00     0.267 C 
HETATM   13  O   UNK N   1      32.605  15.000   7.987  0.00  0.00    -0.266 OA
BRANCH  12  14
HETATM   14  C   UNK N   1      31.801  17.167   8.399  0.00  0.00     0.079 C 
HETATM   15  C   UNK N   1      30.595  17.505   7.909  0.00  0.00    -0.076 C 
HETATM   16  C   UNK N   1      30.051  16.945   6.632  0.00  0.00     0.043 C 
BRANCH  15  17
HETATM   17  C   UNK N   1      29.732  18.424   8.709  0.00  0.00     0.059 C 
BRANCH  17  18
HETATM   18  C   UNK N   1      28.556  17.636   9.272  0.00  0.00     0.168 C 
BRANCH  18  19
HETATM   19  O   UNK N   1      27.424  18.444   9.327  0.00  0.00    -0.401 OA
HETATM   20  H   UNK N   1      27.031  18.836   8.533  0.00  0.00     0.209 HD
ENDBRANCH  18  19
ENDBRANCH  17  18
ENDBRANCH  15  17
ENDBRANCH  12  14
BRANCH  11  21
HETATM   21  O   UNK N   1      33.893  17.976   6.778  0.00  0.00    -0.285 OA
ATOM     22  HO  UNK N   1      34.772  18.314   6.647  1.00  0.00     0.245 HD
ENDBRANCH  11  21
ENDBRANCH  10  11
ENDBRANCH   9  10
ENDBRANCH   8   9
ENDBRANCH   7   8
BRANCH   7  23
HETATM   23  C   UNK N   1      31.590  13.032   4.941  0.00  0.00     0.281 C 
HETATM   24  O   UNK N   1      31.614  11.879   5.345  0.00  0.00    -0.263 OA
BRANCH  23  25
HETATM   25  O   UNK N   1      30.569  13.827   5.330  0.00  0.00    -0.320 OA
BRANCH  25  26
HETATM   26  C   UNK N   1      29.242  13.676   4.966  0.00  0.00     0.183 C 
BRANCH  26  27
HETATM   27  C   UNK N   1      29.029  14.076   3.514  0.00  0.00     0.060 C 
BRANCH  27  28
HETATM   28  C   UNK N   1      28.286  15.337   3.641  0.00  0.00    -0.076 C 
HETATM   29  C   UNK N   1      28.936  16.573   3.094  0.00  0.00     0.043 C 
HETATM   30  C   UNK N   1      27.003  15.275   4.055  0.00  0.00     0.079 C 
BRANCH  30  31
HETATM   31  C   UNK N   1      26.088  16.407   3.883  0.00  0.00     0.267 C 
HETATM   32  N   UNK N   1      25.896  17.314   4.872  0.00  0.00    -0.225 N 
HETATM   33  O   UNK N   1      25.509  16.545   2.815  0.00  0.00    -0.266 OA
BRANCH  32  34
HETATM   34  C   UNK N   1      25.220  18.564   4.568  0.00  0.00     0.159 C 
BRANCH  34  35
HETATM   35  C   UNK N   1      23.696  18.583   4.966  0.00  0.00     0.025 C 
BRANCH  35  36
HETATM   36  C   UNK N   1      22.607  18.874   3.878  0.00  0.00     0.035 C 
BRANCH  36  37
HETATM   37  C   UNK N   1      21.682  17.684   3.756  0.00  0.00     0.158 C 
HETATM   38  C   UNK N   1      20.293  17.712   3.152  0.00  0.00     0.135 C 
HETATM   39  N   UNK N   1      19.660  16.574   3.101  0.00  0.00    -0.361 N 
HETATM   40  C   UNK N   1      20.327  15.383   3.644  0.00  0.00     0.158 C 
ATOM     41  HN  UNK N   1      18.727  16.511   2.693  1.00  0.00     0.162 HD
HETATM   42  C   UNK N   1      21.788  15.419   3.177  0.00  0.00     0.135 C 
HETATM   43  N   UNK N   1      22.396  16.548   3.226  0.00  0.00    -0.361 N 
ATOM     44  HN  UNK N   1      23.358  16.641   2.899  1.00  0.00     0.162 HD
BRANCH  38  45
HETATM   45  O   UNK N   1      19.724  18.843   2.691  0.00  0.00    -0.348 OA
HETATM   46  H   UNK N   1      19.220  19.631   2.745  0.00  0.00     0.219 HD
ENDBRANCH  38  45
BRANCH  40  47
HETATM   47  C   UNK N   1      19.538  14.100   3.425  0.00  0.00     0.035 C 
BRANCH  47  48
HETATM   48  C   UNK N   1      19.219  13.376   4.710  0.00  0.00     0.025 C 
BRANCH  48  49
HETATM   49  C   UNK N   1      19.918  14.129   5.819  0.00  0.00     0.159 C 
BRANCH  49  50
HETATM   50  N   UNK N   1      20.689  13.231   6.638  0.00  0.00    -0.225 N 
HETATM   51  C   UNK N   1      21.631  13.721   7.482  0.00  0.00     0.267 C 
HETATM   52  O   UNK N   1      21.795  14.933   7.561  0.00  0.00    -0.266 OA
BRANCH  51  53
HETATM   53  C   UNK N   1      22.466  12.790   8.295  0.00  0.00     0.079 C 
HETATM   54  C   UNK N   1      22.211  12.456   9.582  0.00  0.00    -0.076 C 
HETATM   55  C   UNK N   1      21.019  12.990  10.314  0.00  0.00     0.043 C 
BRANCH  54  56
HETATM   56  C   UNK N   1      23.089  11.494  10.345  0.00  0.00     0.059 C 
BRANCH  56  57
HETATM   57  C   UNK N   1      23.478  11.934  11.750  0.00  0.00     0.168 C 
BRANCH  57  58
HETATM   58  O   UNK N   1      24.825  12.290  11.774  0.00  0.00    -0.401 OA
HETATM   59  H   UNK N   1      25.395  13.073  11.727  0.00  0.00     0.209 HD
ENDBRANCH  57  58
ENDBRANCH  56  57
ENDBRANCH  54  56
ENDBRANCH  51  53
BRANCH  50  60
HETATM   60  O   UNK N   1      20.493  11.906   6.536  0.00  0.00    -0.285 OA
ATOM     61  HO  UNK N   1      19.983  11.560   5.812  1.00  0.00     0.245 HD
ENDBRANCH  50  60
ENDBRANCH  49  50
ENDBRANCH  48  49
ENDBRANCH  47  48
ENDBRANCH  40  47
BRANCH  42  62
HETATM   62  O   UNK N   1      22.440  14.345   2.711  0.00  0.00    -0.348 OA
HETATM   63  H   UNK N   1      22.838  13.659   3.210  0.00  0.00     0.219 HD
ENDBRANCH  42  62
ENDBRANCH  36  37
ENDBRANCH  35  36
ENDBRANCH  34  35
ENDBRANCH  32  34
BRANCH  32  64
HETATM   64  O   UNK N   1      26.511  17.170   6.060  0.00  0.00    -0.285 OA
ATOM     65  HO  UNK N   1      25.993  17.177   6.856  1.00  0.00     0.245 HD
ENDBRANCH  32  64
ENDBRANCH  30  31
ENDBRANCH  27  28
ENDBRANCH  26  27
ENDBRANCH  25  26
ENDBRANCH  23  25
ENDBRANCH   7  23
ENDBRANCH   3   7
TORSDOF 33
ENDMDL
MODEL 6
REMARK VINA RESULT:      -6.7      2.641      4.669
REMARK WARNING: 32 MAX_TORS EXCEEDED!!!
REMARK  33 active torsions:
REMARK  status: ('A' for Active; 'I' for Inactive)
REMARK    1  A    between atoms: C_8  and  C_5 
REMARK    2  A    between atoms: C_14  and  C_5 
REMARK    3  A    between atoms: C_9  and  C_6 
REMARK    4  A    between atoms: C_15  and  C_6 
REMARK    5  A    between atoms: C_10  and  C_7 
REMARK    6  A    between atoms: C_16  and  C_7 
REMARK    7  A    between atoms: C_27  and  C_8 
REMARK    8  A    between atoms: C_28  and  C_9 
REMARK    9  A    between atoms: C_29  and  C_10 
REMARK   10  A    between atoms: C_17  and  C_11 
REMARK   11  A    between atoms: C_23  and  C_11 
REMARK   12  A    between atoms: C_18  and  C_12 
REMARK   13  A    between atoms: C_24  and  C_12 
REMARK   14  A    between atoms: C_19  and  C_13 
REMARK   15  A    between atoms: C_25  and  C_13 
REMARK   16  A    between atoms: N_42  and  C_14 
REMARK   17  A    between atoms: N_43  and  C_15 
REMARK   18  A    between atoms: N_44  and  C_16 
REMARK   19  A    between atoms: O_45  and  C_17 
REMARK   20  A    between atoms: O_46  and  C_18 
REMARK   21  A    between atoms: O_60  and  C_19 
REMARK   22  A    between atoms: C_30  and  C_20 
REMARK   23  A    between atoms: C_31  and  C_21 
REMARK   24  A    between atoms: C_32  and  C_22 
REMARK   25  A    between atoms: C_35  and  C_29 
REMARK   26  A    between atoms: C_29  and  N_36 
REMARK       I    between atoms: N_42  and  C_30 
REMARK       I    between atoms: N_44  and  C_31 
REMARK       I    between atoms: N_43  and  C_32 
REMARK   27  A    between atoms: O_51  and  C_33 
REMARK   28  A    between atoms: O_52  and  C_34 
REMARK   29  A    between atoms: O_60  and  C_35 
REMARK   30  A    between atoms: O_54  and  N_42 
REMARK   31  A    between atoms: O_56  and  N_43 
REMARK   32  A    between atoms: O_58  and  N_44 
REMARK   33  A    between atoms: Fe_61  and  Fe_61 
ROOT
HETATM    1  C   UNK N   1      20.587  19.613   3.331  0.00  0.00     0.097 C 
HETATM    2  C   UNK N   1      20.090  18.290   2.864  0.00  0.00     0.107 C 
HETATM    3  N   UNK N   1      20.576  17.209   3.392  0.00  0.00    -0.361 N 
ATOM      4  HN  UNK N   1      21.290  17.328   4.110  1.00  0.00     0.162 HD
HETATM    5  O   UNK N   1      19.107  18.243   1.941  0.00  0.00    -0.350 OA
HETATM    6  H   UNK N   1      18.407  18.284   1.320  0.00  0.00     0.219 HD
ENDROOT
BRANCH   3   7
HETATM    7  C   UNK N   1      20.196  15.833   3.057  0.00  0.00     0.183 C 
BRANCH   7   8
HETATM    8  C   UNK N   1      20.625  14.805   4.123  0.00  0.00     0.037 C 
BRANCH   8   9
HETATM    9  C   UNK N   1      21.971  15.078   4.807  0.00  0.00     0.025 C 
BRANCH   9  10
HETATM   10  C   UNK N   1      22.826  13.821   4.949  0.00  0.00     0.159 C 
BRANCH  10  11
HETATM   11  N   UNK N   1      23.182  13.551   6.303  0.00  0.00    -0.225 N 
HETATM   12  C   UNK N   1      22.414  12.743   7.084  0.00  0.00     0.267 C 
HETATM   13  O   UNK N   1      21.398  12.232   6.632  0.00  0.00    -0.266 OA
BRANCH  12  14
HETATM   14  C   UNK N   1      22.850  12.452   8.463  0.00  0.00     0.079 C 
HETATM   15  C   UNK N   1      22.330  13.009   9.571  0.00  0.00    -0.076 C 
HETATM   16  C   UNK N   1      21.238  14.033   9.529  0.00  0.00     0.043 C 
BRANCH  15  17
HETATM   17  C   UNK N   1      22.810  12.534  10.902  0.00  0.00     0.059 C 
BRANCH  17  18
HETATM   18  C   UNK N   1      24.279  12.147  10.791  0.00  0.00     0.168 C 
BRANCH  18  19
HETATM   19  O   UNK N   1      24.923  12.371  12.004  0.00  0.00    -0.401 OA
HETATM   20  H   UNK N   1      24.435  12.535  12.825  0.00  0.00     0.209 HD
ENDBRANCH  18  19
ENDBRANCH  17  18
ENDBRANCH  15  17
ENDBRANCH  12  14
BRANCH  11  21
HETATM   21  O   UNK N   1      24.301  14.109   6.786  0.00  0.00    -0.285 OA
ATOM     22  HO  UNK N   1      24.448  15.034   6.625  1.00  0.00     0.245 HD
ENDBRANCH  11  21
ENDBRANCH  10  11
ENDBRANCH   9  10
ENDBRANCH   8   9
ENDBRANCH   7   8
BRANCH   7  23
HETATM   23  C   UNK N   1      20.664  15.387   1.693  0.00  0.00     0.281 C 
HETATM   24  O   UNK N   1      19.829  15.218   0.817  0.00  0.00    -0.263 OA
BRANCH  23  25
HETATM   25  O   UNK N   1      21.966  15.196   1.384  0.00  0.00    -0.320 OA
BRANCH  25  26
HETATM   26  C   UNK N   1      22.569  13.973   1.143  0.00  0.00     0.183 C 
BRANCH  26  27
HETATM   27  C   UNK N   1      23.978  14.160   0.600  0.00  0.00     0.060 C 
BRANCH  27  28
HETATM   28  C   UNK N   1      24.808  13.884   1.780  0.00  0.00    -0.076 C 
HETATM   29  C   UNK N   1      25.163  12.452   2.048  0.00  0.00     0.043 C 
HETATM   30  C   UNK N   1      25.356  14.934   2.426  0.00  0.00     0.079 C 
BRANCH  30  31
HETATM   31  C   UNK N   1      26.458  14.757   3.377  0.00  0.00     0.267 C 
HETATM   32  N   UNK N   1      27.743  14.663   2.956  0.00  0.00    -0.225 N 
HETATM   33  O   UNK N   1      26.209  14.722   4.573  0.00  0.00    -0.266 OA
BRANCH  32  34
HETATM   34  C   UNK N   1      28.819  14.782   3.926  0.00  0.00     0.159 C 
BRANCH  34  35
HETATM   35  C   UNK N   1      29.794  15.989   3.658  0.00  0.00     0.025 C 
BRANCH  35  36
HETATM   36  C   UNK N   1      31.186  15.735   2.983  0.00  0.00     0.035 C 
BRANCH  36  37
HETATM   37  C   UNK N   1      32.235  15.524   4.050  0.00  0.00     0.158 C 
HETATM   38  C   UNK N   1      33.336  14.484   4.005  0.00  0.00     0.135 C 
HETATM   39  N   UNK N   1      34.172  14.480   5.005  0.00  0.00    -0.361 N 
HETATM   40  C   UNK N   1      33.968  15.456   6.084  0.00  0.00     0.158 C 
ATOM     41  HN  UNK N   1      34.948  13.818   5.036  1.00  0.00     0.162 HD
HETATM   42  C   UNK N   1      33.628  16.802   5.431  0.00  0.00     0.135 C 
HETATM   43  N   UNK N   1      32.808  16.788   4.444  0.00  0.00    -0.361 N 
ATOM     44  HN  UNK N   1      32.569  17.648   3.949  1.00  0.00     0.162 HD
BRANCH  38  45
HETATM   45  O   UNK N   1      33.456  13.598   2.997  0.00  0.00    -0.348 OA
HETATM   46  H   UNK N   1      33.564  13.323   2.108  0.00  0.00     0.219 HD
ENDBRANCH  38  45
BRANCH  40  47
HETATM   47  C   UNK N   1      35.070  15.428   7.133  0.00  0.00     0.035 C 
BRANCH  47  48
HETATM   48  C   UNK N   1      34.579  14.999   8.495  0.00  0.00     0.025 C 
BRANCH  48  49
HETATM   49  C   UNK N   1      33.817  16.171   9.071  0.00  0.00     0.159 C 
BRANCH  49  50
HETATM   50  N   UNK N   1      32.433  16.121   8.681  0.00  0.00    -0.225 N 
HETATM   51  C   UNK N   1      31.799  17.250   8.278  0.00  0.00     0.267 C 
HETATM   52  O   UNK N   1      32.424  18.302   8.220  0.00  0.00    -0.266 OA
BRANCH  51  53
HETATM   53  C   UNK N   1      30.351  17.210   7.921  0.00  0.00     0.079 C 
HETATM   54  C   UNK N   1      29.360  17.744   8.674  0.00  0.00    -0.076 C 
HETATM   55  C   UNK N   1      29.644  18.464   9.955  0.00  0.00     0.043 C 
BRANCH  54  56
HETATM   56  C   UNK N   1      27.914  17.682   8.247  0.00  0.00     0.059 C 
BRANCH  56  57
HETATM   57  C   UNK N   1      27.613  16.744   7.085  0.00  0.00     0.168 C 
BRANCH  57  58
HETATM   58  O   UNK N   1      26.256  16.429   7.076  0.00  0.00    -0.401 OA
HETATM   59  H   UNK N   1      25.389  16.840   7.218  0.00  0.00     0.209 HD
ENDBRANCH  57  58
ENDBRANCH  56  57
ENDBRANCH  54  56
ENDBRANCH  51  53
BRANCH  50  60
HETATM   60  O   UNK N   1      31.765  14.957   8.751  0.00  0.00    -0.285 OA
ATOM     61  HO  UNK N   1      32.248  14.139   8.785  1.00  0.00     0.245 HD
ENDBRANCH  50  60
ENDBRANCH  49  50
ENDBRANCH  48  49
ENDBRANCH  47  48
ENDBRANCH  40  47
BRANCH  42  62
HETATM   62  O   UNK N   1      34.153  17.968   5.829  0.00  0.00    -0.348 OA
HETATM   63  H   UNK N   1      34.493  18.654   5.289  0.00  0.00     0.219 HD
ENDBRANCH  42  62
ENDBRANCH  36  37
ENDBRANCH  35  36
ENDBRANCH  34  35
ENDBRANCH  32  34
BRANCH  32  64
HETATM   64  O   UNK N   1      28.034  14.683   1.643  0.00  0.00    -0.285 OA
ATOM     65  HO  UNK N   1      27.909  13.894   1.126  1.00  0.00     0.245 HD
ENDBRANCH  32  64
ENDBRANCH  30  31
ENDBRANCH  27  28
ENDBRANCH  26  27
ENDBRANCH  25  26
ENDBRANCH  23  25
ENDBRANCH   7  23
ENDBRANCH   3   7
TORSDOF 33
ENDMDL
MODEL 7
REMARK VINA RESULT:      -6.7      2.210      3.201
REMARK WARNING: 32 MAX_TORS EXCEEDED!!!
REMARK  33 active torsions:
REMARK  status: ('A' for Active; 'I' for Inactive)
REMARK    1  A    between atoms: C_8  and  C_5 
REMARK    2  A    between atoms: C_14  and  C_5 
REMARK    3  A    between atoms: C_9  and  C_6 
REMARK    4  A    between atoms: C_15  and  C_6 
REMARK    5  A    between atoms: C_10  and  C_7 
REMARK    6  A    between atoms: C_16  and  C_7 
REMARK    7  A    between atoms: C_27  and  C_8 
REMARK    8  A    between atoms: C_28  and  C_9 
REMARK    9  A    between atoms: C_29  and  C_10 
REMARK   10  A    between atoms: C_17  and  C_11 
REMARK   11  A    between atoms: C_23  and  C_11 
REMARK   12  A    between atoms: C_18  and  C_12 
REMARK   13  A    between atoms: C_24  and  C_12 
REMARK   14  A    between atoms: C_19  and  C_13 
REMARK   15  A    between atoms: C_25  and  C_13 
REMARK   16  A    between atoms: N_42  and  C_14 
REMARK   17  A    between atoms: N_43  and  C_15 
REMARK   18  A    between atoms: N_44  and  C_16 
REMARK   19  A    between atoms: O_45  and  C_17 
REMARK   20  A    between atoms: O_46  and  C_18 
REMARK   21  A    between atoms: O_60  and  C_19 
REMARK   22  A    between atoms: C_30  and  C_20 
REMARK   23  A    between atoms: C_31  and  C_21 
REMARK   24  A    between atoms: C_32  and  C_22 
REMARK   25  A    between atoms: C_35  and  C_29 
REMARK   26  A    between atoms: C_29  and  N_36 
REMARK       I    between atoms: N_42  and  C_30 
REMARK       I    between atoms: N_44  and  C_31 
REMARK       I    between atoms: N_43  and  C_32 
REMARK   27  A    between atoms: O_51  and  C_33 
REMARK   28  A    between atoms: O_52  and  C_34 
REMARK   29  A    between atoms: O_60  and  C_35 
REMARK   30  A    between atoms: O_54  and  N_42 
REMARK   31  A    between atoms: O_56  and  N_43 
REMARK   32  A    between atoms: O_58  and  N_44 
REMARK   33  A    between atoms: Fe_61  and  Fe_61 
ROOT
HETATM    1  C   UNK N   1      21.739  11.301   6.449  0.00  0.00     0.097 C 
HETATM    2  C   UNK N   1      21.535  12.520   5.621  0.00  0.00     0.107 C 
HETATM    3  N   UNK N   1      20.330  12.861   5.281  0.00  0.00    -0.361 N 
ATOM      4  HN  UNK N   1      19.573  12.258   5.603  1.00  0.00     0.162 HD
HETATM    5  O   UNK N   1      22.601  13.276   5.287  0.00  0.00    -0.350 OA
HETATM    6  H   UNK N   1      23.379  13.768   5.114  0.00  0.00     0.219 HD
ENDROOT
BRANCH   3   7
HETATM    7  C   UNK N   1      19.951  14.029   4.480  0.00  0.00     0.183 C 
BRANCH   7   8
HETATM    8  C   UNK N   1      19.149  15.079   5.274  0.00  0.00     0.037 C 
BRANCH   8   9
HETATM    9  C   UNK N   1      19.982  16.147   5.997  0.00  0.00     0.025 C 
BRANCH   9  10
HETATM   10  C   UNK N   1      19.942  15.997   7.516  0.00  0.00     0.159 C 
BRANCH  10  11
HETATM   11  N   UNK N   1      20.993  15.172   8.013  0.00  0.00    -0.225 N 
HETATM   12  C   UNK N   1      20.772  14.283   9.020  0.00  0.00     0.267 C 
HETATM   13  O   UNK N   1      19.658  14.176   9.516  0.00  0.00    -0.266 OA
BRANCH  12  14
HETATM   14  C   UNK N   1      21.878  13.414   9.465  0.00  0.00     0.079 C 
HETATM   15  C   UNK N   1      21.803  12.527  10.474  0.00  0.00    -0.076 C 
HETATM   16  C   UNK N   1      20.567  12.332  11.295  0.00  0.00     0.043 C 
BRANCH  15  17
HETATM   17  C   UNK N   1      22.980  11.648  10.739  0.00  0.00     0.059 C 
BRANCH  17  18
HETATM   18  C   UNK N   1      23.551  11.981  12.111  0.00  0.00     0.168 C 
BRANCH  18  19
HETATM   19  O   UNK N   1      24.886  12.355  11.993  0.00  0.00    -0.401 OA
HETATM   20  H   UNK N   1      25.210  12.884  11.249  0.00  0.00     0.209 HD
ENDBRANCH  18  19
ENDBRANCH  17  18
ENDBRANCH  15  17
ENDBRANCH  12  14
BRANCH  11  21
HETATM   21  O   UNK N   1      22.207  15.290   7.457  0.00  0.00    -0.285 OA
ATOM     22  HO  UNK N   1      22.347  15.991   6.831  1.00  0.00     0.245 HD
ENDBRANCH  11  21
ENDBRANCH  10  11
ENDBRANCH   9  10
ENDBRANCH   8   9
ENDBRANCH   7   8
BRANCH   7  23
HETATM   23  C   UNK N   1      19.223  13.681   3.203  0.00  0.00     0.281 C 
HETATM   24  O   UNK N   1      18.187  13.037   3.282  0.00  0.00    -0.263 OA
BRANCH  23  25
HETATM   25  O   UNK N   1      19.645  14.073   1.981  0.00  0.00    -0.320 OA
BRANCH  25  26
HETATM   26  C   UNK N   1      20.868  13.767   1.410  0.00  0.00     0.183 C 
BRANCH  26  27
HETATM   27  C   UNK N   1      21.762  14.996   1.348  0.00  0.00     0.060 C 
BRANCH  27  28
HETATM   28  C   UNK N   1      23.106  14.413   1.455  0.00  0.00    -0.076 C 
HETATM   29  C   UNK N   1      23.514  13.436   0.393  0.00  0.00     0.043 C 
HETATM   30  C   UNK N   1      23.949  14.932   2.371  0.00  0.00     0.079 C 
BRANCH  30  31
HETATM   31  C   UNK N   1      25.390  14.669   2.322  0.00  0.00     0.267 C 
HETATM   32  N   UNK N   1      25.967  13.751   3.135  0.00  0.00    -0.225 N 
HETATM   33  O   UNK N   1      26.076  15.274   1.510  0.00  0.00    -0.266 OA
BRANCH  32  34
HETATM   34  C   UNK N   1      27.325  13.312   2.861  0.00  0.00     0.159 C 
BRANCH  34  35
HETATM   35  C   UNK N   1      28.436  14.235   3.488  0.00  0.00     0.025 C 
BRANCH  35  36
HETATM   36  C   UNK N   1      28.424  14.540   5.025  0.00  0.00     0.035 C 
BRANCH  36  37
HETATM   37  C   UNK N   1      29.587  15.441   5.372  0.00  0.00     0.158 C 
HETATM   38  C   UNK N   1      29.508  16.682   6.237  0.00  0.00     0.135 C 
HETATM   39  N   UNK N   1      30.629  17.310   6.454  0.00  0.00    -0.361 N 
HETATM   40  C   UNK N   1      31.852  16.782   5.835  0.00  0.00     0.158 C 
ATOM     41  HN  UNK N   1      30.656  18.145   7.040  1.00  0.00     0.162 HD
HETATM   42  C   UNK N   1      31.834  15.258   6.003  0.00  0.00     0.135 C 
HETATM   43  N   UNK N   1      30.721  14.654   5.792  0.00  0.00    -0.361 N 
ATOM     44  HN  UNK N   1      30.639  13.645   5.919  1.00  0.00     0.162 HD
BRANCH  38  45
HETATM   45  O   UNK N   1      28.350  17.131   6.758  0.00  0.00    -0.348 OA
HETATM   46  H   UNK N   1      27.749  17.357   7.441  0.00  0.00     0.219 HD
ENDBRANCH  38  45
BRANCH  40  47
HETATM   47  C   UNK N   1      33.108  17.533   6.254  0.00  0.00     0.035 C 
BRANCH  47  48
HETATM   48  C   UNK N   1      33.204  17.736   7.746  0.00  0.00     0.025 C 
BRANCH  48  49
HETATM   49  C   UNK N   1      34.520  17.133   8.184  0.00  0.00     0.159 C 
BRANCH  49  50
HETATM   50  N   UNK N   1      34.333  16.277   9.325  0.00  0.00    -0.225 N 
HETATM   51  C   UNK N   1      35.096  16.448  10.434  0.00  0.00     0.267 C 
HETATM   52  O   UNK N   1      35.918  17.355  10.464  0.00  0.00    -0.266 OA
BRANCH  51  53
HETATM   53  C   UNK N   1      34.939  15.530  11.600  0.00  0.00     0.079 C 
HETATM   54  C   UNK N   1      35.697  14.429  11.817  0.00  0.00    -0.076 C 
HETATM   55  C   UNK N   1      36.808  14.042  10.892  0.00  0.00     0.043 C 
BRANCH  54  56
HETATM   56  C   UNK N   1      35.497  13.550  13.028  0.00  0.00     0.059 C 
BRANCH  56  57
HETATM   57  C   UNK N   1      36.403  13.854  14.215  0.00  0.00     0.168 C 
BRANCH  57  58
HETATM   58  O   UNK N   1      37.416  12.899  14.287  0.00  0.00    -0.401 OA
HETATM   59  H   UNK N   1      37.570  11.956  14.123  0.00  0.00     0.209 HD
ENDBRANCH  57  58
ENDBRANCH  56  57
ENDBRANCH  54  56
ENDBRANCH  51  53
BRANCH  50  60
HETATM   60  O   UNK N   1      33.425  15.288   9.273  0.00  0.00    -0.285 OA
ATOM     61  HO  UNK N   1      32.499  15.501   9.235  1.00  0.00     0.245 HD
ENDBRANCH  50  60
ENDBRANCH  49  50
ENDBRANCH  48  49
ENDBRANCH  47  48
ENDBRANCH  40  47
BRANCH  42  62
HETATM   62  O   UNK N   1      32.906  14.543   6.371  0.00  0.00    -0.348 OA
HETATM   63  H   UNK N   1      33.580  14.795   6.971  0.00  0.00     0.219 HD
ENDBRANCH  42  62
ENDBRANCH  36  37
ENDBRANCH  35  36
ENDBRANCH  34  35
ENDBRANCH  32  34
BRANCH  32  64
HETATM   64  O   UNK N   1      25.231  13.089   4.046  0.00  0.00    -0.285 OA
ATOM     65  HO  UNK N   1      25.574  12.290   4.430  1.00  0.00     0.245 HD
ENDBRANCH  32  64
ENDBRANCH  30  31
ENDBRANCH  27  28
ENDBRANCH  26  27
ENDBRANCH  25  26
ENDBRANCH  23  25
ENDBRANCH   7  23
ENDBRANCH   3   7
TORSDOF 33
ENDMDL
MODEL 8
REMARK VINA RESULT:      -6.7      2.219      3.717
REMARK WARNING: 32 MAX_TORS EXCEEDED!!!
REMARK  33 active torsions:
REMARK  status: ('A' for Active; 'I' for Inactive)
REMARK    1  A    between atoms: C_8  and  C_5 
REMARK    2  A    between atoms: C_14  and  C_5 
REMARK    3  A    between atoms: C_9  and  C_6 
REMARK    4  A    between atoms: C_15  and  C_6 
REMARK    5  A    between atoms: C_10  and  C_7 
REMARK    6  A    between atoms: C_16  and  C_7 
REMARK    7  A    between atoms: C_27  and  C_8 
REMARK    8  A    between atoms: C_28  and  C_9 
REMARK    9  A    between atoms: C_29  and  C_10 
REMARK   10  A    between atoms: C_17  and  C_11 
REMARK   11  A    between atoms: C_23  and  C_11 
REMARK   12  A    between atoms: C_18  and  C_12 
REMARK   13  A    between atoms: C_24  and  C_12 
REMARK   14  A    between atoms: C_19  and  C_13 
REMARK   15  A    between atoms: C_25  and  C_13 
REMARK   16  A    between atoms: N_42  and  C_14 
REMARK   17  A    between atoms: N_43  and  C_15 
REMARK   18  A    between atoms: N_44  and  C_16 
REMARK   19  A    between atoms: O_45  and  C_17 
REMARK   20  A    between atoms: O_46  and  C_18 
REMARK   21  A    between atoms: O_60  and  C_19 
REMARK   22  A    between atoms: C_30  and  C_20 
REMARK   23  A    between atoms: C_31  and  C_21 
REMARK   24  A    between atoms: C_32  and  C_22 
REMARK   25  A    between atoms: C_35  and  C_29 
REMARK   26  A    between atoms: C_29  and  N_36 
REMARK       I    between atoms: N_42  and  C_30 
REMARK       I    between atoms: N_44  and  C_31 
REMARK       I    between atoms: N_43  and  C_32 
REMARK   27  A    between atoms: O_51  and  C_33 
REMARK   28  A    between atoms: O_52  and  C_34 
REMARK   29  A    between atoms: O_60  and  C_35 
REMARK   30  A    between atoms: O_54  and  N_42 
REMARK   31  A    between atoms: O_56  and  N_43 
REMARK   32  A    between atoms: O_58  and  N_44 
REMARK   33  A    between atoms: Fe_61  and  Fe_61 
ROOT
HETATM    1  C   UNK N   1      22.082  15.646   6.821  0.00  0.00     0.097 C 
HETATM    2  C   UNK N   1      21.033  14.690   6.376  0.00  0.00     0.107 C 
HETATM    3  N   UNK N   1      21.180  14.069   5.247  0.00  0.00    -0.361 N 
ATOM      4  HN  UNK N   1      22.023  14.278   4.712  1.00  0.00     0.162 HD
HETATM    5  O   UNK N   1      19.977  14.448   7.181  0.00  0.00    -0.350 OA
HETATM    6  H   UNK N   1      19.288  14.307   7.798  0.00  0.00     0.219 HD
ENDROOT
BRANCH   3   7
HETATM    7  C   UNK N   1      20.252  13.094   4.665  0.00  0.00     0.183 C 
BRANCH   7   8
HETATM    8  C   UNK N   1      20.937  12.094   3.711  0.00  0.00     0.037 C 
BRANCH   8   9
HETATM    9  C   UNK N   1      22.232  11.456   4.233  0.00  0.00     0.025 C 
BRANCH   9  10
HETATM   10  C   UNK N   1      21.974  10.360   5.265  0.00  0.00     0.159 C 
BRANCH  10  11
HETATM   11  N   UNK N   1      22.216  10.798   6.600  0.00  0.00    -0.225 N 
HETATM   12  C   UNK N   1      23.364  10.465   7.251  0.00  0.00     0.267 C 
HETATM   13  O   UNK N   1      24.214   9.781   6.695  0.00  0.00    -0.266 OA
BRANCH  12  14
HETATM   14  C   UNK N   1      23.593  10.984   8.612  0.00  0.00     0.079 C 
HETATM   15  C   UNK N   1      24.201  12.149   8.902  0.00  0.00    -0.076 C 
HETATM   16  C   UNK N   1      24.751  13.062   7.850  0.00  0.00     0.043 C 
BRANCH  15  17
HETATM   17  C   UNK N   1      24.267  12.584  10.328  0.00  0.00     0.059 C 
BRANCH  17  18
HETATM   18  C   UNK N   1      22.886  12.444  10.955  0.00  0.00     0.168 C 
BRANCH  18  19
HETATM   19  O   UNK N   1      22.931  11.532  12.006  0.00  0.00    -0.401 OA
HETATM   20  H   UNK N   1      22.475  10.678  11.968  0.00  0.00     0.209 HD
ENDBRANCH  18  19
ENDBRANCH  17  18
ENDBRANCH  15  17
ENDBRANCH  12  14
BRANCH  11  21
HETATM   21  O   UNK N   1      21.284  11.554   7.196  0.00  0.00    -0.285 OA
ATOM     22  HO  UNK N   1      20.748  11.156   7.873  1.00  0.00     0.245 HD
ENDBRANCH  11  21
ENDBRANCH  10  11
ENDBRANCH   9  10
ENDBRANCH   8   9
ENDBRANCH   7   8
BRANCH   7  23
HETATM   23  C   UNK N   1      19.058  13.720   3.985  0.00  0.00     0.281 C 
HETATM   24  O   UNK N   1      18.077  13.988   4.663  0.00  0.00    -0.263 OA
BRANCH  23  25
HETATM   25  O   UNK N   1      19.033  14.028   2.669  0.00  0.00    -0.320 OA
BRANCH  25  26
HETATM   26  C   UNK N   1      19.634  15.130   2.086  0.00  0.00     0.183 C 
BRANCH  26  27
HETATM   27  C   UNK N   1      20.784  14.707   1.184  0.00  0.00     0.060 C 
BRANCH  27  28
HETATM   28  C   UNK N   1      21.956  15.203   1.917  0.00  0.00    -0.076 C 
HETATM   29  C   UNK N   1      21.771  16.434   2.753  0.00  0.00     0.043 C 
HETATM   30  C   UNK N   1      23.057  14.423   1.952  0.00  0.00     0.079 C 
BRANCH  30  31
HETATM   31  C   UNK N   1      24.130  14.655   2.923  0.00  0.00     0.267 C 
HETATM   32  N   UNK N   1      25.349  15.099   2.532  0.00  0.00    -0.225 N 
HETATM   33  O   UNK N   1      23.906  14.468   4.110  0.00  0.00    -0.266 OA
BRANCH  32  34
HETATM   34  C   UNK N   1      26.281  15.591   3.533  0.00  0.00     0.159 C 
BRANCH  34  35
HETATM   35  C   UNK N   1      26.376  17.161   3.605  0.00  0.00     0.025 C 
BRANCH  35  36
HETATM   36  C   UNK N   1      26.249  17.890   4.986  0.00  0.00     0.035 C 
BRANCH  36  37
HETATM   37  C   UNK N   1      27.507  17.668   5.794  0.00  0.00     0.158 C 
HETATM   38  C   UNK N   1      28.905  18.071   5.371  0.00  0.00     0.135 C 
HETATM   39  N   UNK N   1      29.861  17.829   6.222  0.00  0.00    -0.361 N 
HETATM   40  C   UNK N   1      29.513  17.176   7.491  0.00  0.00     0.158 C 
ATOM     41  HN  UNK N   1      30.826  18.087   6.013  1.00  0.00     0.162 HD
HETATM   42  C   UNK N   1      28.231  17.837   8.014  0.00  0.00     0.135 C 
HETATM   43  N   UNK N   1      27.301  18.076   7.163  0.00  0.00    -0.361 N 
ATOM     44  HN  UNK N   1      26.439  18.543   7.445  1.00  0.00     0.162 HD
BRANCH  38  45
HETATM   45  O   UNK N   1      29.165  18.647   4.181  0.00  0.00    -0.348 OA
HETATM   46  H   UNK N   1      29.593  19.234   3.589  0.00  0.00     0.219 HD
ENDBRANCH  38  45
BRANCH  40  47
HETATM   47  C   UNK N   1      30.693  17.050   8.444  0.00  0.00     0.035 C 
BRANCH  47  48
HETATM   48  C   UNK N   1      31.725  16.052   7.978  0.00  0.00     0.025 C 
BRANCH  48  49
HETATM   49  C   UNK N   1      33.066  16.557   8.459  0.00  0.00     0.159 C 
BRANCH  49  50
HETATM   50  N   UNK N   1      33.535  15.778   9.574  0.00  0.00    -0.225 N 
HETATM   51  C   UNK N   1      34.629  16.177  10.270  0.00  0.00     0.267 C 
HETATM   52  O   UNK N   1      35.191  17.219   9.958  0.00  0.00    -0.266 OA
BRANCH  51  53
HETATM   53  C   UNK N   1      35.146  15.345  11.394  0.00  0.00     0.079 C 
HETATM   54  C   UNK N   1      36.157  14.450  11.285  0.00  0.00    -0.076 C 
HETATM   55  C   UNK N   1      36.880  14.231   9.993  0.00  0.00     0.043 C 
BRANCH  54  56
HETATM   56  C   UNK N   1      36.644  13.650  12.469  0.00  0.00     0.059 C 
BRANCH  56  57
HETATM   57  C   UNK N   1      36.138  14.117  13.828  0.00  0.00     0.168 C 
BRANCH  57  58
HETATM   58  O   UNK N   1      37.028  15.047  14.365  0.00  0.00    -0.401 OA
HETATM   59  H   UNK N   1      37.295  15.424  15.217  0.00  0.00     0.209 HD
ENDBRANCH  57  58
ENDBRANCH  56  57
ENDBRANCH  54  56
ENDBRANCH  51  53
BRANCH  50  60
HETATM   60  O   UNK N   1      32.903  14.637   9.900  0.00  0.00    -0.285 OA
ATOM     61  HO  UNK N   1      32.582  14.065   9.212  1.00  0.00     0.245 HD
ENDBRANCH  50  60
ENDBRANCH  49  50
ENDBRANCH  48  49
ENDBRANCH  47  48
ENDBRANCH  40  47
BRANCH  42  62
HETATM   62  O   UNK N   1      28.051  18.187   9.295  0.00  0.00    -0.348 OA
HETATM   63  H   UNK N   1      28.505  18.852   9.773  0.00  0.00     0.219 HD
ENDBRANCH  42  62
ENDBRANCH  36  37
ENDBRANCH  35  36
ENDBRANCH  34  35
ENDBRANCH  32  34
BRANCH  32  64
HETATM   64  O   UNK N   1      25.619  15.293   1.229  0.00  0.00    -0.285 OA
ATOM     65  HO  UNK N   1      25.377  14.624   0.598  1.00  0.00     0.245 HD
ENDBRANCH  32  64
ENDBRANCH  30  31
ENDBRANCH  27  28
ENDBRANCH  26  27
ENDBRANCH  25  26
ENDBRANCH  23  25
ENDBRANCH   7  23
ENDBRANCH   3   7
TORSDOF 33
ENDMDL
MODEL 9
REMARK VINA RESULT:      -6.7      3.935      9.684
REMARK WARNING: 32 MAX_TORS EXCEEDED!!!
REMARK  33 active torsions:
REMARK  status: ('A' for Active; 'I' for Inactive)
REMARK    1  A    between atoms: C_8  and  C_5 
REMARK    2  A    between atoms: C_14  and  C_5 
REMARK    3  A    between atoms: C_9  and  C_6 
REMARK    4  A    between atoms: C_15  and  C_6 
REMARK    5  A    between atoms: C_10  and  C_7 
REMARK    6  A    between atoms: C_16  and  C_7 
REMARK    7  A    between atoms: C_27  and  C_8 
REMARK    8  A    between atoms: C_28  and  C_9 
REMARK    9  A    between atoms: C_29  and  C_10 
REMARK   10  A    between atoms: C_17  and  C_11 
REMARK   11  A    between atoms: C_23  and  C_11 
REMARK   12  A    between atoms: C_18  and  C_12 
REMARK   13  A    between atoms: C_24  and  C_12 
REMARK   14  A    between atoms: C_19  and  C_13 
REMARK   15  A    between atoms: C_25  and  C_13 
REMARK   16  A    between atoms: N_42  and  C_14 
REMARK   17  A    between atoms: N_43  and  C_15 
REMARK   18  A    between atoms: N_44  and  C_16 
REMARK   19  A    between atoms: O_45  and  C_17 
REMARK   20  A    between atoms: O_46  and  C_18 
REMARK   21  A    between atoms: O_60  and  C_19 
REMARK   22  A    between atoms: C_30  and  C_20 
REMARK   23  A    between atoms: C_31  and  C_21 
REMARK   24  A    between atoms: C_32  and  C_22 
REMARK   25  A    between atoms: C_35  and  C_29 
REMARK   26  A    between atoms: C_29  and  N_36 
REMARK       I    between atoms: N_42  and  C_30 
REMARK       I    between atoms: N_44  and  C_31 
REMARK       I    between atoms: N_43  and  C_32 
REMARK   27  A    between atoms: O_51  and  C_33 
REMARK   28  A    between atoms: O_52  and  C_34 
REMARK   29  A    between atoms: O_60  and  C_35 
REMARK   30  A    between atoms: O_54  and  N_42 
REMARK   31  A    between atoms: O_56  and  N_43 
REMARK   32  A    between atoms: O_58  and  N_44 
REMARK   33  A    between atoms: Fe_61  and  Fe_61 
ROOT
HETATM    1  C   UNK N   1      26.480  21.242   6.554  0.00  0.00     0.097 C 
HETATM    2  C   UNK N   1      26.832  20.014   5.790  0.00  0.00     0.107 C 
HETATM    3  N   UNK N   1      27.034  18.905   6.432  0.00  0.00    -0.361 N 
ATOM      4  HN  UNK N   1      26.943  18.937   7.447  1.00  0.00     0.162 HD
HETATM    5  O   UNK N   1      26.880  20.068   4.443  0.00  0.00    -0.350 OA
HETATM    6  H   UNK N   1      26.870  20.168   3.512  0.00  0.00     0.219 HD
ENDROOT
BRANCH   3   7
HETATM    7  C   UNK N   1      27.379  17.609   5.838  0.00  0.00     0.183 C 
BRANCH   7   8
HETATM    8  C   UNK N   1      26.749  16.412   6.579  0.00  0.00     0.037 C 
BRANCH   8   9
HETATM    9  C   UNK N   1      25.762  15.568   5.762  0.00  0.00     0.025 C 
BRANCH   9  10
HETATM   10  C   UNK N   1      24.343  16.130   5.788  0.00  0.00     0.159 C 
BRANCH  10  11
HETATM   11  N   UNK N   1      24.109  17.075   4.746  0.00  0.00    -0.225 N 
HETATM   12  C   UNK N   1      23.207  18.082   4.900  0.00  0.00     0.267 C 
HETATM   13  O   UNK N   1      22.578  18.193   5.944  0.00  0.00    -0.266 OA
BRANCH  12  14
HETATM   14  C   UNK N   1      23.037  19.065   3.814  0.00  0.00     0.079 C 
HETATM   15  C   UNK N   1      21.884  19.303   3.162  0.00  0.00    -0.076 C 
HETATM   16  C   UNK N   1      20.618  18.560   3.454  0.00  0.00     0.043 C 
BRANCH  15  17
HETATM   17  C   UNK N   1      21.848  20.404   2.154  0.00  0.00     0.059 C 
BRANCH  17  18
HETATM   18  C   UNK N   1      20.623  20.225   1.267  0.00  0.00     0.168 C 
BRANCH  18  19
HETATM   19  O   UNK N   1      20.831  20.845   0.038  0.00  0.00    -0.401 OA
HETATM   20  H   UNK N   1      20.516  21.743  -0.147  0.00  0.00     0.209 HD
ENDBRANCH  18  19
ENDBRANCH  17  18
ENDBRANCH  15  17
ENDBRANCH  12  14
BRANCH  11  21
HETATM   21  O   UNK N   1      24.810  16.950   3.610  0.00  0.00    -0.285 OA
ATOM     22  HO  UNK N   1      25.680  17.331   3.575  1.00  0.00     0.245 HD
ENDBRANCH  11  21
ENDBRANCH  10  11
ENDBRANCH   9  10
ENDBRANCH   8   9
ENDBRANCH   7   8
BRANCH   7  23
HETATM   23  C   UNK N   1      28.864  17.391   5.675  0.00  0.00     0.281 C 
HETATM   24  O   UNK N   1      29.274  16.951   4.611  0.00  0.00    -0.263 OA
BRANCH  23  25
HETATM   25  O   UNK N   1      29.766  17.688   6.636  0.00  0.00    -0.320 OA
BRANCH  25  26
HETATM   26  C   UNK N   1      30.702  16.816   7.165  0.00  0.00     0.183 C 
BRANCH  26  27
HETATM   27  C   UNK N   1      32.116  17.295   6.874  0.00  0.00     0.060 C 
BRANCH  27  28
HETATM   28  C   UNK N   1      32.660  16.195   6.067  0.00  0.00    -0.076 C 
HETATM   29  C   UNK N   1      33.199  15.005   6.805  0.00  0.00     0.043 C 
HETATM   30  C   UNK N   1      32.463  16.233   4.733  0.00  0.00     0.079 C 
BRANCH  30  31
HETATM   31  C   UNK N   1      32.650  15.043   3.897  0.00  0.00     0.267 C 
HETATM   32  N   UNK N   1      31.642  14.161   3.692  0.00  0.00    -0.225 N 
HETATM   33  O   UNK N   1      33.731  14.863   3.355  0.00  0.00    -0.266 OA
BRANCH  32  34
HETATM   34  C   UNK N   1      31.770  13.166   2.640  0.00  0.00     0.159 C 
BRANCH  34  35
HETATM   35  C   UNK N   1      30.507  12.241   2.474  0.00  0.00     0.025 C 
BRANCH  35  36
HETATM   36  C   UNK N   1      29.480  12.519   1.323  0.00  0.00     0.035 C 
BRANCH  36  37
HETATM   37  C   UNK N   1      28.116  12.790   1.915  0.00  0.00     0.158 C 
HETATM   38  C   UNK N   1      27.588  14.153   2.312  0.00  0.00     0.135 C 
HETATM   39  N   UNK N   1      26.369  14.191   2.772  0.00  0.00    -0.361 N 
HETATM   40  C   UNK N   1      25.629  12.927   2.884  0.00  0.00     0.158 C 
ATOM     41  HN  UNK N   1      25.940  15.076   3.045  1.00  0.00     0.162 HD
HETATM   42  C   UNK N   1      25.894  12.122   1.605  0.00  0.00     0.135 C 
HETATM   43  N   UNK N   1      27.098  12.100   1.161  0.00  0.00    -0.361 N 
ATOM     44  HN  UNK N   1      27.329  11.608   0.297  1.00  0.00     0.162 HD
BRANCH  38  45
HETATM   45  O   UNK N   1      28.325  15.276   2.208  0.00  0.00    -0.348 OA
HETATM   46  H   UNK N   1      28.508  16.159   1.953  0.00  0.00     0.219 HD
ENDBRANCH  38  45
BRANCH  40  47
HETATM   47  C   UNK N   1      24.184  13.115   3.324  0.00  0.00     0.035 C 
BRANCH  47  48
HETATM   48  C   UNK N   1      23.753  12.121   4.375  0.00  0.00     0.025 C 
BRANCH  48  49
HETATM   49  C   UNK N   1      22.852  12.866   5.334  0.00  0.00     0.159 C 
BRANCH  49  50
HETATM   50  N   UNK N   1      23.157  12.515   6.696  0.00  0.00    -0.225 N 
HETATM   51  C   UNK N   1      22.176  12.069   7.519  0.00  0.00     0.267 C 
HETATM   52  O   UNK N   1      21.039  11.938   7.082  0.00  0.00    -0.266 OA
BRANCH  51  53
HETATM   53  C   UNK N   1      22.480  11.753   8.945  0.00  0.00     0.079 C 
HETATM   54  C   UNK N   1      22.301  12.612   9.976  0.00  0.00    -0.076 C 
HETATM   55  C   UNK N   1      21.741  13.985   9.771  0.00  0.00     0.043 C 
BRANCH  54  56
HETATM   56  C   UNK N   1      22.614  12.222  11.401  0.00  0.00     0.059 C 
BRANCH  56  57
HETATM   57  C   UNK N   1      24.019  11.684  11.639  0.00  0.00     0.168 C 
BRANCH  57  58
HETATM   58  O   UNK N   1      24.938  12.730  11.578  0.00  0.00    -0.401 OA
HETATM   59  H   UNK N   1      25.263  13.474  12.108  0.00  0.00     0.209 HD
ENDBRANCH  57  58
ENDBRANCH  56  57
ENDBRANCH  54  56
ENDBRANCH  51  53
BRANCH  50  60
HETATM   60  O   UNK N   1      24.412  12.666   7.155  0.00  0.00    -0.285 OA
ATOM     61  HO  UNK N   1      25.064  12.002   6.966  1.00  0.00     0.245 HD
ENDBRANCH  50  60
ENDBRANCH  49  50
ENDBRANCH  48  49
ENDBRANCH  47  48
ENDBRANCH  40  47
BRANCH  42  62
HETATM   62  O   UNK N   1      24.937  11.468   0.933  0.00  0.00    -0.348 OA
HETATM   63  H   UNK N   1      24.396  10.770   1.247  0.00  0.00     0.219 HD
ENDBRANCH  42  62
ENDBRANCH  36  37
ENDBRANCH  35  36
ENDBRANCH  34  35
ENDBRANCH  32  34
BRANCH  32  64
HETATM   64  O   UNK N   1      30.451  14.333   4.295  0.00  0.00    -0.285 OA
ATOM     65  HO  UNK N   1      29.659  14.057   3.848  1.00  0.00     0.245 HD
ENDBRANCH  32  64
ENDBRANCH  30  31
ENDBRANCH  27  28
ENDBRANCH  26  27
ENDBRANCH  25  26
ENDBRANCH  23  25
ENDBRANCH   7  23
ENDBRANCH   3   7
TORSDOF 33
ENDMDL
