MODEL 1
REMARK VINA RESULT:      -5.9      0.000      0.000
REMARK  18 active torsions:
REMARK  status: ('A' for Active; 'I' for Inactive)
REMARK    1  A    between atoms: C_1  and  O_25 
REMARK    2  A    between atoms: C_2  and  O_26 
REMARK    3  A    between atoms: C_3  and  O_27 
REMARK    4  A    between atoms: C_4  and  O_28 
REMARK    5  A    between atoms: C_5  and  O_29 
REMARK    6  A    between atoms: C_6  and  O_30 
REMARK    7  A    between atoms: S_31  and  O_7 
REMARK    8  A    between atoms: S_32  and  O_10 
REMARK    9  A    between atoms: S_33  and  O_13 
REMARK   10  A    between atoms: S_34  and  O_16 
REMARK   11  A    between atoms: S_35  and  O_19 
REMARK   12  A    between atoms: S_36  and  O_22 
REMARK   13  A    between atoms: S_31  and  O_25 
REMARK   14  A    between atoms: S_32  and  O_26 
REMARK   15  A    between atoms: S_33  and  O_27 
REMARK   16  A    between atoms: S_34  and  O_28 
REMARK   17  A    between atoms: S_35  and  O_29 
REMARK   18  A    between atoms: S_36  and  O_30 
ROOT
HETATM    1  C   UNK N   1      23.650  17.880   4.045  0.00  0.00     0.210 C 
HETATM    2  C   UNK N   1      22.146  18.002   4.404  0.00  0.00     0.210 C 
HETATM    3  C   UNK N   1      24.079  16.411   3.813  0.00  0.00     0.210 C 
HETATM    4  C   UNK N   1      21.768  17.066   5.578  0.00  0.00     0.210 C 
HETATM    5  C   UNK N   1      23.714  15.505   5.030  0.00  0.00     0.210 C 
HETATM    6  C   UNK N   1      22.190  15.579   5.326  0.00  0.00     0.210 C 
ENDROOT
BRANCH   1   7
HETATM    7  O   UNK N   1      23.910  18.615   2.866  0.00  0.00    -0.253 OA
BRANCH   7   8
HETATM    8  S   UNK N   1      24.385  20.239   3.232  0.00  0.00     0.240 S 
HETATM    9  O   UNK N   1      24.967  20.318   4.652  0.00  0.00    -0.579 OA
HETATM   10  O   UNK N   1      25.516  20.692   2.297  0.00  0.00    -0.579 OA
BRANCH   8  11
HETATM   11  O   UNK N   1      23.100  21.371   3.107  0.00  0.00    -0.274 OA
HETATM   12  H   UNK N   1      22.883  22.117   3.688  0.00  0.00     0.234 HD
ENDBRANCH   8  11
ENDBRANCH   7   8
ENDBRANCH   1   7
BRANCH   2  13
HETATM   13  O   UNK N   1      21.364  17.715   3.262  0.00  0.00    -0.253 OA
BRANCH  13  14
HETATM   14  S   UNK N   1      20.372  19.086   2.864  0.00  0.00     0.240 S 
HETATM   15  O   UNK N   1      20.500  20.121   3.990  0.00  0.00    -0.579 OA
HETATM   16  O   UNK N   1      20.939  19.818   1.636  0.00  0.00    -0.579 OA
BRANCH  14  17
HETATM   17  O   UNK N   1      18.707  18.754   2.619  0.00  0.00    -0.274 OA
HETATM   18  H   UNK N   1      18.437  18.015   2.051  0.00  0.00     0.234 HD
ENDBRANCH  14  17
ENDBRANCH  13  14
ENDBRANCH   2  13
BRANCH   3  19
HETATM   19  O   UNK N   1      25.437  16.347   3.386  0.00  0.00    -0.253 OA
BRANCH  19  20
HETATM   20  S   UNK N   1      26.583  17.101   4.455  0.00  0.00     0.240 S 
HETATM   21  O   UNK N   1      27.346  18.252   3.786  0.00  0.00    -0.579 OA
HETATM   22  O   UNK N   1      27.688  16.068   4.727  0.00  0.00    -0.579 OA
BRANCH  20  23
HETATM   23  O   UNK N   1      25.976  17.600   5.981  0.00  0.00    -0.274 OA
HETATM   24  H   UNK N   1      26.576  17.863   6.695  0.00  0.00     0.234 HD
ENDBRANCH  20  23
ENDBRANCH  19  20
ENDBRANCH   3  19
BRANCH   4  25
HETATM   25  O   UNK N   1      20.429  17.280   6.012  0.00  0.00    -0.253 OA
BRANCH  25  26
HETATM   26  S   UNK N   1      20.164  17.414   7.730  0.00  0.00     0.240 S 
HETATM   27  O   UNK N   1      20.320  18.843   8.270  0.00  0.00    -0.579 OA
HETATM   28  O   UNK N   1      18.726  17.005   8.074  0.00  0.00    -0.579 OA
BRANCH  26  29
HETATM   29  O   UNK N   1      21.215  16.404   8.637  0.00  0.00    -0.274 OA
HETATM   30  H   UNK N   1      21.032  16.216   9.571  0.00  0.00     0.234 HD
ENDBRANCH  26  29
ENDBRANCH  25  26
ENDBRANCH   4  25
BRANCH   5  31
HETATM   31  O   UNK N   1      24.185  14.167   4.967  0.00  0.00    -0.253 OA
BRANCH  31  32
HETATM   32  S   UNK N   1      25.426  13.775   6.113  0.00  0.00     0.240 S 
HETATM   33  O   UNK N   1      24.905  12.577   6.921  0.00  0.00    -0.579 OA
HETATM   34  O   UNK N   1      25.557  14.871   7.182  0.00  0.00    -0.579 OA
BRANCH  32  35
HETATM   35  O   UNK N   1      26.967  13.330   5.505  0.00  0.00    -0.274 OA
HETATM   36  H   UNK N   1      27.667  13.842   5.071  0.00  0.00     0.234 HD
ENDBRANCH  32  35
ENDBRANCH  31  32
ENDBRANCH   5  31
BRANCH   6  37
HETATM   37  O   UNK N   1      21.791  14.698   6.358  0.00  0.00    -0.253 OA
BRANCH  37  38
HETATM   38  S   UNK N   1      20.671  13.503   5.801  0.00  0.00     0.240 S 
HETATM   39  O   UNK N   1      20.586  12.273   6.717  0.00  0.00    -0.579 OA
HETATM   40  O   UNK N   1      19.248  14.033   5.574  0.00  0.00    -0.579 OA
BRANCH  38  41
HETATM   41  O   UNK N   1      20.175  14.131   7.320  0.00  0.00    -0.274 OA
HETATM   42  H   UNK N   1      19.287  14.022   7.696  0.00  0.00     0.234 HD
ENDBRANCH  38  41
ENDBRANCH  37  38
ENDBRANCH   6  37
TORSDOF 18
ENDMDL
MODEL 2
REMARK VINA RESULT:      -5.9      5.923      9.733
REMARK  18 active torsions:
REMARK  status: ('A' for Active; 'I' for Inactive)
REMARK    1  A    between atoms: C_1  and  O_25 
REMARK    2  A    between atoms: C_2  and  O_26 
REMARK    3  A    between atoms: C_3  and  O_27 
REMARK    4  A    between atoms: C_4  and  O_28 
REMARK    5  A    between atoms: C_5  and  O_29 
REMARK    6  A    between atoms: C_6  and  O_30 
REMARK    7  A    between atoms: S_31  and  O_7 
REMARK    8  A    between atoms: S_32  and  O_10 
REMARK    9  A    between atoms: S_33  and  O_13 
REMARK   10  A    between atoms: S_34  and  O_16 
REMARK   11  A    between atoms: S_35  and  O_19 
REMARK   12  A    between atoms: S_36  and  O_22 
REMARK   13  A    between atoms: S_31  and  O_25 
REMARK   14  A    between atoms: S_32  and  O_26 
REMARK   15  A    between atoms: S_33  and  O_27 
REMARK   16  A    between atoms: S_34  and  O_28 
REMARK   17  A    between atoms: S_35  and  O_29 
REMARK   18  A    between atoms: S_36  and  O_30 
ROOT
HETATM    1  C   UNK N   1      29.477  16.933   6.144  0.00  0.00     0.210 C 
HETATM    2  C   UNK N   1      30.317  17.311   7.391  0.00  0.00     0.210 C 
HETATM    3  C   UNK N   1      29.616  15.436   5.776  0.00  0.00     0.210 C 
HETATM    4  C   UNK N   1      31.789  16.857   7.238  0.00  0.00     0.210 C 
HETATM    5  C   UNK N   1      31.110  15.024   5.596  0.00  0.00     0.210 C 
HETATM    6  C   UNK N   1      31.921  15.338   6.884  0.00  0.00     0.210 C 
ENDROOT
BRANCH   1   7
HETATM    7  O   UNK N   1      28.114  17.207   6.399  0.00  0.00    -0.253 OA
BRANCH   7   8
HETATM    8  S   UNK N   1      27.652  18.745   5.750  0.00  0.00     0.240 S 
HETATM    9  O   UNK N   1      26.195  18.704   5.264  0.00  0.00    -0.579 OA
HETATM   10  O   UNK N   1      27.692  19.823   6.843  0.00  0.00    -0.579 OA
BRANCH   8  11
HETATM   11  O   UNK N   1      28.644  19.263   4.449  0.00  0.00    -0.274 OA
HETATM   12  H   UNK N   1      28.407  19.790   3.669  0.00  0.00     0.234 HD
ENDBRANCH   8  11
ENDBRANCH   7   8
ENDBRANCH   1   7
BRANCH   2  13
HETATM   13  O   UNK N   1      29.733  16.738   8.544  0.00  0.00    -0.253 OA
BRANCH  13  14
HETATM   14  S   UNK N   1      29.116  17.990   9.580  0.00  0.00     0.240 S 
HETATM   15  O   UNK N   1      29.264  17.533  11.037  0.00  0.00    -0.579 OA
HETATM   16  O   UNK N   1      30.010  19.240   9.501  0.00  0.00    -0.579 OA
BRANCH  14  17
HETATM   17  O   UNK N   1      27.480  18.436   9.316  0.00  0.00    -0.274 OA
HETATM   18  H   UNK N   1      26.818  18.286  10.009  0.00  0.00     0.234 HD
ENDBRANCH  14  17
ENDBRANCH  13  14
ENDBRANCH   2  13
BRANCH   3  19
HETATM   19  O   UNK N   1      28.753  15.104   4.692  0.00  0.00    -0.253 OA
BRANCH  19  20
HETATM   20  S   UNK N   1      28.989  16.043   3.247  0.00  0.00     0.240 S 
HETATM   21  O   UNK N   1      27.756  16.879   2.877  0.00  0.00    -0.579 OA
HETATM   22  O   UNK N   1      29.093  15.049   2.079  0.00  0.00    -0.579 OA
BRANCH  20  23
HETATM   23  O   UNK N   1      30.402  17.017   3.202  0.00  0.00    -0.274 OA
HETATM   24  H   UNK N   1      30.477  17.759   2.584  0.00  0.00     0.234 HD
ENDBRANCH  20  23
ENDBRANCH  19  20
ENDBRANCH   3  19
BRANCH   4  25
HETATM   25  O   UNK N   1      32.600  17.331   8.310  0.00  0.00    -0.253 OA
BRANCH  25  26
HETATM   26  S   UNK N   1      34.249  17.748   7.930  0.00  0.00     0.240 S 
HETATM   27  O   UNK N   1      34.621  19.192   8.297  0.00  0.00    -0.579 OA
HETATM   28  O   UNK N   1      35.213  16.865   8.734  0.00  0.00    -0.579 OA
BRANCH  26  29
HETATM   29  O   UNK N   1      34.618  17.528   6.268  0.00  0.00    -0.274 OA
HETATM   30  H   UNK N   1      34.304  16.741   5.795  0.00  0.00     0.234 HD
ENDBRANCH  26  29
ENDBRANCH  25  26
ENDBRANCH   4  25
BRANCH   5  31
HETATM   31  O   UNK N   1      31.334  13.702   5.127  0.00  0.00    -0.253 OA
BRANCH  31  32
HETATM   32  S   UNK N   1      32.018  13.596   3.538  0.00  0.00     0.240 S 
HETATM   33  O   UNK N   1      33.312  12.780   3.678  0.00  0.00    -0.579 OA
HETATM   34  O   UNK N   1      32.533  14.964   3.065  0.00  0.00    -0.579 OA
BRANCH  32  35
HETATM   35  O   UNK N   1      31.086  12.839   2.313  0.00  0.00    -0.274 OA
HETATM   36  H   UNK N   1      30.159  12.939   2.048  0.00  0.00     0.234 HD
ENDBRANCH  32  35
ENDBRANCH  31  32
ENDBRANCH   5  31
BRANCH   6  37
HETATM   37  O   UNK N   1      33.260  14.890   6.809  0.00  0.00    -0.253 OA
BRANCH  37  38
HETATM   38  S   UNK N   1      33.629  13.718   8.026  0.00  0.00     0.240 S 
HETATM   39  O   UNK N   1      32.829  12.415   7.880  0.00  0.00    -0.579 OA
HETATM   40  O   UNK N   1      35.119  13.360   8.122  0.00  0.00    -0.579 OA
BRANCH  38  41
HETATM   41  O   UNK N   1      34.052  13.124   6.471  0.00  0.00    -0.274 OA
HETATM   42  H   UNK N   1      33.960  13.628   5.647  0.00  0.00     0.234 HD
ENDBRANCH  38  41
ENDBRANCH  37  38
ENDBRANCH   6  37
TORSDOF 18
ENDMDL
MODEL 3
REMARK VINA RESULT:      -5.7      5.699     10.156
REMARK  18 active torsions:
REMARK  status: ('A' for Active; 'I' for Inactive)
REMARK    1  A    between atoms: C_1  and  O_25 
REMARK    2  A    between atoms: C_2  and  O_26 
REMARK    3  A    between atoms: C_3  and  O_27 
REMARK    4  A    between atoms: C_4  and  O_28 
REMARK    5  A    between atoms: C_5  and  O_29 
REMARK    6  A    between atoms: C_6  and  O_30 
REMARK    7  A    between atoms: S_31  and  O_7 
REMARK    8  A    between atoms: S_32  and  O_10 
REMARK    9  A    between atoms: S_33  and  O_13 
REMARK   10  A    between atoms: S_34  and  O_16 
REMARK   11  A    between atoms: S_35  and  O_19 
REMARK   12  A    between atoms: S_36  and  O_22 
REMARK   13  A    between atoms: S_31  and  O_25 
REMARK   14  A    between atoms: S_32  and  O_26 
REMARK   15  A    between atoms: S_33  and  O_27 
REMARK   16  A    between atoms: S_34  and  O_28 
REMARK   17  A    between atoms: S_35  and  O_29 
REMARK   18  A    between atoms: S_36  and  O_30 
ROOT
HETATM    1  C   UNK N   1      31.727  16.664   6.907  0.00  0.00     0.210 C 
HETATM    2  C   UNK N   1      31.926  15.276   6.245  0.00  0.00     0.210 C 
HETATM    3  C   UNK N   1      30.254  16.914   7.311  0.00  0.00     0.210 C 
HETATM    4  C   UNK N   1      30.930  15.059   5.079  0.00  0.00     0.210 C 
HETATM    5  C   UNK N   1      29.285  16.720   6.104  0.00  0.00     0.210 C 
HETATM    6  C   UNK N   1      29.442  15.296   5.502  0.00  0.00     0.210 C 
ENDROOT
BRANCH   1   7
HETATM    7  O   UNK N   1      32.531  16.748   8.066  0.00  0.00    -0.253 OA
BRANCH   7   8
HETATM    8  S   UNK N   1      34.143  17.248   7.677  0.00  0.00     0.240 S 
HETATM    9  O   UNK N   1      34.187  17.854   6.265  0.00  0.00    -0.579 OA
HETATM   10  O   UNK N   1      34.601  18.368   8.622  0.00  0.00    -0.579 OA
BRANCH   8  11
HETATM   11  O   UNK N   1      35.290  15.974   7.757  0.00  0.00    -0.274 OA
HETATM   12  H   UNK N   1      36.197  15.943   7.413  0.00  0.00     0.234 HD
ENDBRANCH   8  11
ENDBRANCH   7   8
ENDBRANCH   1   7
BRANCH   2  13
HETATM   13  O   UNK N   1      31.783  14.264   7.220  0.00  0.00    -0.253 OA
BRANCH  13  14
HETATM   14  S   UNK N   1      33.247  13.331   7.323  0.00  0.00     0.240 S 
HETATM   15  O   UNK N   1      33.828  13.492   8.734  0.00  0.00    -0.579 OA
HETATM   16  O   UNK N   1      32.933  11.828   7.232  0.00  0.00    -0.579 OA
BRANCH  14  17
HETATM   17  O   UNK N   1      34.468  13.733   6.186  0.00  0.00    -0.274 OA
HETATM   18  H   UNK N   1      35.226  14.275   6.458  0.00  0.00     0.234 HD
ENDBRANCH  14  17
ENDBRANCH  13  14
ENDBRANCH   2  13
BRANCH   3  19
HETATM   19  O   UNK N   1      30.128  18.151   8.007  0.00  0.00    -0.253 OA
BRANCH  19  20
HETATM   20  S   UNK N   1      29.188  18.083   9.469  0.00  0.00     0.240 S 
HETATM   21  O   UNK N   1      29.698  19.052  10.545  0.00  0.00    -0.579 OA
HETATM   22  O   UNK N   1      29.440  16.705  10.100  0.00  0.00    -0.579 OA
BRANCH  20  23
HETATM   23  O   UNK N   1      27.489  18.246   9.281  0.00  0.00    -0.274 OA
HETATM   24  H   UNK N   1      27.093  18.359   8.403  0.00  0.00     0.234 HD
ENDBRANCH  20  23
ENDBRANCH  19  20
ENDBRANCH   3  19
BRANCH   4  25
HETATM   25  O   UNK N   1      31.204  13.854   4.371  0.00  0.00    -0.253 OA
BRANCH  25  26
HETATM   26  S   UNK N   1      32.448  13.917   3.151  0.00  0.00     0.240 S 
HETATM   27  O   UNK N   1      33.778  13.289   3.591  0.00  0.00    -0.579 OA
HETATM   28  O   UNK N   1      32.013  13.118   1.915  0.00  0.00    -0.579 OA
BRANCH  26  29
HETATM   29  O   UNK N   1      32.781  15.520   2.634  0.00  0.00    -0.274 OA
HETATM   30  H   UNK N   1      33.504  15.695   2.011  0.00  0.00     0.234 HD
ENDBRANCH  26  29
ENDBRANCH  25  26
ENDBRANCH   4  25
BRANCH   5  31
HETATM   31  O   UNK N   1      27.925  17.056   6.344  0.00  0.00    -0.253 OA
BRANCH  31  32
HETATM   32  S   UNK N   1      27.416  18.567   5.663  0.00  0.00     0.240 S 
HETATM   33  O   UNK N   1      26.260  18.241   4.705  0.00  0.00    -0.579 OA
HETATM   34  O   UNK N   1      28.485  19.138   4.719  0.00  0.00    -0.579 OA
BRANCH  32  35
HETATM   35  O   UNK N   1      26.843  19.777   6.736  0.00  0.00    -0.274 OA
HETATM   36  H   UNK N   1      27.304  20.441   7.271  0.00  0.00     0.234 HD
ENDBRANCH  32  35
ENDBRANCH  31  32
ENDBRANCH   5  31
BRANCH   6  37
HETATM   37  O   UNK N   1      28.513  15.035   4.468  0.00  0.00    -0.253 OA
BRANCH  37  38
HETATM   38  S   UNK N   1      27.397  13.783   4.890  0.00  0.00     0.240 S 
HETATM   39  O   UNK N   1      26.511  14.137   6.094  0.00  0.00    -0.579 OA
HETATM   40  O   UNK N   1      26.487  13.338   3.737  0.00  0.00    -0.579 OA
BRANCH  38  41
HETATM   41  O   UNK N   1      26.557  15.200   4.405  0.00  0.00    -0.274 OA
HETATM   42  H   UNK N   1      25.659  15.431   4.692  0.00  0.00     0.234 HD
ENDBRANCH  38  41
ENDBRANCH  37  38
ENDBRANCH   6  37
TORSDOF 18
ENDMDL
MODEL 4
REMARK VINA RESULT:      -5.6      5.173      8.924
REMARK  18 active torsions:
REMARK  status: ('A' for Active; 'I' for Inactive)
REMARK    1  A    between atoms: C_1  and  O_25 
REMARK    2  A    between atoms: C_2  and  O_26 
REMARK    3  A    between atoms: C_3  and  O_27 
REMARK    4  A    between atoms: C_4  and  O_28 
REMARK    5  A    between atoms: C_5  and  O_29 
REMARK    6  A    between atoms: C_6  and  O_30 
REMARK    7  A    between atoms: S_31  and  O_7 
REMARK    8  A    between atoms: S_32  and  O_10 
REMARK    9  A    between atoms: S_33  and  O_13 
REMARK   10  A    between atoms: S_34  and  O_16 
REMARK   11  A    between atoms: S_35  and  O_19 
REMARK   12  A    between atoms: S_36  and  O_22 
REMARK   13  A    between atoms: S_31  and  O_25 
REMARK   14  A    between atoms: S_32  and  O_26 
REMARK   15  A    between atoms: S_33  and  O_27 
REMARK   16  A    between atoms: S_34  and  O_28 
REMARK   17  A    between atoms: S_35  and  O_29 
REMARK   18  A    between atoms: S_36  and  O_30 
ROOT
HETATM    1  C   UNK N   1      28.980  18.051   5.418  0.00  0.00     0.210 C 
HETATM    2  C   UNK N   1      29.766  17.750   6.720  0.00  0.00     0.210 C 
HETATM    3  C   UNK N   1      28.936  16.831   4.465  0.00  0.00     0.210 C 
HETATM    4  C   UNK N   1      31.168  17.168   6.411  0.00  0.00     0.210 C 
HETATM    5  C   UNK N   1      30.367  16.296   4.149  0.00  0.00     0.210 C 
HETATM    6  C   UNK N   1      31.112  15.925   5.462  0.00  0.00     0.210 C 
ENDROOT
BRANCH   1   7
HETATM    7  O   UNK N   1      27.654  18.411   5.746  0.00  0.00    -0.253 OA
BRANCH   7   8
HETATM    8  S   UNK N   1      27.250  19.968   5.103  0.00  0.00     0.240 S 
HETATM    9  O   UNK N   1      25.731  20.190   5.156  0.00  0.00    -0.579 OA
HETATM   10  O   UNK N   1      27.859  21.081   5.969  0.00  0.00    -0.579 OA
BRANCH   8  11
HETATM   11  O   UNK N   1      27.777  20.196   3.486  0.00  0.00    -0.274 OA
HETATM   12  H   UNK N   1      27.314  19.998   2.657  0.00  0.00     0.234 HD
ENDBRANCH   8  11
ENDBRANCH   7   8
ENDBRANCH   1   7
BRANCH   2  13
HETATM   13  O   UNK N   1      29.021  16.858   7.525  0.00  0.00    -0.253 OA
BRANCH  13  14
HETATM   14  S   UNK N   1      28.396  17.698   8.913  0.00  0.00     0.240 S 
HETATM   15  O   UNK N   1      27.507  16.730   9.707  0.00  0.00    -0.579 OA
HETATM   16  O   UNK N   1      29.532  18.031   9.895  0.00  0.00    -0.579 OA
BRANCH  14  17
HETATM   17  O   UNK N   1      27.489  19.117   8.580  0.00  0.00    -0.274 OA
HETATM   18  H   UNK N   1      27.405  19.809   9.254  0.00  0.00     0.234 HD
ENDBRANCH  14  17
ENDBRANCH  13  14
ENDBRANCH   2  13
BRANCH   3  19
HETATM   19  O   UNK N   1      28.121  17.111   3.330  0.00  0.00    -0.253 OA
BRANCH  19  20
HETATM   20  S   UNK N   1      26.573  16.317   3.319  0.00  0.00     0.240 S 
HETATM   21  O   UNK N   1      25.404  17.301   3.469  0.00  0.00    -0.579 OA
HETATM   22  O   UNK N   1      26.489  15.484   4.608  0.00  0.00    -0.579 OA
BRANCH  20  23
HETATM   23  O   UNK N   1      26.284  15.247   2.009  0.00  0.00    -0.274 OA
HETATM   24  H   UNK N   1      27.019  14.853   1.515  0.00  0.00     0.234 HD
ENDBRANCH  20  23
ENDBRANCH  19  20
ENDBRANCH   3  19
BRANCH   4  25
HETATM   25  O   UNK N   1      31.952  17.030   7.592  0.00  0.00    -0.253 OA
BRANCH  25  26
HETATM   26  S   UNK N   1      33.617  17.536   7.501  0.00  0.00     0.240 S 
HETATM   27  O   UNK N   1      34.080  17.887   6.079  0.00  0.00    -0.579 OA
HETATM   28  O   UNK N   1      33.823  18.817   8.321  0.00  0.00    -0.579 OA
BRANCH  26  29
HETATM   29  O   UNK N   1      34.699  16.354   8.117  0.00  0.00    -0.274 OA
HETATM   30  H   UNK N   1      34.519  15.917   8.965  0.00  0.00     0.234 HD
ENDBRANCH  26  29
ENDBRANCH  25  26
ENDBRANCH   4  25
BRANCH   5  31
HETATM   31  O   UNK N   1      30.439  15.260   3.179  0.00  0.00    -0.253 OA
BRANCH  31  32
HETATM   32  S   UNK N   1      29.526  13.837   3.561  0.00  0.00     0.240 S 
HETATM   33  O   UNK N   1      30.509  12.659   3.481  0.00  0.00    -0.579 OA
HETATM   34  O   UNK N   1      28.518  13.510   2.448  0.00  0.00    -0.579 OA
BRANCH  32  35
HETATM   35  O   UNK N   1      28.777  13.754   5.103  0.00  0.00    -0.274 OA
HETATM   36  H   UNK N   1      29.069  13.374   5.946  0.00  0.00     0.234 HD
ENDBRANCH  32  35
ENDBRANCH  31  32
ENDBRANCH   5  31
BRANCH   6  37
HETATM   37  O   UNK N   1      32.377  15.339   5.224  0.00  0.00    -0.253 OA
BRANCH  37  38
HETATM   38  S   UNK N   1      32.569  13.836   6.057  0.00  0.00     0.240 S 
HETATM   39  O   UNK N   1      33.387  12.802   5.269  0.00  0.00    -0.579 OA
HETATM   40  O   UNK N   1      33.184  13.967   7.458  0.00  0.00    -0.579 OA
BRANCH  38  41
HETATM   41  O   UNK N   1      34.094  14.587   5.813  0.00  0.00    -0.274 OA
HETATM   42  H   UNK N   1      34.914  14.111   5.607  0.00  0.00     0.234 HD
ENDBRANCH  38  41
ENDBRANCH  37  38
ENDBRANCH   6  37
TORSDOF 18
ENDMDL
MODEL 5
REMARK VINA RESULT:      -5.4     12.533     14.804
REMARK  18 active torsions:
REMARK  status: ('A' for Active; 'I' for Inactive)
REMARK    1  A    between atoms: C_1  and  O_25 
REMARK    2  A    between atoms: C_2  and  O_26 
REMARK    3  A    between atoms: C_3  and  O_27 
REMARK    4  A    between atoms: C_4  and  O_28 
REMARK    5  A    between atoms: C_5  and  O_29 
REMARK    6  A    between atoms: C_6  and  O_30 
REMARK    7  A    between atoms: S_31  and  O_7 
REMARK    8  A    between atoms: S_32  and  O_10 
REMARK    9  A    between atoms: S_33  and  O_13 
REMARK   10  A    between atoms: S_34  and  O_16 
REMARK   11  A    between atoms: S_35  and  O_19 
REMARK   12  A    between atoms: S_36  and  O_22 
REMARK   13  A    between atoms: S_31  and  O_25 
REMARK   14  A    between atoms: S_32  and  O_26 
REMARK   15  A    between atoms: S_33  and  O_27 
REMARK   16  A    between atoms: S_34  and  O_28 
REMARK   17  A    between atoms: S_35  and  O_29 
REMARK   18  A    between atoms: S_36  and  O_30 
ROOT
HETATM    1  C   UNK N   1      28.025  25.238  -5.123  0.00  0.00     0.210 C 
HETATM    2  C   UNK N   1      27.589  24.562  -6.448  0.00  0.00     0.210 C 
HETATM    3  C   UNK N   1      29.498  24.925  -4.763  0.00  0.00     0.210 C 
HETATM    4  C   UNK N   1      27.904  23.046  -6.439  0.00  0.00     0.210 C 
HETATM    5  C   UNK N   1      29.769  23.389  -4.730  0.00  0.00     0.210 C 
HETATM    6  C   UNK N   1      29.399  22.741  -6.093  0.00  0.00     0.210 C 
ENDROOT
BRANCH   1   7
HETATM    7  O   UNK N   1      27.880  26.638  -5.242  0.00  0.00    -0.253 OA
BRANCH   7   8
HETATM    8  S   UNK N   1      26.790  27.260  -4.049  0.00  0.00     0.240 S 
HETATM    9  O   UNK N   1      27.441  28.424  -3.286  0.00  0.00    -0.579 OA
HETATM   10  O   UNK N   1      25.542  27.853  -4.719  0.00  0.00    -0.579 OA
BRANCH   8  11
HETATM   11  O   UNK N   1      26.281  26.081  -2.910  0.00  0.00    -0.274 OA
HETATM   12  H   UNK N   1      26.114  25.135  -3.041  0.00  0.00     0.234 HD
ENDBRANCH   8  11
ENDBRANCH   7   8
ENDBRANCH   1   7
BRANCH   2  13
HETATM   13  O   UNK N   1      28.228  25.200  -7.535  0.00  0.00    -0.253 OA
BRANCH  13  14
HETATM   14  S   UNK N   1      27.096  26.220  -8.371  0.00  0.00     0.240 S 
HETATM   15  O   UNK N   1      27.787  27.552  -8.693  0.00  0.00    -0.579 OA
HETATM   16  O   UNK N   1      26.771  25.638  -9.758  0.00  0.00    -0.579 OA
BRANCH  14  17
HETATM   17  O   UNK N   1      25.636  26.556  -7.533  0.00  0.00    -0.274 OA
HETATM   18  H   UNK N   1      25.191  25.854  -7.033  0.00  0.00     0.234 HD
ENDBRANCH  14  17
ENDBRANCH  13  14
ENDBRANCH   2  13
BRANCH   3  19
HETATM   19  O   UNK N   1      29.893  25.644  -3.598  0.00  0.00    -0.253 OA
BRANCH  19  20
HETATM   20  S   UNK N   1      30.918  27.019  -3.891  0.00  0.00     0.240 S 
HETATM   21  O   UNK N   1      32.268  26.628  -4.508  0.00  0.00    -0.579 OA
HETATM   22  O   UNK N   1      31.317  27.580  -2.518  0.00  0.00    -0.579 OA
BRANCH  20  23
HETATM   23  O   UNK N   1      30.213  28.310  -4.775  0.00  0.00    -0.274 OA
HETATM   24  H   UNK N   1      30.546  29.216  -4.686  0.00  0.00     0.234 HD
ENDBRANCH  20  23
ENDBRANCH  19  20
ENDBRANCH   3  19
BRANCH   4  25
HETATM   25  O   UNK N   1      27.372  22.391  -7.587  0.00  0.00    -0.253 OA
BRANCH  25  26
HETATM   26  S   UNK N   1      25.637  22.259  -7.691  0.00  0.00     0.240 S 
HETATM   27  O   UNK N   1      25.154  20.941  -8.314  0.00  0.00    -0.579 OA
HETATM   28  O   UNK N   1      25.022  22.292  -6.285  0.00  0.00    -0.579 OA
BRANCH  26  29
HETATM   29  O   UNK N   1      24.933  23.542  -8.589  0.00  0.00    -0.274 OA
HETATM   30  H   UNK N   1      25.365  23.876  -9.391  0.00  0.00     0.234 HD
ENDBRANCH  26  29
ENDBRANCH  25  26
ENDBRANCH   4  25
BRANCH   5  31
HETATM   31  O   UNK N   1      31.059  22.999  -4.280  0.00  0.00    -0.253 OA
BRANCH  31  32
HETATM   32  S   UNK N   1      31.076  22.108  -2.793  0.00  0.00     0.240 S 
HETATM   33  O   UNK N   1      30.081  20.951  -2.971  0.00  0.00    -0.579 OA
HETATM   34  O   UNK N   1      30.445  22.923  -1.653  0.00  0.00    -0.579 OA
BRANCH  32  35
HETATM   35  O   UNK N   1      32.562  21.411  -2.293  0.00  0.00    -0.274 OA
HETATM   36  H   UNK N   1      33.059  20.642  -2.614  0.00  0.00     0.234 HD
ENDBRANCH  32  35
ENDBRANCH  31  32
ENDBRANCH   5  31
BRANCH   6  37
HETATM   37  O   UNK N   1      29.722  21.364  -6.148  0.00  0.00    -0.253 OA
BRANCH  37  38
HETATM   38  S   UNK N   1      30.948  21.025  -7.320  0.00  0.00     0.240 S 
HETATM   39  O   UNK N   1      32.314  21.631  -6.965  0.00  0.00    -0.579 OA
HETATM   40  O   UNK N   1      31.145  19.530  -7.608  0.00  0.00    -0.579 OA
BRANCH  38  41
HETATM   41  O   UNK N   1      31.351  20.322  -5.806  0.00  0.00    -0.274 OA
HETATM   42  H   UNK N   1      31.944  19.562  -5.694  0.00  0.00     0.234 HD
ENDBRANCH  38  41
ENDBRANCH  37  38
ENDBRANCH   6  37
TORSDOF 18
ENDMDL
MODEL 6
REMARK VINA RESULT:      -5.4      1.253      6.230
REMARK  18 active torsions:
REMARK  status: ('A' for Active; 'I' for Inactive)
REMARK    1  A    between atoms: C_1  and  O_25 
REMARK    2  A    between atoms: C_2  and  O_26 
REMARK    3  A    between atoms: C_3  and  O_27 
REMARK    4  A    between atoms: C_4  and  O_28 
REMARK    5  A    between atoms: C_5  and  O_29 
REMARK    6  A    between atoms: C_6  and  O_30 
REMARK    7  A    between atoms: S_31  and  O_7 
REMARK    8  A    between atoms: S_32  and  O_10 
REMARK    9  A    between atoms: S_33  and  O_13 
REMARK   10  A    between atoms: S_34  and  O_16 
REMARK   11  A    between atoms: S_35  and  O_19 
REMARK   12  A    between atoms: S_36  and  O_22 
REMARK   13  A    between atoms: S_31  and  O_25 
REMARK   14  A    between atoms: S_32  and  O_26 
REMARK   15  A    between atoms: S_33  and  O_27 
REMARK   16  A    between atoms: S_34  and  O_28 
REMARK   17  A    between atoms: S_35  and  O_29 
REMARK   18  A    between atoms: S_36  and  O_30 
ROOT
HETATM    1  C   UNK N   1      21.973  16.996   6.225  0.00  0.00     0.210 C 
HETATM    2  C   UNK N   1      22.238  15.469   6.189  0.00  0.00     0.210 C 
HETATM    3  C   UNK N   1      22.528  17.716   4.972  0.00  0.00     0.210 C 
HETATM    4  C   UNK N   1      23.733  15.162   5.924  0.00  0.00     0.210 C 
HETATM    5  C   UNK N   1      24.044  17.412   4.758  0.00  0.00     0.210 C 
HETATM    6  C   UNK N   1      24.281  15.880   4.646  0.00  0.00     0.210 C 
ENDROOT
BRANCH   1   7
HETATM    7  O   UNK N   1      20.580  17.227   6.293  0.00  0.00    -0.253 OA
BRANCH   7   8
HETATM    8  S   UNK N   1      20.012  17.153   7.928  0.00  0.00     0.240 S 
HETATM    9  O   UNK N   1      19.895  18.568   8.517  0.00  0.00    -0.579 OA
HETATM   10  O   UNK N   1      18.594  16.566   7.978  0.00  0.00    -0.579 OA
BRANCH   8  11
HETATM   11  O   UNK N   1      21.017  16.217   8.958  0.00  0.00    -0.274 OA
HETATM   12  H   UNK N   1      20.844  15.353   9.362  0.00  0.00     0.234 HD
ENDBRANCH   8  11
ENDBRANCH   7   8
ENDBRANCH   1   7
BRANCH   2  13
HETATM   13  O   UNK N   1      21.422  14.872   5.202  0.00  0.00    -0.253 OA
BRANCH  13  14
HETATM   14  S   UNK N   1      20.411  13.657   5.927  0.00  0.00     0.240 S 
HETATM   15  O   UNK N   1      19.049  13.672   5.219  0.00  0.00    -0.579 OA
HETATM   16  O   UNK N   1      20.960  12.252   5.623  0.00  0.00    -0.579 OA
BRANCH  14  17
HETATM   17  O   UNK N   1      20.147  13.818   7.615  0.00  0.00    -0.274 OA
HETATM   18  H   UNK N   1      20.785  14.302   8.162  0.00  0.00     0.234 HD
ENDBRANCH  14  17
ENDBRANCH  13  14
ENDBRANCH   2  13
BRANCH   3  19
HETATM   19  O   UNK N   1      22.177  19.097   4.991  0.00  0.00    -0.253 OA
BRANCH  19  20
HETATM   20  S   UNK N   1      21.514  19.710   3.504  0.00  0.00     0.240 S 
HETATM   21  O   UNK N   1      20.301  20.623   3.730  0.00  0.00    -0.579 OA
HETATM   22  O   UNK N   1      20.907  18.512   2.757  0.00  0.00    -0.579 OA
BRANCH  20  23
HETATM   23  O   UNK N   1      22.628  20.457   2.433  0.00  0.00    -0.274 OA
HETATM   24  H   UNK N   1      23.276  19.931   1.940  0.00  0.00     0.234 HD
ENDBRANCH  20  23
ENDBRANCH  19  20
ENDBRANCH   3  19
BRANCH   4  25
HETATM   25  O   UNK N   1      24.012  13.770   6.039  0.00  0.00    -0.253 OA
BRANCH  25  26
HETATM   26  S   UNK N   1      24.073  13.104   7.649  0.00  0.00     0.240 S 
HETATM   27  O   UNK N   1      24.079  11.569   7.683  0.00  0.00    -0.579 OA
HETATM   28  O   UNK N   1      25.373  13.530   8.345  0.00  0.00    -0.579 OA
BRANCH  26  29
HETATM   29  O   UNK N   1      22.768  13.636   8.630  0.00  0.00    -0.274 OA
HETATM   30  H   UNK N   1      22.719  13.379   9.565  0.00  0.00     0.234 HD
ENDBRANCH  26  29
ENDBRANCH  25  26
ENDBRANCH   4  25
BRANCH   5  31
HETATM   31  O   UNK N   1      24.676  18.132   3.710  0.00  0.00    -0.253 OA
BRANCH  31  32
HETATM   32  S   UNK N   1      25.697  19.434   4.230  0.00  0.00     0.240 S 
HETATM   33  O   UNK N   1      25.186  20.695   3.518  0.00  0.00    -0.579 OA
HETATM   34  O   UNK N   1      27.118  19.282   3.668  0.00  0.00    -0.579 OA
BRANCH  32  35
HETATM   35  O   UNK N   1      25.741  19.796   5.907  0.00  0.00    -0.274 OA
HETATM   36  H   UNK N   1      25.039  19.962   6.554  0.00  0.00     0.234 HD
ENDBRANCH  32  35
ENDBRANCH  31  32
ENDBRANCH   5  31
BRANCH   6  37
HETATM   37  O   UNK N   1      25.625  15.556   4.350  0.00  0.00    -0.253 OA
BRANCH  37  38
HETATM   38  S   UNK N   1      26.639  15.623   5.750  0.00  0.00     0.240 S 
HETATM   39  O   UNK N   1      27.953  14.846   5.589  0.00  0.00    -0.579 OA
HETATM   40  O   UNK N   1      26.977  17.048   6.213  0.00  0.00    -0.579 OA
BRANCH  38  41
HETATM   41  O   UNK N   1      27.416  16.362   4.409  0.00  0.00    -0.274 OA
HETATM   42  H   UNK N   1      27.131  16.264   3.486  0.00  0.00     0.234 HD
ENDBRANCH  38  41
ENDBRANCH  37  38
ENDBRANCH   6  37
TORSDOF 18
ENDMDL
MODEL 7
REMARK VINA RESULT:      -5.3      2.094      5.759
REMARK  18 active torsions:
REMARK  status: ('A' for Active; 'I' for Inactive)
REMARK    1  A    between atoms: C_1  and  O_25 
REMARK    2  A    between atoms: C_2  and  O_26 
REMARK    3  A    between atoms: C_3  and  O_27 
REMARK    4  A    between atoms: C_4  and  O_28 
REMARK    5  A    between atoms: C_5  and  O_29 
REMARK    6  A    between atoms: C_6  and  O_30 
REMARK    7  A    between atoms: S_31  and  O_7 
REMARK    8  A    between atoms: S_32  and  O_10 
REMARK    9  A    between atoms: S_33  and  O_13 
REMARK   10  A    between atoms: S_34  and  O_16 
REMARK   11  A    between atoms: S_35  and  O_19 
REMARK   12  A    between atoms: S_36  and  O_22 
REMARK   13  A    between atoms: S_31  and  O_25 
REMARK   14  A    between atoms: S_32  and  O_26 
REMARK   15  A    between atoms: S_33  and  O_27 
REMARK   16  A    between atoms: S_34  and  O_28 
REMARK   17  A    between atoms: S_35  and  O_29 
REMARK   18  A    between atoms: S_36  and  O_30 
ROOT
HETATM    1  C   UNK N   1      21.396  15.500   3.164  0.00  0.00     0.210 C 
HETATM    2  C   UNK N   1      21.868  16.920   3.569  0.00  0.00     0.210 C 
HETATM    3  C   UNK N   1      21.232  14.567   4.388  0.00  0.00     0.210 C 
HETATM    4  C   UNK N   1      23.132  16.861   4.462  0.00  0.00     0.210 C 
HETATM    5  C   UNK N   1      22.535  14.505   5.244  0.00  0.00     0.210 C 
HETATM    6  C   UNK N   1      22.951  15.929   5.707  0.00  0.00     0.210 C 
ENDROOT
BRANCH   1   7
HETATM    7  O   UNK N   1      20.151  15.593   2.502  0.00  0.00    -0.253 OA
BRANCH   7   8
HETATM    8  S   UNK N   1      20.342  15.450   0.786  0.00  0.00     0.240 S 
HETATM    9  O   UNK N   1      21.669  14.752   0.453  0.00  0.00    -0.579 OA
HETATM   10  O   UNK N   1      19.244  14.551   0.197  0.00  0.00    -0.579 OA
BRANCH   8  11
HETATM   11  O   UNK N   1      20.299  16.957  -0.034  0.00  0.00    -0.274 OA
HETATM   12  H   UNK N   1      20.290  17.136  -0.987  0.00  0.00     0.234 HD
ENDBRANCH   8  11
ENDBRANCH   7   8
ENDBRANCH   1   7
BRANCH   2  13
HETATM   13  O   UNK N   1      20.818  17.596   4.231  0.00  0.00    -0.253 OA
BRANCH  13  14
HETATM   14  S   UNK N   1      20.229  18.893   3.235  0.00  0.00     0.240 S 
HETATM   15  O   UNK N   1      20.346  20.204   4.026  0.00  0.00    -0.579 OA
HETATM   16  O   UNK N   1      21.163  19.113   2.033  0.00  0.00    -0.579 OA
BRANCH  14  17
HETATM   17  O   UNK N   1      18.611  18.735   2.685  0.00  0.00    -0.274 OA
HETATM   18  H   UNK N   1      18.218  17.854   2.583  0.00  0.00     0.234 HD
ENDBRANCH  14  17
ENDBRANCH  13  14
ENDBRANCH   2  13
BRANCH   3  19
HETATM   19  O   UNK N   1      20.699  13.307   3.989  0.00  0.00    -0.253 OA
BRANCH  19  20
HETATM   20  S   UNK N   1      18.964  13.190   4.038  0.00  0.00     0.240 S 
HETATM   21  O   UNK N   1      18.327  14.245   4.954  0.00  0.00    -0.579 OA
HETATM   22  O   UNK N   1      18.623  11.870   4.745  0.00  0.00    -0.579 OA
BRANCH  20  23
HETATM   23  O   UNK N   1      18.167  13.166   2.518  0.00  0.00    -0.274 OA
HETATM   24  H   UNK N   1      17.963  12.328   2.074  0.00  0.00     0.234 HD
ENDBRANCH  20  23
ENDBRANCH  19  20
ENDBRANCH   3  19
BRANCH   4  25
HETATM   25  O   UNK N   1      23.659  18.160   4.714  0.00  0.00    -0.253 OA
BRANCH  25  26
HETATM   26  S   UNK N   1      25.144  18.583   3.905  0.00  0.00     0.240 S 
HETATM   27  O   UNK N   1      25.679  17.480   2.979  0.00  0.00    -0.579 OA
HETATM   28  O   UNK N   1      24.920  19.800   2.997  0.00  0.00    -0.579 OA
BRANCH  26  29
HETATM   29  O   UNK N   1      26.400  18.986   5.003  0.00  0.00    -0.274 OA
HETATM   30  H   UNK N   1      26.444  18.565   5.876  0.00  0.00     0.234 HD
ENDBRANCH  26  29
ENDBRANCH  25  26
ENDBRANCH   4  25
BRANCH   5  31
HETATM   31  O   UNK N   1      22.527  13.572   6.315  0.00  0.00    -0.253 OA
BRANCH  31  32
HETATM   32  S   UNK N   1      21.291  13.834   7.502  0.00  0.00     0.240 S 
HETATM   33  O   UNK N   1      21.993  14.427   8.733  0.00  0.00    -0.579 OA
HETATM   34  O   UNK N   1      20.744  12.501   8.036  0.00  0.00    -0.579 OA
BRANCH  32  35
HETATM   35  O   UNK N   1      20.008  14.901   7.102  0.00  0.00    -0.274 OA
HETATM   36  H   UNK N   1      19.986  15.728   6.597  0.00  0.00     0.234 HD
ENDBRANCH  32  35
ENDBRANCH  31  32
ENDBRANCH   5  31
BRANCH   6  37
HETATM   37  O   UNK N   1      24.070  15.917   6.571  0.00  0.00    -0.253 OA
BRANCH  37  38
HETATM   38  S   UNK N   1      25.475  15.251   5.813  0.00  0.00     0.240 S 
HETATM   39  O   UNK N   1      26.704  16.169   5.892  0.00  0.00    -0.579 OA
HETATM   40  O   UNK N   1      25.875  13.865   6.339  0.00  0.00    -0.579 OA
BRANCH  38  41
HETATM   41  O   UNK N   1      25.744  15.467   7.495  0.00  0.00    -0.274 OA
HETATM   42  H   UNK N   1      25.999  16.308   7.907  0.00  0.00     0.234 HD
ENDBRANCH  38  41
ENDBRANCH  37  38
ENDBRANCH   6  37
TORSDOF 18
ENDMDL
MODEL 8
REMARK VINA RESULT:      -5.2     12.047     14.625
REMARK  18 active torsions:
REMARK  status: ('A' for Active; 'I' for Inactive)
REMARK    1  A    between atoms: C_1  and  O_25 
REMARK    2  A    between atoms: C_2  and  O_26 
REMARK    3  A    between atoms: C_3  and  O_27 
REMARK    4  A    between atoms: C_4  and  O_28 
REMARK    5  A    between atoms: C_5  and  O_29 
REMARK    6  A    between atoms: C_6  and  O_30 
REMARK    7  A    between atoms: S_31  and  O_7 
REMARK    8  A    between atoms: S_32  and  O_10 
REMARK    9  A    between atoms: S_33  and  O_13 
REMARK   10  A    between atoms: S_34  and  O_16 
REMARK   11  A    between atoms: S_35  and  O_19 
REMARK   12  A    between atoms: S_36  and  O_22 
REMARK   13  A    between atoms: S_31  and  O_25 
REMARK   14  A    between atoms: S_32  and  O_26 
REMARK   15  A    between atoms: S_33  and  O_27 
REMARK   16  A    between atoms: S_34  and  O_28 
REMARK   17  A    between atoms: S_35  and  O_29 
REMARK   18  A    between atoms: S_36  and  O_30 
ROOT
HETATM    1  C   UNK N   1      28.765  23.845  -4.969  0.00  0.00     0.210 C 
HETATM    2  C   UNK N   1      28.043  23.853  -6.340  0.00  0.00     0.210 C 
HETATM    3  C   UNK N   1      30.306  23.817  -5.118  0.00  0.00     0.210 C 
HETATM    4  C   UNK N   1      28.545  22.704  -7.249  0.00  0.00     0.210 C 
HETATM    5  C   UNK N   1      30.776  22.627  -6.011  0.00  0.00     0.210 C 
HETATM    6  C   UNK N   1      30.102  22.695  -7.409  0.00  0.00     0.210 C 
ENDROOT
BRANCH   1   7
HETATM    7  O   UNK N   1      28.406  25.004  -4.244  0.00  0.00    -0.253 OA
BRANCH   7   8
HETATM    8  S   UNK N   1      27.041  24.706  -3.222  0.00  0.00     0.240 S 
HETATM    9  O   UNK N   1      26.511  26.026  -2.641  0.00  0.00    -0.579 OA
HETATM   10  O   UNK N   1      25.878  24.118  -4.036  0.00  0.00    -0.579 OA
BRANCH   8  11
HETATM   11  O   UNK N   1      27.381  23.638  -1.923  0.00  0.00    -0.274 OA
HETATM   12  H   UNK N   1      28.215  23.197  -1.694  0.00  0.00     0.234 HD
ENDBRANCH   8  11
ENDBRANCH   7   8
ENDBRANCH   1   7
BRANCH   2  13
HETATM   13  O   UNK N   1      28.233  25.106  -6.966  0.00  0.00    -0.253 OA
BRANCH  13  14
HETATM   14  S   UNK N   1      26.696  25.872  -7.235  0.00  0.00     0.240 S 
HETATM   15  O   UNK N   1      26.766  27.306  -6.693  0.00  0.00    -0.579 OA
HETATM   16  O   UNK N   1      26.451  26.067  -8.741  0.00  0.00    -0.579 OA
BRANCH  14  17
HETATM   17  O   UNK N   1      25.341  25.092  -6.528  0.00  0.00    -0.274 OA
HETATM   18  H   UNK N   1      24.623  25.619  -6.143  0.00  0.00     0.234 HD
ENDBRANCH  14  17
ENDBRANCH  13  14
ENDBRANCH   2  13
BRANCH   3  19
HETATM   19  O   UNK N   1      30.935  23.914  -3.843  0.00  0.00    -0.253 OA
BRANCH  19  20
HETATM   20  S   UNK N   1      30.676  22.556  -2.787  0.00  0.00     0.240 S 
HETATM   21  O   UNK N   1      29.552  21.633  -3.278  0.00  0.00    -0.579 OA
HETATM   22  O   UNK N   1      30.113  23.114  -1.471  0.00  0.00    -0.579 OA
BRANCH  20  23
HETATM   23  O   UNK N   1      32.069  21.636  -2.388  0.00  0.00    -0.274 OA
HETATM   24  H   UNK N   1      32.567  21.161  -3.071  0.00  0.00     0.234 HD
ENDBRANCH  20  23
ENDBRANCH  19  20
ENDBRANCH   3  19
BRANCH   4  25
HETATM   25  O   UNK N   1      27.783  22.612  -8.449  0.00  0.00    -0.253 OA
BRANCH  25  26
HETATM   26  S   UNK N   1      26.101  22.183  -8.289  0.00  0.00     0.240 S 
HETATM   27  O   UNK N   1      25.758  20.802  -8.868  0.00  0.00    -0.579 OA
HETATM   28  O   UNK N   1      25.717  22.107  -6.806  0.00  0.00    -0.579 OA
BRANCH  26  29
HETATM   29  O   UNK N   1      25.057  23.326  -9.032  0.00  0.00    -0.274 OA
HETATM   30  H   UNK N   1      24.124  23.110  -9.188  0.00  0.00     0.234 HD
ENDBRANCH  26  29
ENDBRANCH  25  26
ENDBRANCH   4  25
BRANCH   5  31
HETATM   31  O   UNK N   1      32.182  22.439  -6.100  0.00  0.00    -0.253 OA
BRANCH  31  32
HETATM   32  S   UNK N   1      32.742  20.874  -5.606  0.00  0.00     0.240 S 
HETATM   33  O   UNK N   1      33.912  21.118  -4.641  0.00  0.00    -0.579 OA
HETATM   34  O   UNK N   1      33.415  20.134  -6.772  0.00  0.00    -0.579 OA
BRANCH  32  35
HETATM   35  O   UNK N   1      31.635  19.846  -4.792  0.00  0.00    -0.274 OA
HETATM   36  H   UNK N   1      30.936  20.028  -4.144  0.00  0.00     0.234 HD
ENDBRANCH  32  35
ENDBRANCH  31  32
ENDBRANCH   5  31
BRANCH   6  37
HETATM   37  O   UNK N   1      30.572  21.695  -8.292  0.00  0.00    -0.253 OA
BRANCH  37  38
HETATM   38  S   UNK N   1      29.620  20.253  -8.215  0.00  0.00     0.240 S 
HETATM   39  O   UNK N   1      29.456  19.558  -9.575  0.00  0.00    -0.579 OA
HETATM   40  O   UNK N   1      30.129  19.217  -7.203  0.00  0.00    -0.579 OA
BRANCH  38  41
HETATM   41  O   UNK N   1      31.223  19.889  -8.709  0.00  0.00    -0.274 OA
HETATM   42  H   UNK N   1      31.664  19.037  -8.562  0.00  0.00     0.234 HD
ENDBRANCH  38  41
ENDBRANCH  37  38
ENDBRANCH   6  37
TORSDOF 18
ENDMDL
MODEL 9
REMARK VINA RESULT:      -5.2     11.590     14.299
REMARK  18 active torsions:
REMARK  status: ('A' for Active; 'I' for Inactive)
REMARK    1  A    between atoms: C_1  and  O_25 
REMARK    2  A    between atoms: C_2  and  O_26 
REMARK    3  A    between atoms: C_3  and  O_27 
REMARK    4  A    between atoms: C_4  and  O_28 
REMARK    5  A    between atoms: C_5  and  O_29 
REMARK    6  A    between atoms: C_6  and  O_30 
REMARK    7  A    between atoms: S_31  and  O_7 
REMARK    8  A    between atoms: S_32  and  O_10 
REMARK    9  A    between atoms: S_33  and  O_13 
REMARK   10  A    between atoms: S_34  and  O_16 
REMARK   11  A    between atoms: S_35  and  O_19 
REMARK   12  A    between atoms: S_36  and  O_22 
REMARK   13  A    between atoms: S_31  and  O_25 
REMARK   14  A    between atoms: S_32  and  O_26 
REMARK   15  A    between atoms: S_33  and  O_27 
REMARK   16  A    between atoms: S_34  and  O_28 
REMARK   17  A    between atoms: S_35  and  O_29 
REMARK   18  A    between atoms: S_36  and  O_30 
ROOT
HETATM    1  C   UNK N   1      35.207  14.203   8.175  0.00  0.00     0.210 C 
HETATM    2  C   UNK N   1      35.025  12.786   7.575  0.00  0.00     0.210 C 
HETATM    3  C   UNK N   1      36.297  14.238   9.273  0.00  0.00     0.210 C 
HETATM    4  C   UNK N   1      34.805  11.727   8.684  0.00  0.00     0.210 C 
HETATM    5  C   UNK N   1      36.024  13.184  10.390  0.00  0.00     0.210 C 
HETATM    6  C   UNK N   1      35.922  11.758   9.780  0.00  0.00     0.210 C 
ENDROOT
BRANCH   1   7
HETATM    7  O   UNK N   1      35.576  15.101   7.148  0.00  0.00    -0.253 OA
BRANCH   7   8
HETATM    8  S   UNK N   1      34.203  15.978   6.559  0.00  0.00     0.240 S 
HETATM    9  O   UNK N   1      33.828  15.498   5.149  0.00  0.00    -0.579 OA
HETATM   10  O   UNK N   1      32.971  15.696   7.432  0.00  0.00    -0.579 OA
BRANCH   8  11
HETATM   11  O   UNK N   1      34.449  17.676   6.508  0.00  0.00    -0.274 OA
HETATM   12  H   UNK N   1      33.793  18.388   6.438  0.00  0.00     0.234 HD
ENDBRANCH   8  11
ENDBRANCH   7   8
ENDBRANCH   1   7
BRANCH   2  13
HETATM   13  O   UNK N   1      36.152  12.458   6.787  0.00  0.00    -0.253 OA
BRANCH  13  14
HETATM   14  S   UNK N   1      35.636  11.844   5.245  0.00  0.00     0.240 S 
HETATM   15  O   UNK N   1      35.759  12.969   4.208  0.00  0.00    -0.579 OA
HETATM   16  O   UNK N   1      36.621  10.777   4.737  0.00  0.00    -0.579 OA
BRANCH  14  17
HETATM   17  O   UNK N   1      34.037  11.225   5.186  0.00  0.00    -0.274 OA
HETATM   18  H   UNK N   1      33.561  11.030   6.009  0.00  0.00     0.234 HD
ENDBRANCH  14  17
ENDBRANCH  13  14
ENDBRANCH   2  13
BRANCH   3  19
HETATM   19  O   UNK N   1      36.508  15.572   9.727  0.00  0.00    -0.253 OA
BRANCH  19  20
HETATM   20  S   UNK N   1      35.085  16.390  10.302  0.00  0.00     0.240 S 
HETATM   21  O   UNK N   1      34.773  17.664   9.503  0.00  0.00    -0.579 OA
HETATM   22  O   UNK N   1      35.414  16.934  11.700  0.00  0.00    -0.579 OA
BRANCH  20  23
HETATM   23  O   UNK N   1      33.673  15.427  10.458  0.00  0.00    -0.274 OA
HETATM   24  H   UNK N   1      33.734  14.469  10.595  0.00  0.00     0.234 HD
ENDBRANCH  20  23
ENDBRANCH  19  20
ENDBRANCH   3  19
BRANCH   4  25
HETATM   25  O   UNK N   1      34.488  10.451   8.138  0.00  0.00    -0.253 OA
BRANCH  25  26
HETATM   26  S   UNK N   1      32.855   9.879   8.356  0.00  0.00     0.240 S 
HETATM   27  O   UNK N   1      32.004   9.938   7.080  0.00  0.00    -0.579 OA
HETATM   28  O   UNK N   1      32.867   8.400   8.767  0.00  0.00    -0.579 OA
BRANCH  26  29
HETATM   29  O   UNK N   1      32.013  10.744   9.577  0.00  0.00    -0.274 OA
HETATM   30  H   UNK N   1      32.130  10.513  10.512  0.00  0.00     0.234 HD
ENDBRANCH  26  29
ENDBRANCH  25  26
ENDBRANCH   4  25
BRANCH   5  31
HETATM   31  O   UNK N   1      36.897  13.229  11.510  0.00  0.00    -0.253 OA
BRANCH  31  32
HETATM   32  S   UNK N   1      36.149  13.700  13.001  0.00  0.00     0.240 S 
HETATM   33  O   UNK N   1      36.341  12.524  13.971  0.00  0.00    -0.579 OA
HETATM   34  O   UNK N   1      34.621  13.770  12.856  0.00  0.00    -0.579 OA
BRANCH  32  35
HETATM   35  O   UNK N   1      36.750  15.098  13.793  0.00  0.00    -0.274 OA
HETATM   36  H   UNK N   1      36.523  15.513  14.640  0.00  0.00     0.234 HD
ENDBRANCH  32  35
ENDBRANCH  31  32
ENDBRANCH   5  31
BRANCH   6  37
HETATM   37  O   UNK N   1      35.775  10.752  10.764  0.00  0.00    -0.253 OA
BRANCH  37  38
HETATM   38  S   UNK N   1      36.983   9.522  10.629  0.00  0.00     0.240 S 
HETATM   39  O   UNK N   1      38.418  10.066  10.700  0.00  0.00    -0.579 OA
HETATM   40  O   UNK N   1      36.846   8.391  11.658  0.00  0.00    -0.579 OA
BRANCH  38  41
HETATM   41  O   UNK N   1      37.076  10.291  12.161  0.00  0.00    -0.274 OA
HETATM   42  H   UNK N   1      36.843  11.219  12.325  0.00  0.00     0.234 HD
ENDBRANCH  38  41
ENDBRANCH  37  38
ENDBRANCH   6  37
TORSDOF 18
ENDMDL
