REMARK  2 active torsions:
REMARK  status: ('A' for Active; 'I' for Inactive)
REMARK    1  A    between atoms: N_1  and  S_2 
REMARK    2  A    between atoms: S_2  and  C_5 
ROOT
HETATM    1  C   UNK N   1       0.642  -0.377  -0.035  0.00  0.00     0.079 A 
HETATM    2  C   UNK N   1      -0.513   0.344  -0.358  0.00  0.00     0.028 A 
HETATM    3  C   UNK N   1      -0.480   1.741  -0.388  0.00  0.00     0.044 A 
HETATM    4  C   UNK N   1       0.709   2.419  -0.100  0.00  0.00     0.116 A 
HETATM    5  F   UNK N   1       0.747   3.772  -0.152  0.00  0.00    -0.206 F 
HETATM    6  C   UNK N   1       1.862   1.699   0.231  0.00  0.00     0.044 A 
HETATM    7  C   UNK N   1       1.829   0.301   0.261  0.00  0.00     0.028 A 
ENDROOT
BRANCH   1   8
HETATM    8  S   UNK N   1       0.620  -2.163  -0.084  0.00  0.00     0.256 S 
HETATM    9  O   UNK N   1       0.707  -2.695  -1.522  0.00  0.00    -0.201 OA
HETATM   10  O   UNK N   1      -0.698  -2.777   0.413  0.00  0.00    -0.201 OA
BRANCH   8  11
HETATM   11  N   UNK N   1       1.888  -3.025   0.789  0.00  0.00    -0.324 N 
HETATM   12  H   UNK N   1       1.823  -3.909   1.294  0.00  0.00     0.169 HD
HETATM   13  H   UNK N   1       2.806  -2.581   0.789  0.00  0.00     0.169 HD
ENDBRANCH   8  11
ENDBRANCH   1   8
TORSDOF 2
