REMARK  5 active torsions:
REMARK  status: ('A' for Active; 'I' for Inactive)
REMARK    1  A    between atoms: O_1  and  C_2 
REMARK    2  A    between atoms: C_3  and  C_2 
REMARK    3  A    between atoms: C_12  and  O_13 
REMARK    4  A    between atoms: C_14  and  O_15 
REMARK    5  A    between atoms: C_16  and  O_17 
ROOT
HETATM    1  C   UNK N   1       3.158  -0.875   1.098  0.00  0.00     0.180 C 
HETATM    2  O   UNK N   1       1.773  -0.677   1.333  0.00  0.00    -0.340 OA
HETATM    3  C   UNK N   1       1.149   0.152   0.347  0.00  0.00     0.250 A 
HETATM    4  N   UNK N   1       0.479  -0.661  -0.654  0.00  0.00    -0.300 N 
HETATM    5  C   UNK N   1      -0.849  -0.465  -0.571  0.00  0.00     0.325 A 
HETATM    6  O   UNK N   1      -1.654  -1.030  -1.292  0.00  0.00    -0.247 OA
HETATM    7  N   UNK N   1      -1.202   0.403   0.380  0.00  0.00    -0.275 N 
HETATM    8  C   UNK N   1      -0.067   0.810   0.966  0.00  0.00     0.284 A 
HETATM    9  O   UNK N   1      -0.046   1.613   1.885  0.00  0.00    -0.267 OA
HETATM   10  C   UNK N   1       2.098   1.184  -0.326  0.00  0.00     0.215 C 
HETATM   11  C   UNK N   1       3.093   1.652   0.714  0.00  0.00     0.183 C 
HETATM   12  C   UNK N   1       3.957   0.453   1.126  0.00  0.00     0.180 C 
HETATM   13  H   UNK N   1       0.927  -1.262  -1.292  0.00  0.00     0.167 HD
HETATM   14  H   UNK N   1      -2.116   0.688   0.607  0.00  0.00     0.173 HD
ENDROOT
BRANCH  10  15
HETATM   15  O   UNK N   1       1.393   2.251  -0.894  0.00  0.00    -0.387 OA
HETATM   16  H   UNK N   1       1.790   3.044  -1.287  0.00  0.00     0.210 HD
ENDBRANCH  10  15
BRANCH   1  17
HETATM   17  C   UNK N   1       3.403  -1.758  -0.128  0.00  0.00     0.198 C 
BRANCH  17  18
HETATM   18  O   UNK N   1       2.967  -3.057   0.134  0.00  0.00    -0.398 OA
HETATM   19  H   UNK N   1       2.034  -3.247   0.317  0.00  0.00     0.209 HD
ENDBRANCH  17  18
ENDBRANCH   1  17
BRANCH  11  20
HETATM   20  O   UNK N   1       3.886   2.703   0.246  0.00  0.00    -0.390 OA
HETATM   21  H   UNK N   1       4.793   2.591  -0.078  0.00  0.00     0.210 HD
ENDBRANCH  11  20
BRANCH  12  22
HETATM   22  O   UNK N   1       5.106   0.347   0.332  0.00  0.00    -0.390 OA
HETATM   23  H   UNK N   1       5.441  -0.379  -0.217  0.00  0.00     0.210 HD
ENDBRANCH  12  22
TORSDOF 5
