MODEL 1
REMARK VINA RESULT:      -8.0      0.000      0.000
REMARK  4 active torsions:
REMARK  status: ('A' for Active; 'I' for Inactive)
REMARK    1  A    between atoms: C_21  and  C_13 
REMARK    2  A    between atoms: C_22  and  C_18 
REMARK    3  A    between atoms: C_23  and  O_30 
REMARK    4  A    between atoms: C_25  and  O_32 
ROOT
HETATM    1  C   UNK N   1      28.690  13.110   3.497  0.00  0.00     0.043 C 
HETATM    2  C   UNK N   1      34.729  12.787   3.142  0.00  0.00     0.012 C 
HETATM    3  C   UNK N   1      36.245  14.510   6.262  0.00  0.00     0.020 C 
HETATM    4  C   UNK N   1      33.175  15.114   9.555  0.00  0.00     0.026 C 
HETATM    5  C   UNK N   1      35.532  14.765   9.122  0.00  0.00     0.026 C 
HETATM    6  C   UNK N   1      31.887  13.292   2.965  0.00  0.00     0.005 C 
HETATM    7  C   UNK N   1      30.868  14.418   3.011  0.00  0.00     0.033 C 
HETATM    8  C   UNK N   1      32.536  13.030   4.335  0.00  0.00     0.007 C 
HETATM    9  C   UNK N   1      29.645  14.675   5.136  0.00  0.00    -0.022 C 
HETATM   10  C   UNK N   1      30.680  15.694   5.537  0.00  0.00     0.064 C 
HETATM   11  C   UNK N   1      33.549  17.960   7.967  0.00  0.00     0.144 C 
HETATM   12  C   UNK N   1      29.732  14.085   3.935  0.00  0.00    -0.087 C 
HETATM   13  C   UNK N   1      34.044  13.346   4.385  0.00  0.00     0.011 C 
HETATM   14  C   UNK N   1      34.929  15.236   6.010  0.00  0.00     0.081 C 
HETATM   15  C   UNK N   1      30.322  16.593   6.719  0.00  0.00     0.164 C 
HETATM   16  C   UNK N   1      34.571  17.032   8.657  0.00  0.00     0.142 C 
HETATM   17  C   UNK N   1      32.107  17.567   8.057  0.00  0.00     0.262 C 
HETATM   18  C   UNK N   1      34.402  14.854   4.593  0.00  0.00     0.132 C 
HETATM   19  C   UNK N   1      33.972  15.010   7.173  0.00  0.00     0.143 C 
HETATM   20  C   UNK N   1      34.303  15.493   8.594  0.00  0.00     0.040 C 
HETATM   21  O   UNK N   1      31.565  17.418   9.139  0.00  0.00    -0.265 OA
HETATM   22  O   UNK N   1      32.905  14.451   6.968  0.00  0.00    -0.297 OA
HETATM   23  O   UNK N   1      31.413  17.420   6.901  0.00  0.00    -0.311 OA
ENDROOT
BRANCH  15  24
HETATM   24  C   UNK N   1      29.066  17.438   6.527  0.00  0.00    -0.052 C 
HETATM   25  C   UNK N   1      28.163  17.565   7.715  0.00  0.00     0.046 C 
HETATM   26  C   UNK N   1      28.759  18.022   5.337  0.00  0.00     0.035 C 
BRANCH  26  27
HETATM   27  C   UNK N   1      27.526  18.772   5.015  0.00  0.00     0.039 A 
HETATM   28  C   UNK N   1      27.403  20.177   5.026  0.00  0.00     0.081 A 
HETATM   29  S   UNK N   1      25.807  20.466   4.679  0.00  0.00    -0.087 SA
HETATM   30  C   UNK N   1      25.314  18.905   4.529  0.00  0.00     0.047 A 
HETATM   31  C   UNK N   1      23.933  18.441   4.236  0.00  0.00     0.076 C 
HETATM   32  N   UNK N   1      26.363  18.081   4.742  0.00  0.00    -0.354 N 
ATOM     33  HN  UNK N   1      26.302  17.064   4.705  1.00  0.00     0.166 HD
ENDBRANCH  26  27
ENDBRANCH  15  24
BRANCH  16  34
HETATM   34  O   UNK N   1      34.730  17.442   9.983  0.00  0.00    -0.394 OA
HETATM   35  H   UNK N   1      34.073  17.267  10.676  0.00  0.00     0.210 HD
ENDBRANCH  16  34
BRANCH  18  36
HETATM   36  O   UNK N   1      33.339  15.687   4.231  0.00  0.00    -0.394 OA
HETATM   37  H   UNK N   1      32.423  15.491   4.479  0.00  0.00     0.210 HD
ENDBRANCH  18  36
TORSDOF 4
ENDMDL
MODEL 2
REMARK VINA RESULT:      -7.6      4.827      8.179
REMARK  4 active torsions:
REMARK  status: ('A' for Active; 'I' for Inactive)
REMARK    1  A    between atoms: C_21  and  C_13 
REMARK    2  A    between atoms: C_22  and  C_18 
REMARK    3  A    between atoms: C_23  and  O_30 
REMARK    4  A    between atoms: C_25  and  O_32 
ROOT
HETATM    1  C   UNK N   1      39.707  12.913   7.890  0.00  0.00     0.043 C 
HETATM    2  C   UNK N   1      36.768  12.704   2.597  0.00  0.00     0.012 C 
HETATM    3  C   UNK N   1      33.610  14.932   2.847  0.00  0.00     0.020 C 
HETATM    4  C   UNK N   1      33.770  17.748   6.408  0.00  0.00     0.026 C 
HETATM    5  C   UNK N   1      32.888  17.479   4.168  0.00  0.00     0.026 C 
HETATM    6  C   UNK N   1      37.988  12.349   5.195  0.00  0.00     0.005 C 
HETATM    7  C   UNK N   1      37.659  11.964   6.627  0.00  0.00     0.033 C 
HETATM    8  C   UNK N   1      37.398  13.716   4.804  0.00  0.00     0.007 C 
HETATM    9  C   UNK N   1      37.450  13.831   8.222  0.00  0.00    -0.022 C 
HETATM   10  C   UNK N   1      35.968  13.814   7.955  0.00  0.00     0.064 C 
HETATM   11  C   UNK N   1      31.869  15.196   7.204  0.00  0.00     0.144 C 
HETATM   12  C   UNK N   1      38.243  12.946   7.602  0.00  0.00    -0.087 C 
HETATM   13  C   UNK N   1      36.314  13.641   3.712  0.00  0.00     0.011 C 
HETATM   14  C   UNK N   1      33.847  14.422   4.264  0.00  0.00     0.081 C 
HETATM   15  C   UNK N   1      35.090  14.564   8.955  0.00  0.00     0.164 C 
HETATM   16  C   UNK N   1      31.809  16.186   6.022  0.00  0.00     0.142 C 
HETATM   17  C   UNK N   1      32.933  15.430   8.231  0.00  0.00     0.262 C 
HETATM   18  C   UNK N   1      34.883  13.258   4.218  0.00  0.00     0.132 C 
HETATM   19  C   UNK N   1      34.174  15.585   5.193  0.00  0.00     0.143 C 
HETATM   20  C   UNK N   1      33.167  16.715   5.455  0.00  0.00     0.040 C 
HETATM   21  O   UNK N   1      33.000  16.487   8.834  0.00  0.00    -0.265 OA
HETATM   22  O   UNK N   1      35.256  15.609   5.760  0.00  0.00    -0.297 OA
HETATM   23  O   UNK N   1      33.795  14.417   8.498  0.00  0.00    -0.311 OA
ENDROOT
BRANCH  15  24
HETATM   24  C   UNK N   1      35.184  14.066  10.394  0.00  0.00    -0.052 C 
HETATM   25  C   UNK N   1      35.227  15.117  11.460  0.00  0.00     0.046 C 
HETATM   26  C   UNK N   1      35.257  12.742  10.701  0.00  0.00     0.035 C 
BRANCH  26  27
HETATM   27  C   UNK N   1      35.452  12.158  12.045  0.00  0.00     0.039 A 
HETATM   28  C   UNK N   1      36.701  11.870  12.633  0.00  0.00     0.081 A 
HETATM   29  S   UNK N   1      36.333  11.160  14.086  0.00  0.00    -0.087 SA
HETATM   30  C   UNK N   1      34.694  11.217  13.966  0.00  0.00     0.047 A 
HETATM   31  C   UNK N   1      33.719  10.703  14.961  0.00  0.00     0.076 C 
HETATM   32  N   UNK N   1      34.351  11.790  12.791  0.00  0.00    -0.354 N 
ATOM     33  HN  UNK N   1      33.387  11.933  12.491  1.00  0.00     0.166 HD
ENDBRANCH  26  27
ENDBRANCH  15  24
BRANCH  16  34
HETATM   34  O   UNK N   1      30.981  17.256   6.373  0.00  0.00    -0.394 OA
HETATM   35  H   UNK N   1      31.305  18.055   6.819  0.00  0.00     0.210 HD
ENDBRANCH  16  34
BRANCH  18  36
HETATM   36  O   UNK N   1      34.936  12.607   5.454  0.00  0.00    -0.394 OA
HETATM   37  H   UNK N   1      35.352  13.009   6.232  0.00  0.00     0.210 HD
ENDBRANCH  18  36
TORSDOF 4
ENDMDL
MODEL 3
REMARK VINA RESULT:      -7.6      7.339     10.420
REMARK  4 active torsions:
REMARK  status: ('A' for Active; 'I' for Inactive)
REMARK    1  A    between atoms: C_21  and  C_13 
REMARK    2  A    between atoms: C_22  and  C_18 
REMARK    3  A    between atoms: C_23  and  O_30 
REMARK    4  A    between atoms: C_25  and  O_32 
ROOT
HETATM    1  C   UNK N   1      34.168   6.604  11.330  0.00  0.00     0.043 C 
HETATM    2  C   UNK N   1      33.086  10.146   6.536  0.00  0.00     0.012 C 
HETATM    3  C   UNK N   1      34.849  13.550   7.092  0.00  0.00     0.020 C 
HETATM    4  C   UNK N   1      37.953  13.359  10.403  0.00  0.00     0.026 C 
HETATM    5  C   UNK N   1      37.370  14.476   8.334  0.00  0.00     0.026 C 
HETATM    6  C   UNK N   1      33.134   8.555   8.951  0.00  0.00     0.005 C 
HETATM    7  C   UNK N   1      32.829   8.628  10.437  0.00  0.00     0.033 C 
HETATM    8  C   UNK N   1      34.364   9.395   8.561  0.00  0.00     0.007 C 
HETATM    9  C   UNK N   1      34.777   8.911  11.922  0.00  0.00    -0.022 C 
HETATM   10  C   UNK N   1      34.523  10.395  11.871  0.00  0.00     0.064 C 
HETATM   11  C   UNK N   1      35.231  14.721  11.626  0.00  0.00     0.144 C 
HETATM   12  C   UNK N   1      33.965   8.081  11.253  0.00  0.00    -0.087 C 
HETATM   13  C   UNK N   1      34.040  10.589   7.642  0.00  0.00     0.011 C 
HETATM   14  C   UNK N   1      34.502  13.052   8.490  0.00  0.00     0.081 C 
HETATM   15  C   UNK N   1      35.222  11.239  12.936  0.00  0.00     0.164 C 
HETATM   16  C   UNK N   1      36.098  15.089  10.404  0.00  0.00     0.142 C 
HETATM   17  C   UNK N   1      35.703  13.580  12.473  0.00  0.00     0.262 C 
HETATM   18  C   UNK N   1      33.500  11.863   8.371  0.00  0.00     0.132 C 
HETATM   19  C   UNK N   1      35.775  12.789   9.285  0.00  0.00     0.143 C 
HETATM   20  C   UNK N   1      36.766  13.916   9.615  0.00  0.00     0.040 C 
HETATM   21  O   UNK N   1      36.807  13.599  12.991  0.00  0.00    -0.265 OA
HETATM   22  O   UNK N   1      36.003  11.658   9.689  0.00  0.00    -0.297 OA
HETATM   23  O   UNK N   1      34.851  12.544  12.679  0.00  0.00    -0.311 OA
ENDROOT
BRANCH  15  24
HETATM   24  C   UNK N   1      34.867  10.881  14.375  0.00  0.00    -0.052 C 
HETATM   25  C   UNK N   1      33.407  10.829  14.706  0.00  0.00     0.046 C 
HETATM   26  C   UNK N   1      35.817  10.649  15.322  0.00  0.00     0.035 C 
BRANCH  26  27
HETATM   27  C   UNK N   1      35.585  10.396  16.760  0.00  0.00     0.039 A 
HETATM   28  C   UNK N   1      35.306   9.136  17.329  0.00  0.00     0.081 A 
HETATM   29  S   UNK N   1      35.052   9.443  18.939  0.00  0.00    -0.087 SA
HETATM   30  C   UNK N   1      35.281  11.071  18.905  0.00  0.00     0.047 A 
HETATM   31  C   UNK N   1      35.172  12.001  20.058  0.00  0.00     0.076 C 
HETATM   32  N   UNK N   1      35.565  11.457  17.642  0.00  0.00    -0.354 N 
ATOM     33  HN  UNK N   1      35.745  12.424  17.371  1.00  0.00     0.166 HD
ENDBRANCH  26  27
ENDBRANCH  15  24
BRANCH  16  34
HETATM   34  O   UNK N   1      37.064  16.019  10.799  0.00  0.00    -0.394 OA
HETATM   35  H   UNK N   1      37.734  16.377  10.196  0.00  0.00     0.210 HD
ENDBRANCH  16  34
BRANCH  18  36
HETATM   36  O   UNK N   1      32.971  11.549   9.626  0.00  0.00    -0.394 OA
HETATM   37  H   UNK N   1      32.015  11.511   9.788  0.00  0.00     0.210 HD
ENDBRANCH  18  36
TORSDOF 4
ENDMDL
MODEL 4
REMARK VINA RESULT:      -7.5      8.427     12.337
REMARK  4 active torsions:
REMARK  status: ('A' for Active; 'I' for Inactive)
REMARK    1  A    between atoms: C_21  and  C_13 
REMARK    2  A    between atoms: C_22  and  C_18 
REMARK    3  A    between atoms: C_23  and  O_30 
REMARK    4  A    between atoms: C_25  and  O_32 
ROOT
HETATM    1  C   UNK N   1      36.611  15.178  17.073  0.00  0.00     0.043 C 
HETATM    2  C   UNK N   1      34.670  10.195  19.918  0.00  0.00     0.012 C 
HETATM    3  C   UNK N   1      35.669   7.101  17.813  0.00  0.00     0.020 C 
HETATM    4  C   UNK N   1      38.822   8.087  14.695  0.00  0.00     0.026 C 
HETATM    5  C   UNK N   1      37.960   6.321  16.111  0.00  0.00     0.026 C 
HETATM    6  C   UNK N   1      35.121  12.637  18.437  0.00  0.00     0.005 C 
HETATM    7  C   UNK N   1      34.844  13.289  17.093  0.00  0.00     0.033 C 
HETATM    8  C   UNK N   1      36.129  11.480  18.333  0.00  0.00     0.007 C 
HETATM    9  C   UNK N   1      36.721  13.295  15.495  0.00  0.00    -0.022 C 
HETATM   10  C   UNK N   1      36.151  12.027  14.915  0.00  0.00     0.064 C 
HETATM   11  C   UNK N   1      35.901   7.991  13.205  0.00  0.00     0.144 C 
HETATM   12  C   UNK N   1      36.092  13.894  16.515  0.00  0.00    -0.087 C 
HETATM   13  C   UNK N   1      35.532  10.098  18.663  0.00  0.00     0.011 C 
HETATM   14  C   UNK N   1      35.473   8.222  16.799  0.00  0.00     0.081 C 
HETATM   15  C   UNK N   1      36.678  11.614  13.541  0.00  0.00     0.164 C 
HETATM   16  C   UNK N   1      36.638   6.955  14.079  0.00  0.00     0.142 C 
HETATM   17  C   UNK N   1      36.629   9.265  12.905  0.00  0.00     0.262 C 
HETATM   18  C   UNK N   1      34.748   9.414  17.495  0.00  0.00     0.132 C 
HETATM   19  C   UNK N   1      36.791   8.541  16.106  0.00  0.00     0.143 C 
HETATM   20  C   UNK N   1      37.524   7.497  15.247  0.00  0.00     0.040 C 
HETATM   21  O   UNK N   1      37.715   9.249  12.351  0.00  0.00    -0.265 OA
HETATM   22  O   UNK N   1      37.268   9.660  16.217  0.00  0.00    -0.297 OA
HETATM   23  O   UNK N   1      36.027  10.435  13.233  0.00  0.00    -0.311 OA
ENDROOT
BRANCH  15  24
HETATM   24  C   UNK N   1      36.444  12.633  12.430  0.00  0.00    -0.052 C 
HETATM   25  C   UNK N   1      37.538  12.772  11.416  0.00  0.00     0.046 C 
HETATM   26  C   UNK N   1      35.322  13.401  12.372  0.00  0.00     0.035 C 
BRANCH  26  27
HETATM   27  C   UNK N   1      35.043  14.482  11.404  0.00  0.00     0.039 A 
HETATM   28  C   UNK N   1      35.737  15.708  11.332  0.00  0.00     0.081 A 
HETATM   29  S   UNK N   1      34.964  16.564  10.140  0.00  0.00    -0.087 SA
HETATM   30  C   UNK N   1      33.824  15.446   9.751  0.00  0.00     0.047 A 
HETATM   31  C   UNK N   1      32.753  15.596   8.732  0.00  0.00     0.076 C 
HETATM   32  N   UNK N   1      33.986  14.352  10.526  0.00  0.00    -0.354 N 
ATOM     33  HN  UNK N   1      33.394  13.523  10.469  1.00  0.00     0.166 HD
ENDBRANCH  26  27
ENDBRANCH  15  24
BRANCH  16  34
HETATM   34  O   UNK N   1      37.389   6.117  13.250  0.00  0.00    -0.394 OA
HETATM   35  H   UNK N   1      37.289   5.152  13.240  0.00  0.00     0.210 HD
ENDBRANCH  16  34
BRANCH  18  36
HETATM   36  O   UNK N   1      34.331  10.349  16.543  0.00  0.00    -0.394 OA
HETATM   37  H   UNK N   1      33.431  10.349  16.179  0.00  0.00     0.210 HD
ENDBRANCH  18  36
TORSDOF 4
ENDMDL
MODEL 5
REMARK VINA RESULT:      -7.5     13.246     15.735
REMARK  4 active torsions:
REMARK  status: ('A' for Active; 'I' for Inactive)
REMARK    1  A    between atoms: C_21  and  C_13 
REMARK    2  A    between atoms: C_22  and  C_18 
REMARK    3  A    between atoms: C_23  and  O_30 
REMARK    4  A    between atoms: C_25  and  O_32 
ROOT
HETATM    1  C   UNK N   1      32.885  25.859  -4.880  0.00  0.00     0.043 C 
HETATM    2  C   UNK N   1      32.490  20.013  -6.415  0.00  0.00     0.012 C 
HETATM    3  C   UNK N   1      29.096  19.427  -8.187  0.00  0.00     0.020 C 
HETATM    4  C   UNK N   1      27.159  23.313  -9.523  0.00  0.00     0.026 C 
HETATM    5  C   UNK N   1      27.353  20.952 -10.029  0.00  0.00     0.026 C 
HETATM    6  C   UNK N   1      32.587  22.645  -5.222  0.00  0.00     0.005 C 
HETATM    7  C   UNK N   1      31.798  23.580  -4.322  0.00  0.00     0.033 C 
HETATM    8  C   UNK N   1      31.922  22.450  -6.596  0.00  0.00     0.007 C 
HETATM    9  C   UNK N   1      30.547  25.371  -5.465  0.00  0.00    -0.022 C 
HETATM   10  C   UNK N   1      29.347  24.460  -5.448  0.00  0.00     0.064 C 
HETATM   11  C   UNK N   1      25.717  22.353  -6.737  0.00  0.00     0.144 C 
HETATM   12  C   UNK N   1      31.698  24.955  -4.919  0.00  0.00    -0.087 C 
HETATM   13  C   UNK N   1      31.424  21.014  -6.851  0.00  0.00     0.011 C 
HETATM   14  C   UNK N   1      28.841  20.572  -7.215  0.00  0.00     0.081 C 
HETATM   15  C   UNK N   1      27.995  25.115  -5.725  0.00  0.00     0.164 C 
HETATM   16  C   UNK N   1      25.927  21.627  -8.083  0.00  0.00     0.142 C 
HETATM   17  C   UNK N   1      26.188  23.772  -6.651  0.00  0.00     0.262 C 
HETATM   18  C   UNK N   1      30.036  20.667  -6.218  0.00  0.00     0.132 C 
HETATM   19  C   UNK N   1      28.493  21.843  -7.980  0.00  0.00     0.143 C 
HETATM   20  C   UNK N   1      27.243  21.933  -8.869  0.00  0.00     0.040 C 
HETATM   21  O   UNK N   1      25.766  24.619  -7.419  0.00  0.00    -0.265 OA
HETATM   22  O   UNK N   1      29.215  22.823  -7.867  0.00  0.00    -0.297 OA
HETATM   23  O   UNK N   1      27.068  24.093  -5.669  0.00  0.00    -0.311 OA
ENDROOT
BRANCH  15  24
HETATM   24  C   UNK N   1      27.601  26.216  -4.745  0.00  0.00    -0.052 C 
HETATM   25  C   UNK N   1      26.688  25.815  -3.628  0.00  0.00     0.046 C 
HETATM   26  C   UNK N   1      28.026  27.501  -4.887  0.00  0.00     0.035 C 
BRANCH  26  27
HETATM   27  C   UNK N   1      27.626  28.659  -4.059  0.00  0.00     0.039 A 
HETATM   28  C   UNK N   1      26.687  29.642  -4.436  0.00  0.00     0.081 A 
HETATM   29  S   UNK N   1      26.689  30.732  -3.187  0.00  0.00    -0.087 SA
HETATM   30  C   UNK N   1      27.811  29.997  -2.236  0.00  0.00     0.047 A 
HETATM   31  C   UNK N   1      28.315  30.486  -0.927  0.00  0.00     0.076 C 
HETATM   32  N   UNK N   1      28.241  28.869  -2.842  0.00  0.00    -0.354 N 
ATOM     33  HN  UNK N   1      28.942  28.243  -2.445  1.00  0.00     0.166 HD
ENDBRANCH  26  27
ENDBRANCH  15  24
BRANCH  16  34
HETATM   34  O   UNK N   1      24.813  21.855  -8.895  0.00  0.00    -0.394 OA
HETATM   35  H   UNK N   1      24.261  21.141  -9.252  0.00  0.00     0.210 HD
ENDBRANCH  16  34
BRANCH  18  36
HETATM   36  O   UNK N   1      29.722  21.534  -5.167  0.00  0.00    -0.394 OA
HETATM   37  H   UNK N   1      29.134  21.273  -4.441  0.00  0.00     0.210 HD
ENDBRANCH  18  36
TORSDOF 4
ENDMDL
MODEL 6
REMARK VINA RESULT:      -7.4      6.265      8.710
REMARK  4 active torsions:
REMARK  status: ('A' for Active; 'I' for Inactive)
REMARK    1  A    between atoms: C_21  and  C_13 
REMARK    2  A    between atoms: C_22  and  C_18 
REMARK    3  A    between atoms: C_23  and  O_30 
REMARK    4  A    between atoms: C_25  and  O_32 
ROOT
HETATM    1  C   UNK N   1      32.687   9.682   7.592  0.00  0.00     0.043 C 
HETATM    2  C   UNK N   1      35.277   5.768  11.421  0.00  0.00     0.012 C 
HETATM    3  C   UNK N   1      36.028   7.605  14.747  0.00  0.00     0.020 C 
HETATM    4  C   UNK N   1      33.771  11.532  15.090  0.00  0.00     0.026 C 
HETATM    5  C   UNK N   1      34.728   9.710  16.369  0.00  0.00     0.026 C 
HETATM    6  C   UNK N   1      34.481   7.641   9.366  0.00  0.00     0.005 C 
HETATM    7  C   UNK N   1      34.899   8.947   8.712  0.00  0.00     0.033 C 
HETATM    8  C   UNK N   1      33.995   7.837  10.813  0.00  0.00     0.007 C 
HETATM    9  C   UNK N   1      33.676  10.957   9.447  0.00  0.00    -0.022 C 
HETATM   10  C   UNK N   1      34.780  11.189  10.446  0.00  0.00     0.064 C 
HETATM   11  C   UNK N   1      36.853  12.197  14.183  0.00  0.00     0.144 C 
HETATM   12  C   UNK N   1      33.744   9.903   8.622  0.00  0.00    -0.087 C 
HETATM   13  C   UNK N   1      34.899   7.175  11.872  0.00  0.00     0.011 C 
HETATM   14  C   UNK N   1      36.121   8.681  13.671  0.00  0.00     0.081 C 
HETATM   15  C   UNK N   1      34.843  12.580  11.075  0.00  0.00     0.164 C 
HETATM   16  C   UNK N   1      36.287  11.404  15.380  0.00  0.00     0.142 C 
HETATM   17  C   UNK N   1      35.859  12.848  13.271  0.00  0.00     0.262 C 
HETATM   18  C   UNK N   1      36.169   7.997  12.271  0.00  0.00     0.132 C 
HETATM   19  C   UNK N   1      35.032   9.726  13.878  0.00  0.00     0.143 C 
HETATM   20  C   UNK N   1      34.973  10.589  15.149  0.00  0.00     0.040 C 
HETATM   21  O   UNK N   1      35.050  13.653  13.700  0.00  0.00    -0.265 OA
HETATM   22  O   UNK N   1      34.196   9.898  13.003  0.00  0.00    -0.297 OA
HETATM   23  O   UNK N   1      35.911  12.543  11.950  0.00  0.00    -0.311 OA
ENDROOT
BRANCH  15  24
HETATM   24  C   UNK N   1      35.032  13.725  10.085  0.00  0.00    -0.052 C 
HETATM   25  C   UNK N   1      36.350  13.779   9.375  0.00  0.00     0.046 C 
HETATM   26  C   UNK N   1      34.074  14.669   9.875  0.00  0.00     0.035 C 
BRANCH  26  27
HETATM   27  C   UNK N   1      34.192  15.869   9.020  0.00  0.00     0.039 A 
HETATM   28  C   UNK N   1      34.620  17.140   9.458  0.00  0.00     0.081 A 
HETATM   29  S   UNK N   1      34.481  18.117   8.126  0.00  0.00    -0.087 SA
HETATM   30  C   UNK N   1      33.911  16.993   7.069  0.00  0.00     0.047 A 
HETATM   31  C   UNK N   1      33.541  17.225   5.649  0.00  0.00     0.076 C 
HETATM   32  N   UNK N   1      33.801  15.803   7.698  0.00  0.00    -0.354 N 
ATOM     33  HN  UNK N   1      33.466  14.952   7.247  1.00  0.00     0.166 HD
ENDBRANCH  26  27
ENDBRANCH  15  24
BRANCH  16  34
HETATM   34  O   UNK N   1      36.135  12.272  16.464  0.00  0.00    -0.394 OA
HETATM   35  H   UNK N   1      35.277  12.459  16.878  0.00  0.00     0.210 HD
ENDBRANCH  16  34
BRANCH  18  36
HETATM   36  O   UNK N   1      36.505   8.931  11.287  0.00  0.00    -0.394 OA
HETATM   37  H   UNK N   1      36.488   8.712  10.342  0.00  0.00     0.210 HD
ENDBRANCH  18  36
TORSDOF 4
ENDMDL
MODEL 7
REMARK VINA RESULT:      -7.4      3.611      8.170
REMARK  4 active torsions:
REMARK  status: ('A' for Active; 'I' for Inactive)
REMARK    1  A    between atoms: C_21  and  C_13 
REMARK    2  A    between atoms: C_22  and  C_18 
REMARK    3  A    between atoms: C_23  and  O_30 
REMARK    4  A    between atoms: C_25  and  O_32 
ROOT
HETATM    1  C   UNK N   1      28.281  18.725   8.735  0.00  0.00     0.043 C 
HETATM    2  C   UNK N   1      25.194  18.548   3.527  0.00  0.00     0.012 C 
HETATM    3  C   UNK N   1      25.995  15.212   1.728  0.00  0.00     0.020 C 
HETATM    4  C   UNK N   1      27.934  12.184   4.503  0.00  0.00     0.026 C 
HETATM    5  C   UNK N   1      26.533  12.419   2.541  0.00  0.00     0.026 C 
HETATM    6  C   UNK N   1      26.962  18.954   5.778  0.00  0.00     0.005 C 
HETATM    7  C   UNK N   1      28.432  18.939   6.162  0.00  0.00     0.033 C 
HETATM    8  C   UNK N   1      26.419  17.547   5.473  0.00  0.00     0.007 C 
HETATM    9  C   UNK N   1      29.213  16.923   7.346  0.00  0.00    -0.022 C 
HETATM   10  C   UNK N   1      29.633  16.374   6.008  0.00  0.00     0.064 C 
HETATM   11  C   UNK N   1      30.291  13.572   2.692  0.00  0.00     0.144 C 
HETATM   12  C   UNK N   1      28.658  18.141   7.414  0.00  0.00    -0.087 C 
HETATM   13  C   UNK N   1      25.999  17.343   4.004  0.00  0.00     0.011 C 
HETATM   14  C   UNK N   1      27.251  15.543   2.525  0.00  0.00     0.081 C 
HETATM   15  C   UNK N   1      30.587  15.181   6.033  0.00  0.00     0.164 C 
HETATM   16  C   UNK N   1      28.990  12.844   2.294  0.00  0.00     0.142 C 
HETATM   17  C   UNK N   1      30.612  13.635   4.154  0.00  0.00     0.262 C 
HETATM   18  C   UNK N   1      27.167  17.020   3.015  0.00  0.00     0.132 C 
HETATM   19  C   UNK N   1      27.487  14.486   3.596  0.00  0.00     0.143 C 
HETATM   20  C   UNK N   1      27.752  13.016   3.233  0.00  0.00     0.040 C 
HETATM   21  O   UNK N   1      30.724  12.616   4.814  0.00  0.00    -0.265 OA
HETATM   22  O   UNK N   1      27.489  14.818   4.772  0.00  0.00    -0.297 OA
HETATM   23  O   UNK N   1      30.812  14.856   4.710  0.00  0.00    -0.311 OA
ENDROOT
BRANCH  15  24
HETATM   24  C   UNK N   1      31.920  15.440   6.729  0.00  0.00    -0.052 C 
HETATM   25  C   UNK N   1      32.803  16.479   6.109  0.00  0.00     0.046 C 
HETATM   26  C   UNK N   1      32.309  14.748   7.835  0.00  0.00     0.035 C 
BRANCH  26  27
HETATM   27  C   UNK N   1      33.613  14.847   8.524  0.00  0.00     0.039 A 
HETATM   28  C   UNK N   1      34.732  14.028   8.266  0.00  0.00     0.081 A 
HETATM   29  S   UNK N   1      35.875  14.512   9.367  0.00  0.00    -0.087 SA
HETATM   30  C   UNK N   1      34.996  15.682  10.117  0.00  0.00     0.047 A 
HETATM   31  C   UNK N   1      35.441  16.523  11.258  0.00  0.00     0.076 C 
HETATM   32  N   UNK N   1      33.772  15.755   9.551  0.00  0.00    -0.354 N 
ATOM     33  HN  UNK N   1      33.047  16.408   9.849  1.00  0.00     0.166 HD
ENDBRANCH  26  27
ENDBRANCH  15  24
BRANCH  16  34
HETATM   34  O   UNK N   1      29.271  11.488   2.105  0.00  0.00    -0.394 OA
HETATM   35  H   UNK N   1      29.346  10.855   2.836  0.00  0.00     0.210 HD
ENDBRANCH  16  34
BRANCH  18  36
HETATM   36  O   UNK N   1      28.400  17.431   3.529  0.00  0.00    -0.394 OA
HETATM   37  H   UNK N   1      28.805  17.006   4.301  0.00  0.00     0.210 HD
ENDBRANCH  18  36
TORSDOF 4
ENDMDL
MODEL 8
REMARK VINA RESULT:      -7.3     12.656     16.221
REMARK  4 active torsions:
REMARK  status: ('A' for Active; 'I' for Inactive)
REMARK    1  A    between atoms: C_21  and  C_13 
REMARK    2  A    between atoms: C_22  and  C_18 
REMARK    3  A    between atoms: C_23  and  O_30 
REMARK    4  A    between atoms: C_25  and  O_32 
ROOT
HETATM    1  C   UNK N   1      27.318  22.437  -7.412  0.00  0.00     0.043 C 
HETATM    2  C   UNK N   1      24.235  27.312  -5.562  0.00  0.00     0.012 C 
HETATM    3  C   UNK N   1      26.763  30.012  -4.412  0.00  0.00     0.020 C 
HETATM    4  C   UNK N   1      30.981  29.146  -5.860  0.00  0.00     0.026 C 
HETATM    5  C   UNK N   1      29.450  30.922  -5.252  0.00  0.00     0.026 C 
HETATM    6  C   UNK N   1      25.562  24.784  -6.016  0.00  0.00     0.005 C 
HETATM    7  C   UNK N   1      26.524  23.805  -5.365  0.00  0.00     0.033 C 
HETATM    8  C   UNK N   1      26.250  26.097  -6.430  0.00  0.00     0.007 C 
HETATM    9  C   UNK N   1      28.855  23.895  -6.163  0.00  0.00    -0.022 C 
HETATM   10  C   UNK N   1      29.146  24.830  -5.018  0.00  0.00     0.064 C 
HETATM   11  C   UNK N   1      30.760  28.208  -2.724  0.00  0.00     0.144 C 
HETATM   12  C   UNK N   1      27.617  23.404  -6.314  0.00  0.00    -0.087 C 
HETATM   13  C   UNK N   1      25.757  27.333  -5.653  0.00  0.00     0.011 C 
HETATM   14  C   UNK N   1      27.451  28.681  -4.132  0.00  0.00     0.081 C 
HETATM   15  C   UNK N   1      30.620  25.043  -4.675  0.00  0.00     0.164 C 
HETATM   16  C   UNK N   1      30.463  29.557  -3.412  0.00  0.00     0.142 C 
HETATM   17  C   UNK N   1      31.303  27.112  -3.589  0.00  0.00     0.262 C 
HETATM   18  C   UNK N   1      26.401  27.534  -4.241  0.00  0.00     0.132 C 
HETATM   19  C   UNK N   1      28.699  28.542  -4.994  0.00  0.00     0.143 C 
HETATM   20  C   UNK N   1      29.882  29.514  -4.862  0.00  0.00     0.040 C 
HETATM   21  O   UNK N   1      32.335  27.264  -4.219  0.00  0.00    -0.265 OA
HETATM   22  O   UNK N   1      28.771  27.622  -5.795  0.00  0.00    -0.297 OA
HETATM   23  O   UNK N   1      30.631  25.933  -3.619  0.00  0.00    -0.311 OA
ENDROOT
BRANCH  15  24
HETATM   24  C   UNK N   1      31.379  23.778  -4.286  0.00  0.00    -0.052 C 
HETATM   25  C   UNK N   1      31.066  23.205  -2.938  0.00  0.00     0.046 C 
HETATM   26  C   UNK N   1      32.313  23.212  -5.098  0.00  0.00     0.035 C 
BRANCH  26  27
HETATM   27  C   UNK N   1      33.173  22.053  -4.778  0.00  0.00     0.039 A 
HETATM   28  C   UNK N   1      32.710  20.787  -4.362  0.00  0.00     0.081 A 
HETATM   29  S   UNK N   1      34.084  19.909  -4.063  0.00  0.00    -0.087 SA
HETATM   30  C   UNK N   1      35.189  21.069  -4.437  0.00  0.00     0.047 A 
HETATM   31  C   UNK N   1      36.666  20.937  -4.358  0.00  0.00     0.076 C 
HETATM   32  N   UNK N   1      34.545  22.195  -4.813  0.00  0.00    -0.354 N 
ATOM     33  HN  UNK N   1      35.020  23.054  -5.090  1.00  0.00     0.166 HD
ENDBRANCH  26  27
ENDBRANCH  15  24
BRANCH  16  34
HETATM   34  O   UNK N   1      31.617  30.346  -3.374  0.00  0.00    -0.394 OA
HETATM   35  H   UNK N   1      31.652  31.251  -3.721  0.00  0.00     0.210 HD
ENDBRANCH  16  34
BRANCH  18  36
HETATM   36  O   UNK N   1      26.935  26.340  -3.748  0.00  0.00    -0.394 OA
HETATM   37  H   UNK N   1      26.632  25.472  -4.059  0.00  0.00     0.210 HD
ENDBRANCH  18  36
TORSDOF 4
ENDMDL
MODEL 9
REMARK VINA RESULT:      -7.2      4.004      7.709
REMARK  4 active torsions:
REMARK  status: ('A' for Active; 'I' for Inactive)
REMARK    1  A    between atoms: C_21  and  C_13 
REMARK    2  A    between atoms: C_22  and  C_18 
REMARK    3  A    between atoms: C_23  and  O_30 
REMARK    4  A    between atoms: C_25  and  O_32 
ROOT
HETATM    1  C   UNK N   1      36.613  11.499   6.176  0.00  0.00     0.043 C 
HETATM    2  C   UNK N   1      35.215  16.139   9.810  0.00  0.00     0.012 C 
HETATM    3  C   UNK N   1      32.044  17.881   8.427  0.00  0.00     0.020 C 
HETATM    4  C   UNK N   1      29.851  15.306   5.393  0.00  0.00     0.026 C 
HETATM    5  C   UNK N   1      29.556  17.031   7.069  0.00  0.00     0.026 C 
HETATM    6  C   UNK N   1      36.246  14.217   7.911  0.00  0.00     0.005 C 
HETATM    7  C   UNK N   1      36.634  14.071   6.449  0.00  0.00     0.033 C 
HETATM    8  C   UNK N   1      34.726  14.365   8.104  0.00  0.00     0.007 C 
HETATM    9  C   UNK N   1      34.989  12.930   5.010  0.00  0.00    -0.022 C 
HETATM   10  C   UNK N   1      34.448  14.291   4.654  0.00  0.00     0.064 C 
HETATM   11  C   UNK N   1      31.624  17.531   3.759  0.00  0.00     0.144 C 
HETATM   12  C   UNK N   1      36.030  12.834   5.849  0.00  0.00    -0.087 C 
HETATM   13  C   UNK N   1      34.297  15.737   8.659  0.00  0.00     0.011 C 
HETATM   14  C   UNK N   1      32.747  17.309   7.201  0.00  0.00     0.081 C 
HETATM   15  C   UNK N   1      33.540  14.359   3.427  0.00  0.00     0.164 C 
HETATM   16  C   UNK N   1      30.561  17.683   4.868  0.00  0.00     0.142 C 
HETATM   17  C   UNK N   1      31.892  16.143   3.264  0.00  0.00     0.262 C 
HETATM   18  C   UNK N   1      34.193  16.883   7.598  0.00  0.00     0.132 C 
HETATM   19  C   UNK N   1      31.880  16.240   6.549  0.00  0.00     0.143 C 
HETATM   20  C   UNK N   1      30.498  16.569   5.963  0.00  0.00     0.040 C 
HETATM   21  O   UNK N   1      30.996  15.461   2.798  0.00  0.00    -0.265 OA
HETATM   22  O   UNK N   1      32.302  15.096   6.469  0.00  0.00    -0.297 OA
HETATM   23  O   UNK N   1      33.168  15.684   3.314  0.00  0.00    -0.311 OA
ENDROOT
BRANCH  15  24
HETATM   24  C   UNK N   1      34.184  13.896   2.124  0.00  0.00    -0.052 C 
HETATM   25  C   UNK N   1      33.612  12.658   1.504  0.00  0.00     0.046 C 
HETATM   26  C   UNK N   1      35.241  14.546   1.565  0.00  0.00     0.035 C 
BRANCH  26  27
HETATM   27  C   UNK N   1      36.000  14.127   0.367  0.00  0.00     0.039 A 
HETATM   28  C   UNK N   1      37.146  13.305   0.378  0.00  0.00     0.081 A 
HETATM   29  S   UNK N   1      37.630  13.230  -1.206  0.00  0.00    -0.087 SA
HETATM   30  C   UNK N   1      36.458  14.183  -1.854  0.00  0.00     0.047 A 
HETATM   31  C   UNK N   1      36.318  14.560  -3.284  0.00  0.00     0.076 C 
HETATM   32  N   UNK N   1      35.632  14.608  -0.873  0.00  0.00    -0.354 N 
ATOM     33  HN  UNK N   1      34.828  15.215  -1.031  1.00  0.00     0.166 HD
ENDBRANCH  26  27
ENDBRANCH  15  24
BRANCH  16  34
HETATM   34  O   UNK N   1      29.308  17.849   4.272  0.00  0.00    -0.394 OA
HETATM   35  H   UNK N   1      28.759  17.107   3.975  0.00  0.00     0.210 HD
ENDBRANCH  16  34
BRANCH  18  36
HETATM   36  O   UNK N   1      34.943  16.591   6.456  0.00  0.00    -0.394 OA
HETATM   37  H   UNK N   1      35.884  16.817   6.384  0.00  0.00     0.210 HD
ENDBRANCH  18  36
TORSDOF 4
ENDMDL
