REMARK  2 active torsions:
REMARK  status: ('A' for Active; 'I' for Inactive)
REMARK    1  A    between atoms: O_13  and  C_3 
REMARK    2  A    between atoms: O_14  and  C_4 
ROOT
HETATM    1  C   UNK N   1       0.408  -0.086   0.000  0.00  0.00     0.142 A 
HETATM    2  C   UNK N   1       0.414  -1.428   0.000  0.00  0.00     0.154 A 
HETATM    3  C   UNK N   1       1.596   0.618   0.000  0.00  0.00     0.175 A 
HETATM    4  C   UNK N   1       2.742  -1.479  -0.000  0.00  0.00     0.224 A 
HETATM    5  N   UNK N   1       1.552  -2.157   0.000  0.00  0.00    -0.305 N 
ATOM      6  HN  UNK N   1       1.526  -3.177   0.000  1.00  0.00     0.171 HD
HETATM    7  N   UNK N   1       2.761  -0.101  -0.000  0.00  0.00    -0.301 N 
ATOM      8  HN  UNK N   1       3.655   0.390  -0.000  1.00  0.00     0.171 HD
HETATM    9  N   UNK N   1      -0.866   0.328  -0.000  0.00  0.00    -0.277 N 
ATOM     10  HN  UNK N   1      -1.197   1.293  -0.000  1.00  0.00     0.184 HD
HETATM   11  N   UNK N   1      -0.848  -1.869   0.000  0.00  0.00    -0.267 N 
HETATM   12  N   UNK N   1      -1.613  -0.777  -0.000  0.00  0.00    -0.020 NA
HETATM   13  H   UNK N   1      -1.150  -2.806   0.000  0.00  0.00     0.186 HD
ENDROOT
BRANCH   3  14
HETATM   14  O   UNK N   1       1.615   1.962  -0.000  0.00  0.00    -0.344 OA
HETATM   15  H   UNK N   1       2.432   2.419  -0.000  0.00  0.00     0.219 HD
ENDBRANCH   3  14
BRANCH   4  16
HETATM   16  O   UNK N   1       3.897  -2.163  -0.000  0.00  0.00    -0.332 OA
HETATM   17  H   UNK N   1       3.886  -3.100  -0.000  0.00  0.00     0.221 HD
ENDBRANCH   4  16
TORSDOF 2
