MODEL 1
REMARK VINA RESULT:      -5.7      0.000      0.000
REMARK  15 active torsions:
REMARK  status: ('A' for Active; 'I' for Inactive)
REMARK    1  A    between atoms: C_2  and  O_1 
REMARK    2  A    between atoms: C_3  and  O_4 
REMARK    3  A    between atoms: C_5  and  O_6 
REMARK    4  A    between atoms: O_6  and  P_7 
REMARK    5  A    between atoms: P_7  and  O_8 
REMARK    6  A    between atoms: P_7  and  O_9 
REMARK    7  A    between atoms: C_11  and  O_12 
REMARK    8  A    between atoms: O_12  and  P_13 
REMARK    9  A    between atoms: P_13  and  O_14 
REMARK   10  A    between atoms: P_13  and  O_15 
REMARK   11  A    between atoms: C_17  and  O_18 
REMARK   12  A    between atoms: C_19  and  O_20 
REMARK   13  A    between atoms: O_20  and  P_21 
REMARK   14  A    between atoms: P_21  and  O_22 
REMARK   15  A    between atoms: P_21  and  O_23 
ROOT
HETATM    1  C   UNK N   1      19.577  18.260   3.522  0.00  0.00     0.181 C 
HETATM    2  C   UNK N   1      19.840  16.797   3.878  0.00  0.00     0.181 C 
HETATM    3  C   UNK N   1      20.922  16.695   4.961  0.00  0.00     0.197 C 
HETATM    4  C   UNK N   1      22.222  17.355   4.469  0.00  0.00     0.197 C 
HETATM    5  C   UNK N   1      21.936  18.835   4.171  0.00  0.00     0.182 C 
HETATM    6  C   UNK N   1      20.865  18.964   3.084  0.00  0.00     0.196 C 
ENDROOT
BRANCH   3   7
HETATM    7  O   UNK N   1      21.129  15.356   5.324  0.00  0.00    -0.286 OA
BRANCH   7   8
HETATM    8  P   UNK N   1      20.573  15.234   6.975  0.00  0.00     0.391 P 
HETATM    9  O   UNK N   1      21.997  14.632   7.079  0.00  0.00    -0.632 OA
BRANCH   8  10
HETATM   10  O   UNK N   1      20.298  13.709   7.755  0.00  0.00    -0.307 OA
HETATM   11  H   UNK N   1      19.648  13.078   7.405  0.00  0.00     0.222 HD
ENDBRANCH   8  10
BRANCH   8  12
HETATM   12  O   UNK N   1      19.598  14.183   5.995  0.00  0.00    -0.307 OA
HETATM   13  H   UNK N   1      19.213  13.333   6.262  0.00  0.00     0.222 HD
ENDBRANCH   8  12
ENDBRANCH   7   8
ENDBRANCH   3   7
BRANCH   2  14
HETATM   14  O   UNK N   1      18.655  16.215   4.335  0.00  0.00    -0.390 OA
HETATM   15  H   UNK N   1      18.582  15.250   4.401  0.00  0.00     0.210 HD
ENDBRANCH   2  14
BRANCH   4  16
HETATM   16  O   UNK N   1      23.221  17.231   5.455  0.00  0.00    -0.286 OA
BRANCH  16  17
HETATM   17  P   UNK N   1      24.673  16.717   4.627  0.00  0.00     0.391 P 
HETATM   18  O   UNK N   1      25.794  16.361   5.640  0.00  0.00    -0.632 OA
BRANCH  17  19
HETATM   19  O   UNK N   1      24.979  18.194   5.490  0.00  0.00    -0.307 OA
HETATM   20  H   UNK N   1      25.166  18.898   6.130  0.00  0.00     0.222 HD
ENDBRANCH  17  19
BRANCH  17  21
HETATM   21  O   UNK N   1      24.056  15.336   5.477  0.00  0.00    -0.307 OA
HETATM   22  H   UNK N   1      23.167  15.284   5.861  0.00  0.00     0.222 HD
ENDBRANCH  17  21
ENDBRANCH  16  17
ENDBRANCH   4  16
BRANCH   1  23
HETATM   23  O   UNK N   1      18.629  18.335   2.499  0.00  0.00    -0.390 OA
HETATM   24  H   UNK N   1      18.419  19.126   1.980  0.00  0.00     0.210 HD
ENDBRANCH   1  23
BRANCH   5  25
HETATM   25  O   UNK N   1      23.099  19.483   3.752  0.00  0.00    -0.390 OA
HETATM   26  H   UNK N   1      23.870  18.965   3.473  0.00  0.00     0.210 HD
ENDBRANCH   5  25
BRANCH   6  27
HETATM   27  O   UNK N   1      20.599  20.317   2.848  0.00  0.00    -0.286 OA
BRANCH  27  28
HETATM   28  P   UNK N   1      21.011  20.626   1.181  0.00  0.00     0.391 P 
HETATM   29  O   UNK N   1      22.561  20.623   1.105  0.00  0.00    -0.632 OA
BRANCH  28  30
HETATM   30  O   UNK N   1      20.471  19.381   0.095  0.00  0.00    -0.307 OA
HETATM   31  H   UNK N   1      20.555  18.419  -0.002  0.00  0.00     0.222 HD
ENDBRANCH  28  30
BRANCH  28  32
HETATM   32  O   UNK N   1      20.490  22.197   0.660  0.00  0.00    -0.307 OA
HETATM   33  H   UNK N   1      19.565  22.483   0.604  0.00  0.00     0.222 HD
ENDBRANCH  28  32
ENDBRANCH  27  28
ENDBRANCH   6  27
TORSDOF 15
ENDMDL
MODEL 2
REMARK VINA RESULT:      -5.4      2.403      4.146
REMARK  15 active torsions:
REMARK  status: ('A' for Active; 'I' for Inactive)
REMARK    1  A    between atoms: C_2  and  O_1 
REMARK    2  A    between atoms: C_3  and  O_4 
REMARK    3  A    between atoms: C_5  and  O_6 
REMARK    4  A    between atoms: O_6  and  P_7 
REMARK    5  A    between atoms: P_7  and  O_8 
REMARK    6  A    between atoms: P_7  and  O_9 
REMARK    7  A    between atoms: C_11  and  O_12 
REMARK    8  A    between atoms: O_12  and  P_13 
REMARK    9  A    between atoms: P_13  and  O_14 
REMARK   10  A    between atoms: P_13  and  O_15 
REMARK   11  A    between atoms: C_17  and  O_18 
REMARK   12  A    between atoms: C_19  and  O_20 
REMARK   13  A    between atoms: O_20  and  P_21 
REMARK   14  A    between atoms: P_21  and  O_22 
REMARK   15  A    between atoms: P_21  and  O_23 
ROOT
HETATM    1  C   UNK N   1      21.399  17.727   6.567  0.00  0.00     0.181 C 
HETATM    2  C   UNK N   1      20.468  16.777   7.318  0.00  0.00     0.181 C 
HETATM    3  C   UNK N   1      20.800  15.318   6.974  0.00  0.00     0.197 C 
HETATM    4  C   UNK N   1      20.665  15.093   5.458  0.00  0.00     0.197 C 
HETATM    5  C   UNK N   1      21.650  16.024   4.736  0.00  0.00     0.182 C 
HETATM    6  C   UNK N   1      21.333  17.489   5.056  0.00  0.00     0.196 C 
ENDROOT
BRANCH   3   7
HETATM    7  O   UNK N   1      19.979  14.444   7.700  0.00  0.00    -0.286 OA
BRANCH   7   8
HETATM    8  P   UNK N   1      20.928  13.963   9.085  0.00  0.00     0.391 P 
HETATM    9  O   UNK N   1      20.830  12.632   8.297  0.00  0.00    -0.632 OA
BRANCH   8  10
HETATM   10  O   UNK N   1      20.341  12.846  10.275  0.00  0.00    -0.307 OA
HETATM   11  H   UNK N   1      20.910  12.141  10.624  0.00  0.00     0.222 HD
ENDBRANCH   8  10
BRANCH   8  12
HETATM   12  O   UNK N   1      19.341  14.397   9.640  0.00  0.00    -0.307 OA
HETATM   13  H   UNK N   1      18.563  14.574   9.088  0.00  0.00     0.222 HD
ENDBRANCH   8  12
ENDBRANCH   7   8
ENDBRANCH   3   7
BRANCH   2  14
HETATM   14  O   UNK N   1      20.611  16.984   8.693  0.00  0.00    -0.390 OA
HETATM   15  H   UNK N   1      20.230  17.774   9.107  0.00  0.00     0.210 HD
ENDBRANCH   2  14
BRANCH   4  16
HETATM   16  O   UNK N   1      20.940  13.745   5.151  0.00  0.00    -0.286 OA
BRANCH  16  17
HETATM   17  P   UNK N   1      19.553  13.144   4.272  0.00  0.00     0.391 P 
HETATM   18  O   UNK N   1      19.703  11.630   3.964  0.00  0.00    -0.632 OA
BRANCH  17  19
HETATM   19  O   UNK N   1      20.975  13.030   3.279  0.00  0.00    -0.307 OA
HETATM   20  H   UNK N   1      21.865  12.962   2.899  0.00  0.00     0.222 HD
ENDBRANCH  17  19
BRANCH  17  21
HETATM   21  O   UNK N   1      19.532  12.389   5.833  0.00  0.00    -0.307 OA
HETATM   22  H   UNK N   1      19.197  11.496   6.003  0.00  0.00     0.222 HD
ENDBRANCH  17  21
ENDBRANCH  16  17
ENDBRANCH   4  16
BRANCH   1  23
HETATM   23  O   UNK N   1      21.052  19.051   6.849  0.00  0.00    -0.390 OA
HETATM   24  H   UNK N   1      20.318  19.540   6.446  0.00  0.00     0.210 HD
ENDBRANCH   1  23
BRANCH   5  25
HETATM   25  O   UNK N   1      21.585  15.829   3.355  0.00  0.00    -0.390 OA
HETATM   26  H   UNK N   1      20.847  15.332   2.969  0.00  0.00     0.210 HD
ENDBRANCH   5  25
BRANCH   6  27
HETATM   27  O   UNK N   1      22.258  18.318   4.412  0.00  0.00    -0.286 OA
BRANCH  27  28
HETATM   28  P   UNK N   1      21.350  19.328   3.317  0.00  0.00     0.391 P 
HETATM   29  O   UNK N   1      20.433  20.217   4.200  0.00  0.00    -0.632 OA
BRANCH  28  30
HETATM   30  O   UNK N   1      22.344  20.419   2.400  0.00  0.00    -0.307 OA
HETATM   31  H   UNK N   1      22.514  21.373   2.348  0.00  0.00     0.222 HD
ENDBRANCH  28  30
BRANCH  28  32
HETATM   32  O   UNK N   1      20.302  18.401   2.290  0.00  0.00    -0.307 OA
HETATM   33  H   UNK N   1      19.580  17.833   2.604  0.00  0.00     0.222 HD
ENDBRANCH  28  32
ENDBRANCH  27  28
ENDBRANCH   6  27
TORSDOF 15
ENDMDL
MODEL 3
REMARK VINA RESULT:      -5.4     12.121     15.455
REMARK  15 active torsions:
REMARK  status: ('A' for Active; 'I' for Inactive)
REMARK    1  A    between atoms: C_2  and  O_1 
REMARK    2  A    between atoms: C_3  and  O_4 
REMARK    3  A    between atoms: C_5  and  O_6 
REMARK    4  A    between atoms: O_6  and  P_7 
REMARK    5  A    between atoms: P_7  and  O_8 
REMARK    6  A    between atoms: P_7  and  O_9 
REMARK    7  A    between atoms: C_11  and  O_12 
REMARK    8  A    between atoms: O_12  and  P_13 
REMARK    9  A    between atoms: P_13  and  O_14 
REMARK   10  A    between atoms: P_13  and  O_15 
REMARK   11  A    between atoms: C_17  and  O_18 
REMARK   12  A    between atoms: C_19  and  O_20 
REMARK   13  A    between atoms: O_20  and  P_21 
REMARK   14  A    between atoms: P_21  and  O_22 
REMARK   15  A    between atoms: P_21  and  O_23 
ROOT
HETATM    1  C   UNK N   1      34.539  12.633   9.885  0.00  0.00     0.181 C 
HETATM    2  C   UNK N   1      33.423  13.313   9.092  0.00  0.00     0.181 C 
HETATM    3  C   UNK N   1      33.998  14.423   8.202  0.00  0.00     0.197 C 
HETATM    4  C   UNK N   1      34.733  15.462   9.068  0.00  0.00     0.197 C 
HETATM    5  C   UNK N   1      35.879  14.757   9.809  0.00  0.00     0.182 C 
HETATM    6  C   UNK N   1      35.329  13.649  10.713  0.00  0.00     0.196 C 
ENDROOT
BRANCH   3   7
HETATM    7  O   UNK N   1      32.983  15.015   7.437  0.00  0.00    -0.286 OA
BRANCH   7   8
HETATM    8  P   UNK N   1      33.125  14.301   5.850  0.00  0.00     0.391 P 
HETATM    9  O   UNK N   1      33.306  15.808   5.533  0.00  0.00    -0.632 OA
BRANCH   8  10
HETATM   10  O   UNK N   1      31.960  14.580   4.595  0.00  0.00    -0.307 OA
HETATM   11  H   UNK N   1      32.025  15.356   4.016  0.00  0.00     0.222 HD
ENDBRANCH   8  10
BRANCH   8  12
HETATM   12  O   UNK N   1      31.504  14.045   6.416  0.00  0.00    -0.307 OA
HETATM   13  H   UNK N   1      31.224  13.919   7.336  0.00  0.00     0.222 HD
ENDBRANCH   8  12
ENDBRANCH   7   8
ENDBRANCH   3   7
BRANCH   2  14
HETATM   14  O   UNK N   1      32.773  12.361   8.302  0.00  0.00    -0.390 OA
HETATM   15  H   UNK N   1      33.259  11.589   7.973  0.00  0.00     0.210 HD
ENDBRANCH   2  14
BRANCH   4  16
HETATM   16  O   UNK N   1      35.232  16.495   8.249  0.00  0.00    -0.286 OA
BRANCH  16  17
HETATM   17  P   UNK N   1      34.149  17.853   8.451  0.00  0.00     0.391 P 
HETATM   18  O   UNK N   1      34.895  19.196   8.232  0.00  0.00    -0.632 OA
BRANCH  17  19
HETATM   19  O   UNK N   1      35.373  17.888   9.684  0.00  0.00    -0.307 OA
HETATM   20  H   UNK N   1      35.959  18.070  10.435  0.00  0.00     0.222 HD
ENDBRANCH  17  19
BRANCH  17  21
HETATM   21  O   UNK N   1      34.613  17.815   6.779  0.00  0.00    -0.307 OA
HETATM   22  H   UNK N   1      35.529  17.853   6.466  0.00  0.00     0.222 HD
ENDBRANCH  17  21
ENDBRANCH  16  17
ENDBRANCH   4  16
BRANCH   1  23
HETATM   23  O   UNK N   1      33.994  11.661  10.728  0.00  0.00    -0.390 OA
HETATM   24  H   UNK N   1      33.956  10.710  10.544  0.00  0.00     0.210 HD
ENDBRANCH   1  23
BRANCH   5  25
HETATM   25  O   UNK N   1      36.596  15.671  10.584  0.00  0.00    -0.390 OA
HETATM   26  H   UNK N   1      36.200  16.525  10.817  0.00  0.00     0.210 HD
ENDBRANCH   5  25
BRANCH   6  27
HETATM   27  O   UNK N   1      36.389  13.003  11.357  0.00  0.00    -0.286 OA
BRANCH  27  28
HETATM   28  P   UNK N   1      36.145  13.222  13.070  0.00  0.00     0.391 P 
HETATM   29  O   UNK N   1      36.984  12.124  13.777  0.00  0.00    -0.632 OA
BRANCH  28  30
HETATM   30  O   UNK N   1      36.742  14.743  13.662  0.00  0.00    -0.307 OA
HETATM   31  H   UNK N   1      37.394  15.064  14.306  0.00  0.00     0.222 HD
ENDBRANCH  28  30
BRANCH  28  32
HETATM   32  O   UNK N   1      34.493  12.960  13.534  0.00  0.00    -0.307 OA
HETATM   33  H   UNK N   1      34.207  12.387  14.262  0.00  0.00     0.222 HD
ENDBRANCH  28  32
ENDBRANCH  27  28
ENDBRANCH   6  27
TORSDOF 15
ENDMDL
MODEL 4
REMARK VINA RESULT:      -5.3      6.898     10.133
REMARK  15 active torsions:
REMARK  status: ('A' for Active; 'I' for Inactive)
REMARK    1  A    between atoms: C_2  and  O_1 
REMARK    2  A    between atoms: C_3  and  O_4 
REMARK    3  A    between atoms: C_5  and  O_6 
REMARK    4  A    between atoms: O_6  and  P_7 
REMARK    5  A    between atoms: P_7  and  O_8 
REMARK    6  A    between atoms: P_7  and  O_9 
REMARK    7  A    between atoms: C_11  and  O_12 
REMARK    8  A    between atoms: O_12  and  P_13 
REMARK    9  A    between atoms: P_13  and  O_14 
REMARK   10  A    between atoms: P_13  and  O_15 
REMARK   11  A    between atoms: C_17  and  O_18 
REMARK   12  A    between atoms: C_19  and  O_20 
REMARK   13  A    between atoms: O_20  and  P_21 
REMARK   14  A    between atoms: P_21  and  O_22 
REMARK   15  A    between atoms: P_21  and  O_23 
ROOT
HETATM    1  C   UNK N   1      28.941  17.852   7.539  0.00  0.00     0.181 C 
HETATM    2  C   UNK N   1      30.241  17.150   7.930  0.00  0.00     0.181 C 
HETATM    3  C   UNK N   1      31.362  17.514   6.947  0.00  0.00     0.197 C 
HETATM    4  C   UNK N   1      30.960  17.111   5.518  0.00  0.00     0.197 C 
HETATM    5  C   UNK N   1      29.681  17.873   5.138  0.00  0.00     0.182 C 
HETATM    6  C   UNK N   1      28.542  17.518   6.099  0.00  0.00     0.196 C 
ENDROOT
BRANCH   3   7
HETATM    7  O   UNK N   1      32.568  16.911   7.333  0.00  0.00    -0.286 OA
BRANCH   7   8
HETATM    8  P   UNK N   1      33.536  18.200   8.003  0.00  0.00     0.391 P 
HETATM    9  O   UNK N   1      34.455  17.676   6.870  0.00  0.00    -0.632 OA
BRANCH   8  10
HETATM   10  O   UNK N   1      35.039  17.909   8.819  0.00  0.00    -0.307 OA
HETATM   11  H   UNK N   1      35.113  17.223   9.502  0.00  0.00     0.222 HD
ENDBRANCH   8  10
BRANCH   8  12
HETATM   12  O   UNK N   1      33.379  16.959   9.207  0.00  0.00    -0.307 OA
HETATM   13  H   UNK N   1      33.316  16.004   9.050  0.00  0.00     0.222 HD
ENDBRANCH   8  12
ENDBRANCH   7   8
ENDBRANCH   3   7
BRANCH   2  14
HETATM   14  O   UNK N   1      30.601  17.535   9.224  0.00  0.00    -0.390 OA
HETATM   15  H   UNK N   1      29.974  17.422   9.956  0.00  0.00     0.210 HD
ENDBRANCH   2  14
BRANCH   4  16
HETATM   16  O   UNK N   1      32.006  17.420   4.625  0.00  0.00    -0.286 OA
BRANCH  16  17
HETATM   17  P   UNK N   1      32.250  15.997   3.638  0.00  0.00     0.391 P 
HETATM   18  O   UNK N   1      33.450  16.189   2.672  0.00  0.00    -0.632 OA
BRANCH  17  19
HETATM   19  O   UNK N   1      31.800  17.341   2.632  0.00  0.00    -0.307 OA
HETATM   20  H   UNK N   1      31.665  18.001   1.935  0.00  0.00     0.222 HD
ENDBRANCH  17  19
BRANCH  17  21
HETATM   21  O   UNK N   1      33.625  16.130   4.688  0.00  0.00    -0.307 OA
HETATM   22  H   UNK N   1      34.542  15.997   4.406  0.00  0.00     0.222 HD
ENDBRANCH  17  21
ENDBRANCH  16  17
ENDBRANCH   4  16
BRANCH   1  23
HETATM   23  O   UNK N   1      27.917  17.470   8.410  0.00  0.00    -0.390 OA
HETATM   24  H   UNK N   1      27.425  18.063   8.998  0.00  0.00     0.210 HD
ENDBRANCH   1  23
BRANCH   5  25
HETATM   25  O   UNK N   1      29.297  17.562   3.832  0.00  0.00    -0.390 OA
HETATM   26  H   UNK N   1      29.962  17.521   3.128  0.00  0.00     0.210 HD
ENDBRANCH   5  25
BRANCH   6  27
HETATM   27  O   UNK N   1      27.397  18.243   5.752  0.00  0.00    -0.286 OA
BRANCH  27  28
HETATM   28  P   UNK N   1      26.124  17.077   5.495  0.00  0.00     0.391 P 
HETATM   29  O   UNK N   1      26.514  16.277   4.224  0.00  0.00    -0.632 OA
BRANCH  28  30
HETATM   30  O   UNK N   1      25.987  15.912   6.777  0.00  0.00    -0.307 OA
HETATM   31  H   UNK N   1      25.318  15.609   7.411  0.00  0.00     0.222 HD
ENDBRANCH  28  30
BRANCH  28  32
HETATM   32  O   UNK N   1      24.601  17.837   5.157  0.00  0.00    -0.307 OA
HETATM   33  H   UNK N   1      23.866  17.416   4.683  0.00  0.00     0.222 HD
ENDBRANCH  28  32
ENDBRANCH  27  28
ENDBRANCH   6  27
TORSDOF 15
ENDMDL
MODEL 5
REMARK VINA RESULT:      -5.2      7.783     10.907
REMARK  15 active torsions:
REMARK  status: ('A' for Active; 'I' for Inactive)
REMARK    1  A    between atoms: C_2  and  O_1 
REMARK    2  A    between atoms: C_3  and  O_4 
REMARK    3  A    between atoms: C_5  and  O_6 
REMARK    4  A    between atoms: O_6  and  P_7 
REMARK    5  A    between atoms: P_7  and  O_8 
REMARK    6  A    between atoms: P_7  and  O_9 
REMARK    7  A    between atoms: C_11  and  O_12 
REMARK    8  A    between atoms: O_12  and  P_13 
REMARK    9  A    between atoms: P_13  and  O_14 
REMARK   10  A    between atoms: P_13  and  O_15 
REMARK   11  A    between atoms: C_17  and  O_18 
REMARK   12  A    between atoms: C_19  and  O_20 
REMARK   13  A    between atoms: O_20  and  P_21 
REMARK   14  A    between atoms: P_21  and  O_22 
REMARK   15  A    between atoms: P_21  and  O_23 
ROOT
HETATM    1  C   UNK N   1      30.024  16.664   4.233  0.00  0.00     0.181 C 
HETATM    2  C   UNK N   1      31.509  16.711   3.875  0.00  0.00     0.181 C 
HETATM    3  C   UNK N   1      32.362  16.244   5.062  0.00  0.00     0.197 C 
HETATM    4  C   UNK N   1      32.090  17.134   6.287  0.00  0.00     0.197 C 
HETATM    5  C   UNK N   1      30.602  17.022   6.652  0.00  0.00     0.182 C 
HETATM    6  C   UNK N   1      29.729  17.494   5.485  0.00  0.00     0.196 C 
ENDROOT
BRANCH   3   7
HETATM    7  O   UNK N   1      33.721  16.240   4.719  0.00  0.00    -0.286 OA
BRANCH   7   8
HETATM    8  P   UNK N   1      34.283  14.625   5.073  0.00  0.00     0.391 P 
HETATM    9  O   UNK N   1      35.428  15.490   5.659  0.00  0.00    -0.632 OA
BRANCH   8  10
HETATM   10  O   UNK N   1      35.700  13.948   4.337  0.00  0.00    -0.307 OA
HETATM   11  H   UNK N   1      36.281  13.347   4.829  0.00  0.00     0.222 HD
ENDBRANCH   8  10
BRANCH   8  12
HETATM   12  O   UNK N   1      34.263  14.825   3.349  0.00  0.00    -0.307 OA
HETATM   13  H   UNK N   1      34.621  15.575   2.848  0.00  0.00     0.222 HD
ENDBRANCH   8  12
ENDBRANCH   7   8
ENDBRANCH   3   7
BRANCH   2  14
HETATM   14  O   UNK N   1      31.743  15.890   2.770  0.00  0.00    -0.390 OA
HETATM   15  H   UNK N   1      31.865  14.935   2.891  0.00  0.00     0.210 HD
ENDBRANCH   2  14
BRANCH   4  16
HETATM   16  O   UNK N   1      32.898  16.719   7.365  0.00  0.00    -0.286 OA
BRANCH  16  17
HETATM   17  P   UNK N   1      33.439  18.175   8.168  0.00  0.00     0.391 P 
HETATM   18  O   UNK N   1      34.717  17.906   9.006  0.00  0.00    -0.632 OA
BRANCH  17  19
HETATM   19  O   UNK N   1      32.956  16.996   9.349  0.00  0.00    -0.307 OA
HETATM   20  H   UNK N   1      32.836  16.230   9.932  0.00  0.00     0.222 HD
ENDBRANCH  17  19
BRANCH  17  21
HETATM   21  O   UNK N   1      34.643  17.767   6.988  0.00  0.00    -0.307 OA
HETATM   22  H   UNK N   1      34.499  17.159   6.248  0.00  0.00     0.222 HD
ENDBRANCH  17  21
ENDBRANCH  16  17
ENDBRANCH   4  16
BRANCH   1  23
HETATM   23  O   UNK N   1      29.264  17.142   3.162  0.00  0.00    -0.390 OA
HETATM   24  H   UNK N   1      29.571  17.764   2.485  0.00  0.00     0.210 HD
ENDBRANCH   1  23
BRANCH   5  25
HETATM   25  O   UNK N   1      30.316  17.790   7.782  0.00  0.00    -0.390 OA
HETATM   26  H   UNK N   1      29.396  17.924   8.058  0.00  0.00     0.210 HD
ENDBRANCH   5  25
BRANCH   6  27
HETATM   27  O   UNK N   1      28.379  17.357   5.827  0.00  0.00    -0.286 OA
BRANCH  27  28
HETATM   28  P   UNK N   1      27.658  18.937   5.666  0.00  0.00     0.391 P 
HETATM   29  O   UNK N   1      28.028  19.722   6.953  0.00  0.00    -0.632 OA
BRANCH  28  30
HETATM   30  O   UNK N   1      28.301  19.856   4.338  0.00  0.00    -0.307 OA
HETATM   31  H   UNK N   1      28.771  20.693   4.197  0.00  0.00     0.222 HD
ENDBRANCH  28  30
BRANCH  28  32
HETATM   32  O   UNK N   1      25.925  18.862   5.611  0.00  0.00    -0.307 OA
HETATM   33  H   UNK N   1      25.410  18.496   4.874  0.00  0.00     0.222 HD
ENDBRANCH  28  32
ENDBRANCH  27  28
ENDBRANCH   6  27
TORSDOF 15
ENDMDL
MODEL 6
REMARK VINA RESULT:      -5.0     11.213     14.428
REMARK  15 active torsions:
REMARK  status: ('A' for Active; 'I' for Inactive)
REMARK    1  A    between atoms: C_2  and  O_1 
REMARK    2  A    between atoms: C_3  and  O_4 
REMARK    3  A    between atoms: C_5  and  O_6 
REMARK    4  A    between atoms: O_6  and  P_7 
REMARK    5  A    between atoms: P_7  and  O_8 
REMARK    6  A    between atoms: P_7  and  O_9 
REMARK    7  A    between atoms: C_11  and  O_12 
REMARK    8  A    between atoms: O_12  and  P_13 
REMARK    9  A    between atoms: P_13  and  O_14 
REMARK   10  A    between atoms: P_13  and  O_15 
REMARK   11  A    between atoms: C_17  and  O_18 
REMARK   12  A    between atoms: C_19  and  O_20 
REMARK   13  A    between atoms: O_20  and  P_21 
REMARK   14  A    between atoms: P_21  and  O_22 
REMARK   15  A    between atoms: P_21  and  O_23 
ROOT
HETATM    1  C   UNK N   1      34.416  16.810   9.412  0.00  0.00     0.181 C 
HETATM    2  C   UNK N   1      34.480  16.821   7.885  0.00  0.00     0.181 C 
HETATM    3  C   UNK N   1      33.292  16.050   7.293  0.00  0.00     0.197 C 
HETATM    4  C   UNK N   1      33.298  14.600   7.807  0.00  0.00     0.197 C 
HETATM    5  C   UNK N   1      33.179  14.623   9.338  0.00  0.00     0.182 C 
HETATM    6  C   UNK N   1      34.361  15.379   9.954  0.00  0.00     0.196 C 
ENDROOT
BRANCH   3   7
HETATM    7  O   UNK N   1      33.323  16.102   5.892  0.00  0.00    -0.286 OA
BRANCH   7   8
HETATM    8  P   UNK N   1      32.021  17.174   5.441  0.00  0.00     0.391 P 
HETATM    9  O   UNK N   1      31.727  15.936   4.555  0.00  0.00    -0.632 OA
BRANCH   8  10
HETATM   10  O   UNK N   1      31.882  17.854   3.851  0.00  0.00    -0.307 OA
HETATM   11  H   UNK N   1      32.669  18.026   3.310  0.00  0.00     0.222 HD
ENDBRANCH   8  10
BRANCH   8  12
HETATM   12  O   UNK N   1      33.515  17.887   4.918  0.00  0.00    -0.307 OA
HETATM   13  H   UNK N   1      34.249  17.433   4.474  0.00  0.00     0.222 HD
ENDBRANCH   8  12
ENDBRANCH   7   8
ENDBRANCH   3   7
BRANCH   2  14
HETATM   14  O   UNK N   1      34.462  18.142   7.433  0.00  0.00    -0.390 OA
HETATM   15  H   UNK N   1      33.712  18.719   7.647  0.00  0.00     0.210 HD
ENDBRANCH   2  14
BRANCH   4  16
HETATM   16  O   UNK N   1      32.223  13.889   7.236  0.00  0.00    -0.286 OA
BRANCH  16  17
HETATM   17  P   UNK N   1      32.906  12.886   5.977  0.00  0.00     0.391 P 
HETATM   18  O   UNK N   1      32.087  11.578   5.803  0.00  0.00    -0.632 OA
BRANCH  17  19
HETATM   19  O   UNK N   1      33.031  12.075   7.510  0.00  0.00    -0.307 OA
HETATM   20  H   UNK N   1      32.969  11.761   8.425  0.00  0.00     0.222 HD
ENDBRANCH  17  19
BRANCH  17  21
HETATM   21  O   UNK N   1      31.357  13.426   5.413  0.00  0.00    -0.307 OA
HETATM   22  H   UNK N   1      30.509  13.093   5.744  0.00  0.00     0.222 HD
ENDBRANCH  17  21
ENDBRANCH  16  17
ENDBRANCH   4  16
BRANCH   1  23
HETATM   23  O   UNK N   1      35.531  17.468   9.937  0.00  0.00    -0.390 OA
HETATM   24  H   UNK N   1      36.363  17.047  10.202  0.00  0.00     0.210 HD
ENDBRANCH   1  23
BRANCH   5  25
HETATM   25  O   UNK N   1      33.147  13.323   9.846  0.00  0.00    -0.390 OA
HETATM   26  H   UNK N   1      33.414  12.578   9.287  0.00  0.00     0.210 HD
ENDBRANCH   5  25
BRANCH   6  27
HETATM   27  O   UNK N   1      34.219  15.413  11.346  0.00  0.00    -0.286 OA
BRANCH  27  28
HETATM   28  P   UNK N   1      35.330  14.234  11.992  0.00  0.00     0.391 P 
HETATM   29  O   UNK N   1      36.147  13.695  10.788  0.00  0.00    -0.632 OA
BRANCH  28  30
HETATM   30  O   UNK N   1      36.488  14.911  13.098  0.00  0.00    -0.307 OA
HETATM   31  H   UNK N   1      37.222  15.545  13.078  0.00  0.00     0.222 HD
ENDBRANCH  28  30
BRANCH  28  32
HETATM   32  O   UNK N   1      34.507  12.871  12.684  0.00  0.00    -0.307 OA
HETATM   33  H   UNK N   1      34.919  12.214  13.267  0.00  0.00     0.222 HD
ENDBRANCH  28  32
ENDBRANCH  27  28
ENDBRANCH   6  27
TORSDOF 15
ENDMDL
MODEL 7
REMARK VINA RESULT:      -5.0     11.751     14.276
REMARK  15 active torsions:
REMARK  status: ('A' for Active; 'I' for Inactive)
REMARK    1  A    between atoms: C_2  and  O_1 
REMARK    2  A    between atoms: C_3  and  O_4 
REMARK    3  A    between atoms: C_5  and  O_6 
REMARK    4  A    between atoms: O_6  and  P_7 
REMARK    5  A    between atoms: P_7  and  O_8 
REMARK    6  A    between atoms: P_7  and  O_9 
REMARK    7  A    between atoms: C_11  and  O_12 
REMARK    8  A    between atoms: O_12  and  P_13 
REMARK    9  A    between atoms: P_13  and  O_14 
REMARK   10  A    between atoms: P_13  and  O_15 
REMARK   11  A    between atoms: C_17  and  O_18 
REMARK   12  A    between atoms: C_19  and  O_20 
REMARK   13  A    between atoms: O_20  and  P_21 
REMARK   14  A    between atoms: P_21  and  O_22 
REMARK   15  A    between atoms: P_21  and  O_23 
ROOT
HETATM    1  C   UNK N   1      30.655  22.999  -2.794  0.00  0.00     0.181 C 
HETATM    2  C   UNK N   1      31.273  21.615  -2.992  0.00  0.00     0.181 C 
HETATM    3  C   UNK N   1      31.808  21.466  -4.422  0.00  0.00     0.197 C 
HETATM    4  C   UNK N   1      30.669  21.679  -5.434  0.00  0.00     0.197 C 
HETATM    5  C   UNK N   1      30.106  23.096  -5.244  0.00  0.00     0.182 C 
HETATM    6  C   UNK N   1      29.556  23.267  -3.825  0.00  0.00     0.196 C 
ENDROOT
BRANCH   3   7
HETATM    7  O   UNK N   1      32.420  20.215  -4.590  0.00  0.00    -0.286 OA
BRANCH   7   8
HETATM    8  P   UNK N   1      34.128  20.503  -4.372  0.00  0.00     0.391 P 
HETATM    9  O   UNK N   1      34.066  20.111  -5.870  0.00  0.00    -0.632 OA
BRANCH   8  10
HETATM   10  O   UNK N   1      35.310  19.239  -4.496  0.00  0.00    -0.307 OA
HETATM   11  H   UNK N   1      36.257  19.443  -4.549  0.00  0.00     0.222 HD
ENDBRANCH   8  10
BRANCH   8  12
HETATM   12  O   UNK N   1      33.686  19.121  -3.419  0.00  0.00    -0.307 OA
HETATM   13  H   UNK N   1      33.174  18.352  -3.716  0.00  0.00     0.222 HD
ENDBRANCH   8  12
ENDBRANCH   7   8
ENDBRANCH   3   7
BRANCH   2  14
HETATM   14  O   UNK N   1      32.313  21.440  -2.075  0.00  0.00    -0.390 OA
HETATM   15  H   UNK N   1      32.758  20.581  -2.002  0.00  0.00     0.210 HD
ENDBRANCH   2  14
BRANCH   4  16
HETATM   16  O   UNK N   1      31.160  21.510  -6.744  0.00  0.00    -0.286 OA
BRANCH  16  17
HETATM   17  P   UNK N   1      30.200  20.244  -7.473  0.00  0.00     0.391 P 
HETATM   18  O   UNK N   1      30.654  19.972  -8.933  0.00  0.00    -0.632 OA
BRANCH  17  19
HETATM   19  O   UNK N   1      29.929  21.743  -8.310  0.00  0.00    -0.307 OA
HETATM   20  H   UNK N   1      29.666  22.624  -8.617  0.00  0.00     0.222 HD
ENDBRANCH  17  19
BRANCH  17  21
HETATM   21  O   UNK N   1      31.814  19.629  -7.310  0.00  0.00    -0.307 OA
HETATM   22  H   UNK N   1      32.568  20.153  -7.000  0.00  0.00     0.222 HD
ENDBRANCH  17  21
ENDBRANCH  16  17
ENDBRANCH   4  16
BRANCH   1  23
HETATM   23  O   UNK N   1      30.126  23.100  -1.505  0.00  0.00    -0.390 OA
HETATM   24  H   UNK N   1      29.554  22.446  -1.076  0.00  0.00     0.210 HD
ENDBRANCH   1  23
BRANCH   5  25
HETATM   25  O   UNK N   1      29.089  23.345  -6.167  0.00  0.00    -0.390 OA
HETATM   26  H   UNK N   1      29.310  23.568  -7.085  0.00  0.00     0.210 HD
ENDBRANCH   5  25
BRANCH   6  27
HETATM   27  O   UNK N   1      29.074  24.570  -3.665  0.00  0.00    -0.286 OA
BRANCH  27  28
HETATM   28  P   UNK N   1      27.348  24.445  -3.450  0.00  0.00     0.391 P 
HETATM   29  O   UNK N   1      27.124  23.487  -2.250  0.00  0.00    -0.632 OA
BRANCH  28  30
HETATM   30  O   UNK N   1      26.595  25.950  -3.015  0.00  0.00    -0.307 OA
HETATM   31  H   UNK N   1      26.370  26.440  -2.208  0.00  0.00     0.222 HD
ENDBRANCH  28  30
BRANCH  28  32
HETATM   32  O   UNK N   1      26.570  23.715  -4.820  0.00  0.00    -0.307 OA
HETATM   33  H   UNK N   1      26.175  22.829  -4.824  0.00  0.00     0.222 HD
ENDBRANCH  28  32
ENDBRANCH  27  28
ENDBRANCH   6  27
TORSDOF 15
ENDMDL
MODEL 8
REMARK VINA RESULT:      -4.8     13.306     15.656
REMARK  15 active torsions:
REMARK  status: ('A' for Active; 'I' for Inactive)
REMARK    1  A    between atoms: C_2  and  O_1 
REMARK    2  A    between atoms: C_3  and  O_4 
REMARK    3  A    between atoms: C_5  and  O_6 
REMARK    4  A    between atoms: O_6  and  P_7 
REMARK    5  A    between atoms: P_7  and  O_8 
REMARK    6  A    between atoms: P_7  and  O_9 
REMARK    7  A    between atoms: C_11  and  O_12 
REMARK    8  A    between atoms: O_12  and  P_13 
REMARK    9  A    between atoms: P_13  and  O_14 
REMARK   10  A    between atoms: P_13  and  O_15 
REMARK   11  A    between atoms: C_17  and  O_18 
REMARK   12  A    between atoms: C_19  and  O_20 
REMARK   13  A    between atoms: O_20  and  P_21 
REMARK   14  A    between atoms: P_21  and  O_22 
REMARK   15  A    between atoms: P_21  and  O_23 
ROOT
HETATM    1  C   UNK N   1      35.801  15.978  10.232  0.00  0.00     0.181 C 
HETATM    2  C   UNK N   1      35.563  15.104  11.463  0.00  0.00     0.181 C 
HETATM    3  C   UNK N   1      35.766  13.623  11.116  0.00  0.00     0.197 C 
HETATM    4  C   UNK N   1      34.804  13.211   9.988  0.00  0.00     0.197 C 
HETATM    5  C   UNK N   1      35.105  14.071   8.751  0.00  0.00     0.182 C 
HETATM    6  C   UNK N   1      34.899  15.555   9.069  0.00  0.00     0.196 C 
ENDROOT
BRANCH   3   7
HETATM    7  O   UNK N   1      35.597  12.824  12.255  0.00  0.00    -0.286 OA
BRANCH   7   8
HETATM    8  P   UNK N   1      37.091  11.935  12.423  0.00  0.00     0.391 P 
HETATM    9  O   UNK N   1      36.039  10.832  12.700  0.00  0.00    -0.632 OA
BRANCH   8  10
HETATM   10  O   UNK N   1      37.613  11.267  13.936  0.00  0.00    -0.307 OA
HETATM   11  H   UNK N   1      37.303  10.396  14.232  0.00  0.00     0.222 HD
ENDBRANCH   8  10
BRANCH   8  12
HETATM   12  O   UNK N   1      37.012  13.109  13.700  0.00  0.00    -0.307 OA
HETATM   13  H   UNK N   1      36.416  13.094  14.465  0.00  0.00     0.222 HD
ENDBRANCH   8  12
ENDBRANCH   7   8
ENDBRANCH   3   7
BRANCH   2  14
HETATM   14  O   UNK N   1      36.451  15.481  12.474  0.00  0.00    -0.390 OA
HETATM   15  H   UNK N   1      36.246  15.279  13.400  0.00  0.00     0.210 HD
ENDBRANCH   2  14
BRANCH   4  16
HETATM   16  O   UNK N   1      34.975  11.842   9.694  0.00  0.00    -0.286 OA
BRANCH  16  17
HETATM   17  P   UNK N   1      33.377  11.199   9.393  0.00  0.00     0.391 P 
HETATM   18  O   UNK N   1      33.373   9.650   9.496  0.00  0.00    -0.632 OA
BRANCH  17  19
HETATM   19  O   UNK N   1      34.470  10.667   8.151  0.00  0.00    -0.307 OA
HETATM   20  H   UNK N   1      34.914  10.348   7.350  0.00  0.00     0.222 HD
ENDBRANCH  17  19
BRANCH  17  21
HETATM   21  O   UNK N   1      33.747  10.883  11.058  0.00  0.00    -0.307 OA
HETATM   22  H   UNK N   1      34.570  10.475  11.366  0.00  0.00     0.222 HD
ENDBRANCH  17  21
ENDBRANCH  16  17
ENDBRANCH   4  16
BRANCH   1  23
HETATM   23  O   UNK N   1      35.560  17.317  10.550  0.00  0.00    -0.390 OA
HETATM   24  H   UNK N   1      35.053  17.943  10.011  0.00  0.00     0.210 HD
ENDBRANCH   1  23
BRANCH   5  25
HETATM   25  O   UNK N   1      34.276  13.707   7.688  0.00  0.00    -0.390 OA
HETATM   26  H   UNK N   1      34.615  13.726   6.780  0.00  0.00     0.210 HD
ENDBRANCH   5  25
BRANCH   6  27
HETATM   27  O   UNK N   1      35.205  16.321   7.939  0.00  0.00    -0.286 OA
BRANCH  27  28
HETATM   28  P   UNK N   1      34.175  17.729   7.994  0.00  0.00     0.391 P 
HETATM   29  O   UNK N   1      33.639  17.936   6.553  0.00  0.00    -0.632 OA
BRANCH  28  30
HETATM   30  O   UNK N   1      32.777  17.521   9.006  0.00  0.00    -0.307 OA
HETATM   31  H   UNK N   1      32.252  18.046   9.631  0.00  0.00     0.222 HD
ENDBRANCH  28  30
BRANCH  28  32
HETATM   32  O   UNK N   1      35.056  19.166   8.408  0.00  0.00    -0.307 OA
HETATM   33  H   UNK N   1      34.660  20.046   8.513  0.00  0.00     0.222 HD
ENDBRANCH  28  32
ENDBRANCH  27  28
ENDBRANCH   6  27
TORSDOF 15
ENDMDL
MODEL 9
REMARK VINA RESULT:      -4.8     12.796     16.030
REMARK  15 active torsions:
REMARK  status: ('A' for Active; 'I' for Inactive)
REMARK    1  A    between atoms: C_2  and  O_1 
REMARK    2  A    between atoms: C_3  and  O_4 
REMARK    3  A    between atoms: C_5  and  O_6 
REMARK    4  A    between atoms: O_6  and  P_7 
REMARK    5  A    between atoms: P_7  and  O_8 
REMARK    6  A    between atoms: P_7  and  O_9 
REMARK    7  A    between atoms: C_11  and  O_12 
REMARK    8  A    between atoms: O_12  and  P_13 
REMARK    9  A    between atoms: P_13  and  O_14 
REMARK   10  A    between atoms: P_13  and  O_15 
REMARK   11  A    between atoms: C_17  and  O_18 
REMARK   12  A    between atoms: C_19  and  O_20 
REMARK   13  A    between atoms: O_20  and  P_21 
REMARK   14  A    between atoms: P_21  and  O_22 
REMARK   15  A    between atoms: P_21  and  O_23 
ROOT
HETATM    1  C   UNK N   1      35.495  14.490   7.477  0.00  0.00     0.181 C 
HETATM    2  C   UNK N   1      36.801  13.905   8.015  0.00  0.00     0.181 C 
HETATM    3  C   UNK N   1      36.534  13.058   9.266  0.00  0.00     0.197 C 
HETATM    4  C   UNK N   1      35.861  13.919  10.350  0.00  0.00     0.197 C 
HETATM    5  C   UNK N   1      34.529  14.446   9.797  0.00  0.00     0.182 C 
HETATM    6  C   UNK N   1      34.769  15.305   8.551  0.00  0.00     0.196 C 
ENDROOT
BRANCH   3   7
HETATM    7  O   UNK N   1      37.725  12.481   9.731  0.00  0.00    -0.286 OA
BRANCH   7   8
HETATM    8  P   UNK N   1      37.505  10.758   9.549  0.00  0.00     0.391 P 
HETATM    9  O   UNK N   1      37.842  10.873  11.058  0.00  0.00    -0.632 OA
BRANCH   8  10
HETATM   10  O   UNK N   1      38.806   9.627   9.748  0.00  0.00    -0.307 OA
HETATM   11  H   UNK N   1      38.841   8.809   9.228  0.00  0.00     0.222 HD
ENDBRANCH   8  10
BRANCH   8  12
HETATM   12  O   UNK N   1      38.904  11.226   8.633  0.00  0.00    -0.307 OA
HETATM   13  H   UNK N   1      38.910  11.649   7.760  0.00  0.00     0.222 HD
ENDBRANCH   8  12
ENDBRANCH   7   8
ENDBRANCH   3   7
BRANCH   2  14
HETATM   14  O   UNK N   1      37.395  13.117   7.026  0.00  0.00    -0.390 OA
HETATM   15  H   UNK N   1      37.542  12.171   7.181  0.00  0.00     0.210 HD
ENDBRANCH   2  14
BRANCH   4  16
HETATM   16  O   UNK N   1      35.647  13.143  11.507  0.00  0.00    -0.286 OA
BRANCH  16  17
HETATM   17  P   UNK N   1      36.002  14.179  12.870  0.00  0.00     0.391 P 
HETATM   18  O   UNK N   1      36.236  13.344  14.157  0.00  0.00    -0.632 OA
BRANCH  17  19
HETATM   19  O   UNK N   1      34.501  13.346  13.139  0.00  0.00    -0.307 OA
HETATM   20  H   UNK N   1      33.586  13.065  13.298  0.00  0.00     0.222 HD
ENDBRANCH  17  19
BRANCH  17  21
HETATM   21  O   UNK N   1      37.441  13.271  12.532  0.00  0.00    -0.307 OA
HETATM   22  H   UNK N   1      37.470  12.307  12.447  0.00  0.00     0.222 HD
ENDBRANCH  17  21
ENDBRANCH  16  17
ENDBRANCH   4  16
BRANCH   1  23
HETATM   23  O   UNK N   1      35.760  15.300   6.371  0.00  0.00    -0.390 OA
HETATM   24  H   UNK N   1      36.530  15.224   5.786  0.00  0.00     0.210 HD
ENDBRANCH   1  23
BRANCH   5  25
HETATM   25  O   UNK N   1      33.866  15.207  10.761  0.00  0.00    -0.390 OA
HETATM   26  H   UNK N   1      33.988  15.010  11.702  0.00  0.00     0.210 HD
ENDBRANCH   5  25
BRANCH   6  27
HETATM   27  O   UNK N   1      33.543  15.751   8.048  0.00  0.00    -0.286 OA
BRANCH  27  28
HETATM   28  P   UNK N   1      33.623  17.493   8.002  0.00  0.00     0.391 P 
HETATM   29  O   UNK N   1      34.576  17.918   9.151  0.00  0.00    -0.632 OA
BRANCH  28  30
HETATM   30  O   UNK N   1      34.324  18.113   6.538  0.00  0.00    -0.307 OA
HETATM   31  H   UNK N   1      34.512  17.803   5.638  0.00  0.00     0.222 HD
ENDBRANCH  28  30
BRANCH  28  32
HETATM   32  O   UNK N   1      32.086  18.227   8.335  0.00  0.00    -0.307 OA
HETATM   33  H   UNK N   1      31.493  17.966   9.058  0.00  0.00     0.222 HD
ENDBRANCH  28  32
ENDBRANCH  27  28
ENDBRANCH   6  27
TORSDOF 15
ENDMDL
