REMARK  0 active torsions:
REMARK  status: ('A' for Active; 'I' for Inactive)
REMARK       I    between atoms: N_1  and  C_2 
ROOT
HETATM    1  N   UNK N   1      -1.613  -0.723   0.000  0.00  0.00    -0.395 N 
HETATM    2  C   UNK N   1      -0.163  -0.717  -0.000  0.00  0.00     0.282 A 
HETATM    3  N   UNK N   1       0.681   0.444  -0.000  0.00  0.00    -0.351 N 
ATOM      4  HN  UNK N   1       0.393   1.423   0.000  1.00  0.00     0.163 HD
HETATM    5  C   UNK N   1       1.872  -0.018   0.000  0.00  0.00     0.057 A 
HETATM    6  C   UNK N   1       3.048   0.722   0.000  0.00  0.00     0.031 A 
HETATM    7  C   UNK N   1       4.262   0.011   0.000  0.00  0.00     0.002 A 
HETATM    8  C   UNK N   1       4.269  -1.404   0.000  0.00  0.00     0.002 A 
HETATM    9  C   UNK N   1       3.061  -2.127   0.000  0.00  0.00     0.031 A 
HETATM   10  C   UNK N   1       1.878  -1.399   0.000  0.00  0.00     0.057 A 
HETATM   11  N   UNK N   1       0.692  -1.871  -0.000  0.00  0.00    -0.351 N 
ATOM     12  HN  UNK N   1       0.413  -2.853   0.000  1.00  0.00     0.163 HD
HETATM   13  H   UNK N   1      -2.126   0.159   0.000  0.00  0.00     0.153 HD
HETATM   14  H   UNK N   1      -2.119  -1.608   0.000  0.00  0.00     0.153 HD
ENDROOT
TORSDOF 0
