REMARK  0 active torsions:
REMARK  status: ('A' for Active; 'I' for Inactive)
ROOT
HETATM    1  O   UNK N   1       3.009  -0.738   0.000  0.00  0.00    -0.273 OA
HETATM    2  C   UNK N   1       1.893  -0.249  -0.000  0.00  0.00     0.227 A 
HETATM    3  C   UNK N   1       0.702  -1.159   0.000  0.00  0.00     0.123 A 
HETATM    4  C   UNK N   1      -0.657  -0.455  -0.000  0.00  0.00     0.133 A 
HETATM    5  N   UNK N   1      -0.601   0.992   0.000  0.00  0.00    -0.342 N 
HETATM    6  C   UNK N   1       0.549   1.709  -0.000  0.00  0.00     0.322 A 
HETATM    7  O   UNK N   1       0.494   2.927   0.000  0.00  0.00    -0.247 OA
HETATM    8  N   UNK N   1       1.756   1.097  -0.000  0.00  0.00    -0.279 N 
HETATM    9  H   UNK N   1      -1.452   1.487   0.000  0.00  0.00     0.164 HD
HETATM   10  H   UNK N   1       2.568   1.654  -0.000  0.00  0.00     0.173 HD
ENDROOT
TORSDOF 0
