REMARK  14 active torsions:
REMARK  status: ('A' for Active; 'I' for Inactive)
REMARK    1  A    between atoms: C_2  and  C_1 
REMARK    2  A    between atoms: C_5  and  C_1 
REMARK    3  A    between atoms: C_6  and  C_2 
REMARK    4  A    between atoms: C_4  and  C_3 
REMARK    5  A    between atoms: C_7  and  C_3 
REMARK    6  A    between atoms: N_11  and  C_4 
REMARK    7  A    between atoms: N_17  and  C_5 
REMARK    8  A    between atoms: C_9  and  C_6 
REMARK    9  A    between atoms: C_6  and  N_12 
REMARK   10  A    between atoms: C_8  and  C_7 
REMARK   11  A    between atoms: C_7  and  N_18 
REMARK   12  A    between atoms: O_22  and  C_8 
REMARK   13  A    between atoms: C_9  and  O_23 
REMARK       I    between atoms: N_17  and  C_10 
REMARK       I    between atoms: N_20  and  C_10 
REMARK   14  A    between atoms: N_21  and  N_20 
ROOT
HETATM    1  C   UNK N   1       3.080   3.286  -0.309  0.00  0.00     0.149 C 
ENDROOT
BRANCH   1   2
HETATM    2  C   UNK N   1       4.225   2.350  -0.677  0.00  0.00     0.034 C 
BRANCH   2   3
HETATM    3  C   UNK N   1       4.874   1.661   0.517  0.00  0.00     0.023 C 
BRANCH   3   4
HETATM    4  C   UNK N   1       5.913   2.546   1.190  0.00  0.00     0.138 C 
BRANCH   4   5
HETATM    5  N   UNK N   1       6.884   3.116   0.278  0.00  0.00    -0.225 N 
HETATM    6  C   UNK N   1       7.543   2.416  -0.775  0.00  0.00     0.691 C 
HETATM    7  N   UNK N   1       7.028   1.362  -1.293  0.00  0.00    -0.233 N 
HETATM    8  N   UNK N   1       8.901   2.705  -1.024  0.00  0.00    -0.072 N 
HETATM    9  H   UNK N   1       6.130   1.299  -1.691  0.00  0.00     0.174 HD
ATOM     10  HN  UNK N   1       7.599   0.516  -1.293  1.00  0.00     0.174 HD
HETATM   11  H   UNK N   1       9.204   2.900  -1.940  0.00  0.00     0.212 HD
HETATM   12  H   UNK N   1       7.109   4.067   0.396  0.00  0.00     0.177 HD
BRANCH   8  13
HETATM   13  N   UNK N   1       9.800   2.715   0.017  0.00  0.00    -0.024 N 
HETATM   14  O   UNK N   1      10.864   3.227  -0.121  0.00  0.00    -0.516 OA
HETATM   15  O   UNK N   1       9.568   2.088   1.012  0.00  0.00    -0.516 OA
ENDBRANCH   8  13
ENDBRANCH   4   5
ENDBRANCH   3   4
ENDBRANCH   2   3
ENDBRANCH   1   2
BRANCH   1  16
HETATM   16  C   UNK N   1       1.928   2.514   0.263  0.00  0.00     0.134 C 
HETATM   17  N   UNK N   1       0.791   2.542  -0.345  0.00  0.00    -0.361 N 
ATOM     18  HN  UNK N   1       0.696   3.149  -1.159  1.00  0.00     0.162 HD
BRANCH  17  19
HETATM   19  C   UNK N   1      -0.359   1.760   0.063  0.00  0.00     0.159 C 
BRANCH  19  20
HETATM   20  C   UNK N   1      -1.593   2.350  -0.612  0.00  0.00     0.052 C 
BRANCH  20  21
HETATM   21  C   UNK N   1      -2.549   2.959   0.400  0.00  0.00     0.113 C 
BRANCH  21  22
HETATM   22  N   UNK N   1      -3.552   3.747  -0.292  0.00  0.00    -0.430 N 
HETATM   23  H   UNK N   1      -3.424   4.635  -0.778  0.00  0.00     0.149 HD
HETATM   24  H   UNK N   1      -4.498   3.368  -0.292  0.00  0.00     0.149 HD
ENDBRANCH  21  22
ENDBRANCH  20  21
ENDBRANCH  19  20
BRANCH  19  25
HETATM   25  C   UNK N   1      -0.222   0.320  -0.374  0.00  0.00     0.132 C 
HETATM   26  N   UNK N   1       0.825  -0.088  -0.996  0.00  0.00    -0.382 N 
HETATM   27  H   UNK N   1       0.956  -0.939  -1.472  0.00  0.00     0.158 HD
ATOM     28  HN  UNK N   1       1.621   0.551  -0.996  1.00  0.00     0.158 HD
BRANCH  25  29
HETATM   29  O   UNK N   1      -1.218  -0.549  -0.120  0.00  0.00    -0.348 OA
HETATM   30  H   UNK N   1      -2.089  -0.251   0.057  0.00  0.00     0.219 HD
ENDBRANCH  25  29
ENDBRANCH  19  25
ENDBRANCH  17  19
BRANCH  16  31
HETATM   31  O   UNK N   1       2.089   1.790   1.393  0.00  0.00    -0.348 OA
HETATM   32  H   UNK N   1       1.710   1.442   2.177  0.00  0.00     0.219 HD
ENDBRANCH  16  31
ENDBRANCH   1  16
BRANCH   1  33
HETATM   33  N   UNK N   1       3.522   4.310   0.624  0.00  0.00    -0.419 N 
HETATM   34  H   UNK N   1       4.299   4.400   1.278  0.00  0.00     0.150 HD
HETATM   35  H   UNK N   1       2.912   5.128   0.624  0.00  0.00     0.150 HD
ENDBRANCH   1  33
TORSDOF 14
