MODEL 1
REMARK VINA RESULT:      -7.6      0.000      0.000
REMARK  16 active torsions:
REMARK  status: ('A' for Active; 'I' for Inactive)
REMARK    1  A    between atoms: C_4  and  C_3 
REMARK    2  A    between atoms: C_9  and  C_4 
REMARK    3  A    between atoms: C_16  and  C_9 
REMARK    4  A    between atoms: N_30  and  C_16 
REMARK    5  A    between atoms: C_19  and  C_17 
REMARK    6  A    between atoms: C_23  and  C_17 
REMARK    7  A    between atoms: O_35  and  C_18 
REMARK    8  A    between atoms: C_28  and  C_22 
REMARK    9  A    between atoms: C_26  and  C_23 
REMARK   10  A    between atoms: C_23  and  N_32 
REMARK   11  A    between atoms: N_34  and  C_24 
REMARK   12  A    between atoms: N_34  and  C_25 
REMARK   13  A    between atoms: O_36  and  C_26 
REMARK   14  A    between atoms: C_29  and  C_27 
REMARK       I    between atoms: N_34  and  C_27 
REMARK   15  A    between atoms: O_39  and  C_28 
REMARK   16  A    between atoms: O_40  and  C_29 
ROOT
HETATM    1  C   UNK N   1      25.485  14.992   2.261  0.00  0.00     0.001 A 
HETATM    2  C   UNK N   1      24.323  14.305   2.573  0.00  0.00     0.001 A 
HETATM    3  C   UNK N   1      25.707  16.243   2.819  0.00  0.00     0.013 A 
HETATM    4  C   UNK N   1      23.382  14.878   3.427  0.00  0.00     0.014 A 
HETATM    5  C   UNK N   1      24.066  18.739   4.973  0.00  0.00     0.010 A 
HETATM    6  C   UNK N   1      22.858  18.116   5.248  0.00  0.00     0.031 A 
HETATM    7  C   UNK N   1      25.032  18.103   4.210  0.00  0.00    -0.044 A 
HETATM    8  C   UNK N   1      24.748  16.847   3.657  0.00  0.00    -0.017 A 
HETATM    9  C   UNK N   1      23.526  16.164   3.969  0.00  0.00     0.002 A 
HETATM   10  C   UNK N   1      22.543  16.802   4.842  0.00  0.00     0.054 A 
ENDROOT
BRANCH   7  11
HETATM   11  C   UNK N   1      26.411  18.701   4.023  0.00  0.00     0.073 C 
BRANCH  11  12
HETATM   12  C   UNK N   1      27.472  18.529   5.120  0.00  0.00     0.162 C 
BRANCH  12  13
HETATM   13  C   UNK N   1      27.444  19.591   6.232  0.00  0.00     0.135 C 
HETATM   14  N   UNK N   1      27.674  19.372   7.491  0.00  0.00    -0.373 N 
ATOM     15  HN  UNK N   1      27.637  20.186   8.104  1.00  0.00     0.161 HD
BRANCH  14  16
HETATM   16  C   UNK N   1      27.976  18.107   8.122  0.00  0.00     0.121 C 
BRANCH  16  17
HETATM   17  C   UNK N   1      28.845  18.306   9.363  0.00  0.00     0.020 C 
BRANCH  17  18
HETATM   18  C   UNK N   1      30.306  18.554   9.015  0.00  0.00     0.001 C 
BRANCH  18  19
HETATM   19  C   UNK N   1      31.014  17.253   8.694  0.00  0.00    -0.004 C 
HETATM   20  C   UNK N   1      31.960  17.480   7.536  0.00  0.00     0.005 C 
ENDBRANCH  18  19
ENDBRANCH  17  18
ENDBRANCH  16  17
ENDBRANCH  14  16
BRANCH  13  21
HETATM   21  O   UNK N   1      27.137  20.850   5.871  0.00  0.00    -0.348 OA
HETATM   22  H   UNK N   1      27.265  21.149   4.992  0.00  0.00     0.219 HD
ENDBRANCH  13  21
ENDBRANCH  12  13
BRANCH  12  23
HETATM   23  N   UNK N   1      28.801  18.517   4.527  0.00  0.00    -0.362 N 
HETATM   24  C   UNK N   1      29.618  17.514   4.573  0.00  0.00     0.107 C 
HETATM   25  C   UNK N   1      29.257  16.223   5.242  0.00  0.00     0.097 C 
ATOM     26  HN  UNK N   1      29.111  19.360   4.041  1.00  0.00     0.162 HD
BRANCH  24  27
HETATM   27  O   UNK N   1      30.825  17.623   3.990  0.00  0.00    -0.350 OA
HETATM   28  H   UNK N   1      31.140  18.104   3.249  0.00  0.00     0.219 HD
ENDBRANCH  24  27
ENDBRANCH  12  23
ENDBRANCH  11  12
ENDBRANCH   7  11
BRANCH  10  29
HETATM   29  N   UNK N   1      21.291  16.213   5.394  0.00  0.00    -0.272 N 
HETATM   30  C   UNK N   1      20.027  16.331   4.799  0.00  0.00     0.326 C 
HETATM   31  O   UNK N   1      19.817  17.141   3.923  0.00  0.00    -0.260 OA
BRANCH  29  32
HETATM   32  C   UNK N   1      21.327  15.630   6.737  0.00  0.00     0.060 A 
HETATM   33  C   UNK N   1      21.928  14.355   6.860  0.00  0.00     0.031 A 
HETATM   34  C   UNK N   1      21.973  13.661   8.063  0.00  0.00     0.002 A 
HETATM   35  C   UNK N   1      21.382  14.204   9.192  0.00  0.00     0.001 A 
HETATM   36  C   UNK N   1      20.767  15.449   9.120  0.00  0.00     0.020 A 
HETATM   37  C   UNK N   1      20.728  16.195   7.925  0.00  0.00     0.065 A 
BRANCH  37  38
HETATM   38  C   UNK N   1      20.100  17.543   8.030  0.00  0.00     0.178 C 
HETATM   39  O   UNK N   1      19.005  17.661   8.563  0.00  0.00    -0.646 OA
BRANCH  38  40
HETATM   40  O   UNK N   1      20.732  18.646   7.591  0.00  0.00    -0.773 OA
HETATM   41  H   UNK N   1      21.069  18.843   6.740  0.00  0.00     0.167 HD
ENDBRANCH  38  40
ENDBRANCH  37  38
ENDBRANCH  29  32
BRANCH  30  42
HETATM   42  C   UNK N   1      18.840  15.498   5.198  0.00  0.00     0.237 C 
HETATM   43  O   UNK N   1      17.888  15.978   5.791  0.00  0.00    -0.643 OA
BRANCH  42  44
HETATM   44  O   UNK N   1      18.878  14.165   5.000  0.00  0.00    -0.769 OA
HETATM   45  H   UNK N   1      18.563  13.802   4.195  0.00  0.00     0.168 HD
ENDBRANCH  42  44
ENDBRANCH  30  42
ENDBRANCH  10  29
TORSDOF 16
ENDMDL
MODEL 2
REMARK VINA RESULT:      -7.5      2.261      4.960
REMARK  16 active torsions:
REMARK  status: ('A' for Active; 'I' for Inactive)
REMARK    1  A    between atoms: C_4  and  C_3 
REMARK    2  A    between atoms: C_9  and  C_4 
REMARK    3  A    between atoms: C_16  and  C_9 
REMARK    4  A    between atoms: N_30  and  C_16 
REMARK    5  A    between atoms: C_19  and  C_17 
REMARK    6  A    between atoms: C_23  and  C_17 
REMARK    7  A    between atoms: O_35  and  C_18 
REMARK    8  A    between atoms: C_28  and  C_22 
REMARK    9  A    between atoms: C_26  and  C_23 
REMARK   10  A    between atoms: C_23  and  N_32 
REMARK   11  A    between atoms: N_34  and  C_24 
REMARK   12  A    between atoms: N_34  and  C_25 
REMARK   13  A    between atoms: O_36  and  C_26 
REMARK   14  A    between atoms: C_29  and  C_27 
REMARK       I    between atoms: N_34  and  C_27 
REMARK   15  A    between atoms: O_39  and  C_28 
REMARK   16  A    between atoms: O_40  and  C_29 
ROOT
HETATM    1  C   UNK N   1      23.738  20.920   2.862  0.00  0.00     0.001 A 
HETATM    2  C   UNK N   1      22.456  20.397   2.792  0.00  0.00     0.001 A 
HETATM    3  C   UNK N   1      24.759  20.149   3.397  0.00  0.00     0.013 A 
HETATM    4  C   UNK N   1      22.201  19.113   3.272  0.00  0.00     0.014 A 
HETATM    5  C   UNK N   1      25.329  16.887   5.010  0.00  0.00     0.010 A 
HETATM    6  C   UNK N   1      24.046  16.359   5.026  0.00  0.00     0.031 A 
HETATM    7  C   UNK N   1      25.578  18.119   4.428  0.00  0.00    -0.044 A 
HETATM    8  C   UNK N   1      24.506  18.863   3.917  0.00  0.00    -0.017 A 
HETATM    9  C   UNK N   1      23.181  18.315   3.880  0.00  0.00     0.002 A 
HETATM   10  C   UNK N   1      22.935  16.980   4.419  0.00  0.00     0.054 A 
ENDROOT
BRANCH   7  11
HETATM   11  C   UNK N   1      26.990  18.646   4.266  0.00  0.00     0.073 C 
BRANCH  11  12
HETATM   12  C   UNK N   1      27.858  18.897   5.507  0.00  0.00     0.162 C 
BRANCH  12  13
HETATM   13  C   UNK N   1      28.700  17.697   5.973  0.00  0.00     0.135 C 
HETATM   14  N   UNK N   1      29.207  16.785   5.201  0.00  0.00    -0.373 N 
ATOM     15  HN  UNK N   1      29.760  16.061   5.660  1.00  0.00     0.161 HD
BRANCH  14  16
HETATM   16  C   UNK N   1      29.077  16.677   3.765  0.00  0.00     0.121 C 
BRANCH  16  17
HETATM   17  C   UNK N   1      28.462  15.335   3.368  0.00  0.00     0.020 C 
BRANCH  17  18
HETATM   18  C   UNK N   1      27.411  15.478   2.277  0.00  0.00     0.001 C 
BRANCH  18  19
HETATM   19  C   UNK N   1      26.295  14.471   2.464  0.00  0.00    -0.004 C 
HETATM   20  C   UNK N   1      25.098  14.903   1.647  0.00  0.00     0.005 C 
ENDBRANCH  18  19
ENDBRANCH  17  18
ENDBRANCH  16  17
ENDBRANCH  14  16
BRANCH  13  21
HETATM   21  O   UNK N   1      28.914  17.574   7.296  0.00  0.00    -0.348 OA
HETATM   22  H   UNK N   1      29.521  18.129   7.745  0.00  0.00     0.219 HD
ENDBRANCH  13  21
ENDBRANCH  12  13
BRANCH  12  23
HETATM   23  N   UNK N   1      27.025  19.334   6.616  0.00  0.00    -0.362 N 
HETATM   24  C   UNK N   1      26.805  20.571   6.929  0.00  0.00     0.107 C 
HETATM   25  C   UNK N   1      27.388  21.707   6.144  0.00  0.00     0.097 C 
ATOM     26  HN  UNK N   1      26.582  18.614   7.189  1.00  0.00     0.162 HD
BRANCH  24  27
HETATM   27  O   UNK N   1      26.017  20.852   7.982  0.00  0.00    -0.350 OA
HETATM   28  H   UNK N   1      25.089  20.835   8.114  0.00  0.00     0.219 HD
ENDBRANCH  24  27
ENDBRANCH  12  23
ENDBRANCH  11  12
ENDBRANCH   7  11
BRANCH  10  29
HETATM   29  N   UNK N   1      21.678  16.183   4.352  0.00  0.00    -0.272 N 
HETATM   30  C   UNK N   1      20.711  16.137   5.366  0.00  0.00     0.326 C 
HETATM   31  O   UNK N   1      20.950  16.540   6.483  0.00  0.00    -0.260 OA
BRANCH  29  32
HETATM   32  C   UNK N   1      21.510  15.237   3.247  0.00  0.00     0.060 A 
HETATM   33  C   UNK N   1      22.007  13.927   3.452  0.00  0.00     0.031 A 
HETATM   34  C   UNK N   1      21.970  12.950   2.464  0.00  0.00     0.002 A 
HETATM   35  C   UNK N   1      21.463  13.256   1.212  0.00  0.00     0.001 A 
HETATM   36  C   UNK N   1      20.976  14.533   0.957  0.00  0.00     0.020 A 
HETATM   37  C   UNK N   1      20.969  15.541   1.942  0.00  0.00     0.065 A 
BRANCH  37  38
HETATM   38  C   UNK N   1      20.342  16.832   1.536  0.00  0.00     0.178 C 
HETATM   39  O   UNK N   1      20.670  17.358   0.481  0.00  0.00    -0.646 OA
BRANCH  38  40
HETATM   40  O   UNK N   1      19.386  17.411   2.283  0.00  0.00    -0.773 OA
HETATM   41  H   UNK N   1      18.454  17.354   2.210  0.00  0.00     0.167 HD
ENDBRANCH  38  40
ENDBRANCH  37  38
ENDBRANCH  29  32
BRANCH  30  42
HETATM   42  C   UNK N   1      19.329  15.575   5.171  0.00  0.00     0.237 C 
HETATM   43  O   UNK N   1      19.060  14.418   5.450  0.00  0.00    -0.643 OA
BRANCH  42  44
HETATM   44  O   UNK N   1      18.393  16.333   4.564  0.00  0.00    -0.769 OA
HETATM   45  H   UNK N   1      18.471  16.532   3.652  0.00  0.00     0.168 HD
ENDBRANCH  42  44
ENDBRANCH  30  42
ENDBRANCH  10  29
TORSDOF 16
ENDMDL
MODEL 3
REMARK VINA RESULT:      -7.5      2.232      4.332
REMARK  16 active torsions:
REMARK  status: ('A' for Active; 'I' for Inactive)
REMARK    1  A    between atoms: C_4  and  C_3 
REMARK    2  A    between atoms: C_9  and  C_4 
REMARK    3  A    between atoms: C_16  and  C_9 
REMARK    4  A    between atoms: N_30  and  C_16 
REMARK    5  A    between atoms: C_19  and  C_17 
REMARK    6  A    between atoms: C_23  and  C_17 
REMARK    7  A    between atoms: O_35  and  C_18 
REMARK    8  A    between atoms: C_28  and  C_22 
REMARK    9  A    between atoms: C_26  and  C_23 
REMARK   10  A    between atoms: C_23  and  N_32 
REMARK   11  A    between atoms: N_34  and  C_24 
REMARK   12  A    between atoms: N_34  and  C_25 
REMARK   13  A    between atoms: O_36  and  C_26 
REMARK   14  A    between atoms: C_29  and  C_27 
REMARK       I    between atoms: N_34  and  C_27 
REMARK   15  A    between atoms: O_39  and  C_28 
REMARK   16  A    between atoms: O_40  and  C_29 
ROOT
HETATM    1  C   UNK N   1      24.003  20.764   3.053  0.00  0.00     0.001 A 
HETATM    2  C   UNK N   1      22.702  20.297   2.956  0.00  0.00     0.001 A 
HETATM    3  C   UNK N   1      24.983  19.942   3.591  0.00  0.00     0.013 A 
HETATM    4  C   UNK N   1      22.385  19.019   3.413  0.00  0.00     0.014 A 
HETATM    5  C   UNK N   1      25.389  16.635   5.161  0.00  0.00     0.010 A 
HETATM    6  C   UNK N   1      24.085  16.163   5.151  0.00  0.00     0.031 A 
HETATM    7  C   UNK N   1      25.699  17.864   4.602  0.00  0.00    -0.044 A 
HETATM    8  C   UNK N   1      24.668  18.661   4.087  0.00  0.00    -0.017 A 
HETATM    9  C   UNK N   1      23.321  18.171   4.023  0.00  0.00     0.002 A 
HETATM   10  C   UNK N   1      23.010  16.839   4.538  0.00  0.00     0.054 A 
ENDROOT
BRANCH   7  11
HETATM   11  C   UNK N   1      27.134  18.332   4.468  0.00  0.00     0.073 C 
BRANCH  11  12
HETATM   12  C   UNK N   1      27.928  18.728   5.721  0.00  0.00     0.162 C 
BRANCH  12  13
HETATM   13  C   UNK N   1      28.759  17.600   6.356  0.00  0.00     0.135 C 
HETATM   14  N   UNK N   1      29.849  17.096   5.864  0.00  0.00    -0.373 N 
ATOM     15  HN  UNK N   1      30.297  16.364   6.415  1.00  0.00     0.161 HD
BRANCH  14  16
HETATM   16  C   UNK N   1      30.502  17.455   4.625  0.00  0.00     0.121 C 
BRANCH  16  17
HETATM   17  C   UNK N   1      32.020  17.496   4.795  0.00  0.00     0.020 C 
BRANCH  17  18
HETATM   18  C   UNK N   1      32.470  16.916   6.128  0.00  0.00     0.001 C 
BRANCH  18  19
HETATM   19  C   UNK N   1      33.757  17.566   6.594  0.00  0.00    -0.004 C 
HETATM   20  C   UNK N   1      33.527  18.200   7.948  0.00  0.00     0.005 C 
ENDBRANCH  18  19
ENDBRANCH  17  18
ENDBRANCH  16  17
ENDBRANCH  14  16
BRANCH  13  21
HETATM   21  O   UNK N   1      28.304  17.078   7.511  0.00  0.00    -0.348 OA
HETATM   22  H   UNK N   1      27.433  16.741   7.583  0.00  0.00     0.219 HD
ENDBRANCH  13  21
ENDBRANCH  12  13
BRANCH  12  23
HETATM   23  N   UNK N   1      27.028  19.262   6.731  0.00  0.00    -0.362 N 
HETATM   24  C   UNK N   1      26.831  20.523   6.949  0.00  0.00     0.107 C 
HETATM   25  C   UNK N   1      27.514  21.587   6.145  0.00  0.00     0.097 C 
ATOM     26  HN  UNK N   1      26.516  18.595   7.310  1.00  0.00     0.162 HD
BRANCH  24  27
HETATM   27  O   UNK N   1      25.975  20.897   7.917  0.00  0.00    -0.350 OA
HETATM   28  H   UNK N   1      25.613  20.455   8.661  0.00  0.00     0.219 HD
ENDBRANCH  24  27
ENDBRANCH  12  23
ENDBRANCH  11  12
ENDBRANCH   7  11
BRANCH  10  29
HETATM   29  N   UNK N   1      21.721  16.099   4.440  0.00  0.00    -0.272 N 
HETATM   30  C   UNK N   1      20.812  15.945   5.496  0.00  0.00     0.326 C 
HETATM   31  O   UNK N   1      21.127  16.185   6.640  0.00  0.00    -0.260 OA
BRANCH  29  32
HETATM   32  C   UNK N   1      21.456  15.316   3.231  0.00  0.00     0.060 A 
HETATM   33  C   UNK N   1      21.983  14.003   3.196  0.00  0.00     0.031 A 
HETATM   34  C   UNK N   1      21.859  13.177   2.085  0.00  0.00     0.002 A 
HETATM   35  C   UNK N   1      21.231  13.647   0.944  0.00  0.00     0.001 A 
HETATM   36  C   UNK N   1      20.709  14.936   0.924  0.00  0.00     0.020 A 
HETATM   37  C   UNK N   1      20.788  15.792   2.041  0.00  0.00     0.065 A 
BRANCH  37  38
HETATM   38  C   UNK N   1      20.113  17.112   1.887  0.00  0.00     0.178 C 
HETATM   39  O   UNK N   1      20.354  17.805   0.907  0.00  0.00    -0.646 OA
BRANCH  38  40
HETATM   40  O   UNK N   1      19.206  17.543   2.781  0.00  0.00    -0.773 OA
HETATM   41  H   UNK N   1      19.322  17.796   3.675  0.00  0.00     0.167 HD
ENDBRANCH  38  40
ENDBRANCH  37  38
ENDBRANCH  29  32
BRANCH  30  42
HETATM   42  C   UNK N   1      19.400  15.458   5.310  0.00  0.00     0.237 C 
HETATM   43  O   UNK N   1      18.468  16.230   5.158  0.00  0.00    -0.643 OA
BRANCH  42  44
HETATM   44  O   UNK N   1      19.140  14.140   5.431  0.00  0.00    -0.769 OA
HETATM   45  H   UNK N   1      19.846  13.526   5.487  0.00  0.00     0.168 HD
ENDBRANCH  42  44
ENDBRANCH  30  42
ENDBRANCH  10  29
TORSDOF 16
ENDMDL
MODEL 4
REMARK VINA RESULT:      -7.5      2.023      4.228
REMARK  16 active torsions:
REMARK  status: ('A' for Active; 'I' for Inactive)
REMARK    1  A    between atoms: C_4  and  C_3 
REMARK    2  A    between atoms: C_9  and  C_4 
REMARK    3  A    between atoms: C_16  and  C_9 
REMARK    4  A    between atoms: N_30  and  C_16 
REMARK    5  A    between atoms: C_19  and  C_17 
REMARK    6  A    between atoms: C_23  and  C_17 
REMARK    7  A    between atoms: O_35  and  C_18 
REMARK    8  A    between atoms: C_28  and  C_22 
REMARK    9  A    between atoms: C_26  and  C_23 
REMARK   10  A    between atoms: C_23  and  N_32 
REMARK   11  A    between atoms: N_34  and  C_24 
REMARK   12  A    between atoms: N_34  and  C_25 
REMARK   13  A    between atoms: O_36  and  C_26 
REMARK   14  A    between atoms: C_29  and  C_27 
REMARK       I    between atoms: N_34  and  C_27 
REMARK   15  A    between atoms: O_39  and  C_28 
REMARK   16  A    between atoms: O_40  and  C_29 
ROOT
HETATM    1  C   UNK N   1      26.908  15.300   1.905  0.00  0.00     0.001 A 
HETATM    2  C   UNK N   1      25.577  15.005   1.659  0.00  0.00     0.001 A 
HETATM    3  C   UNK N   1      27.327  15.524   3.209  0.00  0.00     0.013 A 
HETATM    4  C   UNK N   1      24.668  14.953   2.715  0.00  0.00     0.014 A 
HETATM    5  C   UNK N   1      25.989  15.783   6.631  0.00  0.00     0.010 A 
HETATM    6  C   UNK N   1      24.636  15.567   6.416  0.00  0.00     0.031 A 
HETATM    7  C   UNK N   1      26.890  15.722   5.580  0.00  0.00    -0.044 A 
HETATM    8  C   UNK N   1      26.411  15.508   4.280  0.00  0.00    -0.017 A 
HETATM    9  C   UNK N   1      25.023  15.234   4.043  0.00  0.00     0.002 A 
HETATM   10  C   UNK N   1      24.087  15.217   5.164  0.00  0.00     0.054 A 
ENDROOT
BRANCH   7  11
HETATM   11  C   UNK N   1      28.385  15.806   5.814  0.00  0.00     0.073 C 
BRANCH  11  12
HETATM   12  C   UNK N   1      29.035  17.164   6.113  0.00  0.00     0.162 C 
BRANCH  12  13
HETATM   13  C   UNK N   1      29.465  17.972   4.876  0.00  0.00     0.135 C 
HETATM   14  N   UNK N   1      28.835  18.994   4.385  0.00  0.00    -0.373 N 
ATOM     15  HN  UNK N   1      29.259  19.438   3.571  1.00  0.00     0.161 HD
BRANCH  14  16
HETATM   16  C   UNK N   1      27.600  19.577   4.861  0.00  0.00     0.121 C 
BRANCH  16  17
HETATM   17  C   UNK N   1      26.420  19.152   3.989  0.00  0.00     0.020 C 
BRANCH  17  18
HETATM   18  C   UNK N   1      25.144  18.954   4.794  0.00  0.00     0.001 C 
BRANCH  18  19
HETATM   19  C   UNK N   1      23.947  18.784   3.881  0.00  0.00    -0.004 C 
HETATM   20  C   UNK N   1      23.661  20.100   3.193  0.00  0.00     0.005 C 
ENDBRANCH  18  19
ENDBRANCH  17  18
ENDBRANCH  16  17
ENDBRANCH  14  16
BRANCH  13  21
HETATM   21  O   UNK N   1      30.582  17.572   4.240  0.00  0.00    -0.348 OA
HETATM   22  H   UNK N   1      30.917  18.043   3.503  0.00  0.00     0.219 HD
ENDBRANCH  13  21
ENDBRANCH  12  13
BRANCH  12  23
HETATM   23  N   UNK N   1      30.196  16.981   6.971  0.00  0.00    -0.362 N 
HETATM   24  C   UNK N   1      30.306  17.455   8.170  0.00  0.00     0.107 C 
HETATM   25  C   UNK N   1      29.210  18.245   8.819  0.00  0.00     0.097 C 
ATOM     26  HN  UNK N   1      30.978  16.440   6.600  1.00  0.00     0.162 HD
BRANCH  24  27
HETATM   27  O   UNK N   1      31.433  17.223   8.867  0.00  0.00    -0.350 OA
HETATM   28  H   UNK N   1      32.051  16.517   8.874  0.00  0.00     0.219 HD
ENDBRANCH  24  27
ENDBRANCH  12  23
ENDBRANCH  11  12
ENDBRANCH   7  11
BRANCH  10  29
HETATM   29  N   UNK N   1      22.651  14.821   5.152  0.00  0.00    -0.272 N 
HETATM   30  C   UNK N   1      22.167  13.570   5.559  0.00  0.00     0.326 C 
HETATM   31  O   UNK N   1      22.911  12.626   5.711  0.00  0.00    -0.260 OA
BRANCH  29  32
HETATM   32  C   UNK N   1      21.688  15.712   4.501  0.00  0.00     0.060 A 
HETATM   33  C   UNK N   1      21.380  15.435   3.147  0.00  0.00     0.031 A 
HETATM   34  C   UNK N   1      20.532  16.238   2.393  0.00  0.00     0.002 A 
HETATM   35  C   UNK N   1      19.982  17.377   2.956  0.00  0.00     0.001 A 
HETATM   36  C   UNK N   1      20.265  17.699   4.279  0.00  0.00     0.020 A 
HETATM   37  C   UNK N   1      21.095  16.895   5.084  0.00  0.00     0.065 A 
BRANCH  37  38
HETATM   38  C   UNK N   1      21.238  17.334   6.502  0.00  0.00     0.178 C 
HETATM   39  O   UNK N   1      21.458  18.512   6.751  0.00  0.00    -0.646 OA
BRANCH  38  40
HETATM   40  O   UNK N   1      21.084  16.472   7.521  0.00  0.00    -0.773 OA
HETATM   41  H   UNK N   1      20.876  16.639   8.419  0.00  0.00     0.167 HD
ENDBRANCH  38  40
ENDBRANCH  37  38
ENDBRANCH  29  32
BRANCH  30  42
HETATM   42  C   UNK N   1      20.713  13.286   5.819  0.00  0.00     0.237 C 
HETATM   43  O   UNK N   1      20.160  13.647   6.845  0.00  0.00    -0.643 OA
BRANCH  42  44
HETATM   44  O   UNK N   1      20.030  12.514   4.950  0.00  0.00    -0.769 OA
HETATM   45  H   UNK N   1      19.367  12.894   4.407  0.00  0.00     0.168 HD
ENDBRANCH  42  44
ENDBRANCH  30  42
ENDBRANCH  10  29
TORSDOF 16
ENDMDL
MODEL 5
REMARK VINA RESULT:      -7.5      1.859      3.692
REMARK  16 active torsions:
REMARK  status: ('A' for Active; 'I' for Inactive)
REMARK    1  A    between atoms: C_4  and  C_3 
REMARK    2  A    between atoms: C_9  and  C_4 
REMARK    3  A    between atoms: C_16  and  C_9 
REMARK    4  A    between atoms: N_30  and  C_16 
REMARK    5  A    between atoms: C_19  and  C_17 
REMARK    6  A    between atoms: C_23  and  C_17 
REMARK    7  A    between atoms: O_35  and  C_18 
REMARK    8  A    between atoms: C_28  and  C_22 
REMARK    9  A    between atoms: C_26  and  C_23 
REMARK   10  A    between atoms: C_23  and  N_32 
REMARK   11  A    between atoms: N_34  and  C_24 
REMARK   12  A    between atoms: N_34  and  C_25 
REMARK   13  A    between atoms: O_36  and  C_26 
REMARK   14  A    between atoms: C_29  and  C_27 
REMARK       I    between atoms: N_34  and  C_27 
REMARK   15  A    between atoms: O_39  and  C_28 
REMARK   16  A    between atoms: O_40  and  C_29 
ROOT
HETATM    1  C   UNK N   1      23.957  20.678   2.986  0.00  0.00     0.001 A 
HETATM    2  C   UNK N   1      22.638  20.253   2.993  0.00  0.00     0.001 A 
HETATM    3  C   UNK N   1      24.960  19.792   3.350  0.00  0.00     0.013 A 
HETATM    4  C   UNK N   1      22.328  18.950   3.380  0.00  0.00     0.014 A 
HETATM    5  C   UNK N   1      25.419  16.359   4.604  0.00  0.00     0.010 A 
HETATM    6  C   UNK N   1      24.106  15.921   4.697  0.00  0.00     0.031 A 
HETATM    7  C   UNK N   1      25.709  17.622   4.113  0.00  0.00    -0.044 A 
HETATM    8  C   UNK N   1      24.656  18.483   3.775  0.00  0.00    -0.017 A 
HETATM    9  C   UNK N   1      23.295  18.032   3.817  0.00  0.00     0.002 A 
HETATM   10  C   UNK N   1      22.996  16.672   4.257  0.00  0.00     0.054 A 
ENDROOT
BRANCH   7  11
HETATM   11  C   UNK N   1      27.137  18.064   3.863  0.00  0.00     0.073 C 
BRANCH  11  12
HETATM   12  C   UNK N   1      28.130  18.133   5.032  0.00  0.00     0.162 C 
BRANCH  12  13
HETATM   13  C   UNK N   1      27.811  19.190   6.103  0.00  0.00     0.135 C 
HETATM   14  N   UNK N   1      27.799  18.987   7.385  0.00  0.00    -0.373 N 
ATOM     15  HN  UNK N   1      27.588  19.796   7.968  1.00  0.00     0.161 HD
BRANCH  14  16
HETATM   16  C   UNK N   1      28.052  17.744   8.080  0.00  0.00     0.121 C 
BRANCH  16  17
HETATM   17  C   UNK N   1      28.860  17.983   9.355  0.00  0.00     0.020 C 
BRANCH  17  18
HETATM   18  C   UNK N   1      30.257  18.514   9.065  0.00  0.00     0.001 C 
BRANCH  18  19
HETATM   19  C   UNK N   1      31.178  17.399   8.615  0.00  0.00    -0.004 C 
HETATM   20  C   UNK N   1      32.500  17.995   8.186  0.00  0.00     0.005 C 
ENDBRANCH  18  19
ENDBRANCH  17  18
ENDBRANCH  16  17
ENDBRANCH  14  16
BRANCH  13  21
HETATM   21  O   UNK N   1      27.499  20.426   5.671  0.00  0.00    -0.348 OA
HETATM   22  H   UNK N   1      26.608  20.698   5.575  0.00  0.00     0.219 HD
ENDBRANCH  13  21
ENDBRANCH  12  13
BRANCH  12  23
HETATM   23  N   UNK N   1      29.473  18.378   4.528  0.00  0.00    -0.362 N 
HETATM   24  C   UNK N   1      30.457  17.543   4.623  0.00  0.00     0.107 C 
HETATM   25  C   UNK N   1      30.302  16.196   5.261  0.00  0.00     0.097 C 
ATOM     26  HN  UNK N   1      29.651  19.271   4.068  1.00  0.00     0.162 HD
BRANCH  24  27
HETATM   27  O   UNK N   1      31.658  17.884   4.122  0.00  0.00    -0.350 OA
HETATM   28  H   UNK N   1      32.441  17.400   3.943  0.00  0.00     0.219 HD
ENDBRANCH  24  27
ENDBRANCH  12  23
ENDBRANCH  11  12
ENDBRANCH   7  11
BRANCH  10  29
HETATM   29  N   UNK N   1      21.680  15.973   4.241  0.00  0.00    -0.272 N 
HETATM   30  C   UNK N   1      20.760  15.986   5.298  0.00  0.00     0.326 C 
HETATM   31  O   UNK N   1      21.080  16.355   6.407  0.00  0.00    -0.260 OA
BRANCH  29  32
HETATM   32  C   UNK N   1      21.391  15.056   3.136  0.00  0.00     0.060 A 
HETATM   33  C   UNK N   1      21.777  13.706   3.313  0.00  0.00     0.031 A 
HETATM   34  C   UNK N   1      21.619  12.747   2.320  0.00  0.00     0.002 A 
HETATM   35  C   UNK N   1      21.098  13.109   1.089  0.00  0.00     0.001 A 
HETATM   36  C   UNK N   1      20.717  14.427   0.862  0.00  0.00     0.020 A 
HETATM   37  C   UNK N   1      20.833  15.421   1.853  0.00  0.00     0.065 A 
BRANCH  37  38
HETATM   38  C   UNK N   1      20.309  16.766   1.479  0.00  0.00     0.178 C 
HETATM   39  O   UNK N   1      20.655  17.278   0.423  0.00  0.00    -0.646 OA
BRANCH  38  40
HETATM   40  O   UNK N   1      19.424  17.414   2.257  0.00  0.00    -0.773 OA
HETATM   41  H   UNK N   1      19.169  17.242   3.142  0.00  0.00     0.167 HD
ENDBRANCH  38  40
ENDBRANCH  37  38
ENDBRANCH  29  32
BRANCH  30  42
HETATM   42  C   UNK N   1      19.333  15.533   5.162  0.00  0.00     0.237 C 
HETATM   43  O   UNK N   1      18.984  14.404   5.468  0.00  0.00    -0.643 OA
BRANCH  42  44
HETATM   44  O   UNK N   1      18.436  16.354   4.580  0.00  0.00    -0.769 OA
HETATM   45  H   UNK N   1      18.352  16.369   3.646  0.00  0.00     0.168 HD
ENDBRANCH  42  44
ENDBRANCH  30  42
ENDBRANCH  10  29
TORSDOF 16
ENDMDL
MODEL 6
REMARK VINA RESULT:      -7.4     13.662     16.551
REMARK  16 active torsions:
REMARK  status: ('A' for Active; 'I' for Inactive)
REMARK    1  A    between atoms: C_4  and  C_3 
REMARK    2  A    between atoms: C_9  and  C_4 
REMARK    3  A    between atoms: C_16  and  C_9 
REMARK    4  A    between atoms: N_30  and  C_16 
REMARK    5  A    between atoms: C_19  and  C_17 
REMARK    6  A    between atoms: C_23  and  C_17 
REMARK    7  A    between atoms: O_35  and  C_18 
REMARK    8  A    between atoms: C_28  and  C_22 
REMARK    9  A    between atoms: C_26  and  C_23 
REMARK   10  A    between atoms: C_23  and  N_32 
REMARK   11  A    between atoms: N_34  and  C_24 
REMARK   12  A    between atoms: N_34  and  C_25 
REMARK   13  A    between atoms: O_36  and  C_26 
REMARK   14  A    between atoms: C_29  and  C_27 
REMARK       I    between atoms: N_34  and  C_27 
REMARK   15  A    between atoms: O_39  and  C_28 
REMARK   16  A    between atoms: O_40  and  C_29 
ROOT
HETATM    1  C   UNK N   1      29.332  29.274  -7.993  0.00  0.00     0.001 A 
HETATM    2  C   UNK N   1      29.426  28.361  -9.031  0.00  0.00     0.001 A 
HETATM    3  C   UNK N   1      28.363  29.095  -7.015  0.00  0.00     0.013 A 
HETATM    4  C   UNK N   1      28.542  27.286  -9.096  0.00  0.00     0.014 A 
HETATM    5  C   UNK N   1      25.539  26.889  -6.164  0.00  0.00     0.010 A 
HETATM    6  C   UNK N   1      25.554  25.999  -7.228  0.00  0.00     0.031 A 
HETATM    7  C   UNK N   1      26.496  27.885  -6.064  0.00  0.00    -0.044 A 
HETATM    8  C   UNK N   1      27.442  28.031  -7.088  0.00  0.00    -0.017 A 
HETATM    9  C   UNK N   1      27.505  27.092  -8.171  0.00  0.00     0.002 A 
HETATM   10  C   UNK N   1      26.545  25.992  -8.231  0.00  0.00     0.054 A 
ENDROOT
BRANCH   7  11
HETATM   11  C   UNK N   1      26.590  28.771  -4.839  0.00  0.00     0.073 C 
BRANCH  11  12
HETATM   12  C   UNK N   1      27.385  28.298  -3.613  0.00  0.00     0.162 C 
BRANCH  12  13
HETATM   13  C   UNK N   1      27.022  26.895  -3.097  0.00  0.00     0.135 C 
HETATM   14  N   UNK N   1      27.627  25.793  -3.416  0.00  0.00    -0.373 N 
ATOM     15  HN  UNK N   1      27.280  24.942  -2.973  1.00  0.00     0.161 HD
BRANCH  14  16
HETATM   16  C   UNK N   1      28.738  25.632  -4.327  0.00  0.00     0.121 C 
BRANCH  16  17
HETATM   17  C   UNK N   1      28.418  24.600  -5.408  0.00  0.00     0.020 C 
BRANCH  17  18
HETATM   18  C   UNK N   1      28.703  23.176  -4.953  0.00  0.00     0.001 C 
BRANCH  18  19
HETATM   19  C   UNK N   1      30.140  22.793  -5.240  0.00  0.00    -0.004 C 
HETATM   20  C   UNK N   1      30.312  21.310  -5.002  0.00  0.00     0.005 C 
ENDBRANCH  18  19
ENDBRANCH  17  18
ENDBRANCH  16  17
ENDBRANCH  14  16
BRANCH  13  21
HETATM   21  O   UNK N   1      25.974  26.803  -2.256  0.00  0.00    -0.348 OA
HETATM   22  H   UNK N   1      25.464  26.019  -2.198  0.00  0.00     0.219 HD
ENDBRANCH  13  21
ENDBRANCH  12  13
BRANCH  12  23
HETATM   23  N   UNK N   1      27.227  29.246  -2.522  0.00  0.00    -0.362 N 
HETATM   24  C   UNK N   1      28.204  29.761  -1.847  0.00  0.00     0.107 C 
HETATM   25  C   UNK N   1      29.636  29.437  -2.145  0.00  0.00     0.097 C 
ATOM     26  HN  UNK N   1      26.277  29.526  -2.271  1.00  0.00     0.162 HD
BRANCH  24  27
HETATM   27  O   UNK N   1      27.932  30.627  -0.854  0.00  0.00    -0.350 OA
HETATM   28  H   UNK N   1      28.240  30.711   0.028  0.00  0.00     0.219 HD
ENDBRANCH  24  27
ENDBRANCH  12  23
ENDBRANCH  11  12
ENDBRANCH   7  11
BRANCH  10  29
HETATM   29  N   UNK N   1      26.527  24.845  -9.182  0.00  0.00    -0.272 N 
HETATM   30  C   UNK N   1      25.733  24.782 -10.336  0.00  0.00     0.326 C 
HETATM   31  O   UNK N   1      24.810  25.547 -10.508  0.00  0.00    -0.260 OA
BRANCH  29  32
HETATM   32  C   UNK N   1      27.233  23.618  -8.808  0.00  0.00     0.060 A 
HETATM   33  C   UNK N   1      28.598  23.534  -9.175  0.00  0.00     0.031 A 
HETATM   34  C   UNK N   1      29.368  22.402  -8.938  0.00  0.00     0.002 A 
HETATM   35  C   UNK N   1      28.791  21.287  -8.353  0.00  0.00     0.001 A 
HETATM   36  C   UNK N   1      27.450  21.315  -7.987  0.00  0.00     0.020 A 
HETATM   37  C   UNK N   1      26.645  22.455  -8.184  0.00  0.00     0.065 A 
BRANCH  37  38
HETATM   38  C   UNK N   1      25.250  22.353  -7.668  0.00  0.00     0.178 C 
HETATM   39  O   UNK N   1      25.034  22.500  -6.472  0.00  0.00    -0.646 OA
BRANCH  38  40
HETATM   40  O   UNK N   1      24.210  22.148  -8.495  0.00  0.00    -0.773 OA
HETATM   41  H   UNK N   1      24.172  21.670  -9.299  0.00  0.00     0.167 HD
ENDBRANCH  38  40
ENDBRANCH  37  38
ENDBRANCH  29  32
BRANCH  30  42
HETATM   42  C   UNK N   1      25.936  23.768 -11.428  0.00  0.00     0.237 C 
HETATM   43  O   UNK N   1      25.441  22.654 -11.373  0.00  0.00    -0.643 OA
BRANCH  42  44
HETATM   44  O   UNK N   1      26.781  24.055 -12.440  0.00  0.00    -0.769 OA
HETATM   45  H   UNK N   1      26.816  24.923 -12.789  0.00  0.00     0.168 HD
ENDBRANCH  42  44
ENDBRANCH  30  42
ENDBRANCH  10  29
TORSDOF 16
ENDMDL
MODEL 7
REMARK VINA RESULT:      -7.4      2.179      7.948
REMARK  16 active torsions:
REMARK  status: ('A' for Active; 'I' for Inactive)
REMARK    1  A    between atoms: C_4  and  C_3 
REMARK    2  A    between atoms: C_9  and  C_4 
REMARK    3  A    between atoms: C_16  and  C_9 
REMARK    4  A    between atoms: N_30  and  C_16 
REMARK    5  A    between atoms: C_19  and  C_17 
REMARK    6  A    between atoms: C_23  and  C_17 
REMARK    7  A    between atoms: O_35  and  C_18 
REMARK    8  A    between atoms: C_28  and  C_22 
REMARK    9  A    between atoms: C_26  and  C_23 
REMARK   10  A    between atoms: C_23  and  N_32 
REMARK   11  A    between atoms: N_34  and  C_24 
REMARK   12  A    between atoms: N_34  and  C_25 
REMARK   13  A    between atoms: O_36  and  C_26 
REMARK   14  A    between atoms: C_29  and  C_27 
REMARK       I    between atoms: N_34  and  C_27 
REMARK   15  A    between atoms: O_39  and  C_28 
REMARK   16  A    between atoms: O_40  and  C_29 
ROOT
HETATM    1  C   UNK N   1      23.104  14.201   1.173  0.00  0.00     0.001 A 
HETATM    2  C   UNK N   1      24.435  14.536   0.984  0.00  0.00     0.001 A 
HETATM    3  C   UNK N   1      22.503  14.464   2.396  0.00  0.00     0.013 A 
HETATM    4  C   UNK N   1      25.162  15.117   2.022  0.00  0.00     0.014 A 
HETATM    5  C   UNK N   1      23.303  15.757   5.750  0.00  0.00     0.010 A 
HETATM    6  C   UNK N   1      24.656  16.036   5.623  0.00  0.00     0.031 A 
HETATM    7  C   UNK N   1      22.575  15.282   4.671  0.00  0.00    -0.044 A 
HETATM    8  C   UNK N   1      23.236  15.019   3.463  0.00  0.00    -0.017 A 
HETATM    9  C   UNK N   1      24.623  15.347   3.297  0.00  0.00     0.002 A 
HETATM   10  C   UNK N   1      25.369  15.925   4.412  0.00  0.00     0.054 A 
ENDROOT
BRANCH   7  11
HETATM   11  C   UNK N   1      21.072  15.113   4.745  0.00  0.00     0.073 C 
BRANCH  11  12
HETATM   12  C   UNK N   1      20.179  16.331   5.025  0.00  0.00     0.162 C 
BRANCH  12  13
HETATM   13  C   UNK N   1      19.128  16.133   6.130  0.00  0.00     0.135 C 
HETATM   14  N   UNK N   1      19.365  16.124   7.406  0.00  0.00    -0.373 N 
ATOM     15  HN  UNK N   1      18.556  16.001   8.015  1.00  0.00     0.161 HD
BRANCH  14  16
HETATM   16  C   UNK N   1      20.645  16.266   8.063  0.00  0.00     0.121 C 
BRANCH  16  17
HETATM   17  C   UNK N   1      20.886  15.126   9.051  0.00  0.00     0.020 C 
BRANCH  17  18
HETATM   18  C   UNK N   1      21.947  14.150   8.563  0.00  0.00     0.001 C 
BRANCH  18  19
HETATM   19  C   UNK N   1      21.314  12.977   7.843  0.00  0.00    -0.004 C 
HETATM   20  C   UNK N   1      22.352  12.321   6.961  0.00  0.00     0.005 C 
ENDBRANCH  18  19
ENDBRANCH  17  18
ENDBRANCH  16  17
ENDBRANCH  14  16
BRANCH  13  21
HETATM   21  O   UNK N   1      17.855  15.936   5.737  0.00  0.00    -0.348 OA
HETATM   22  H   UNK N   1      17.473  16.448   5.052  0.00  0.00     0.219 HD
ENDBRANCH  13  21
ENDBRANCH  12  13
BRANCH  12  23
HETATM   23  N   UNK N   1      19.498  16.738   3.807  0.00  0.00    -0.362 N 
HETATM   24  C   UNK N   1      19.861  17.728   3.056  0.00  0.00     0.107 C 
HETATM   25  C   UNK N   1      21.067  18.563   3.366  0.00  0.00     0.097 C 
ATOM     26  HN  UNK N   1      18.674  16.206   3.524  1.00  0.00     0.162 HD
BRANCH  24  27
HETATM   27  O   UNK N   1      19.146  18.013   1.952  0.00  0.00    -0.350 OA
HETATM   28  H   UNK N   1      18.372  18.519   1.801  0.00  0.00     0.219 HD
ENDBRANCH  24  27
ENDBRANCH  12  23
ENDBRANCH  11  12
ENDBRANCH   7  11
BRANCH  10  29
HETATM   29  N   UNK N   1      26.760  16.458   4.403  0.00  0.00    -0.272 N 
HETATM   30  C   UNK N   1      27.908  15.681   4.188  0.00  0.00     0.326 C 
HETATM   31  O   UNK N   1      27.871  14.473   4.250  0.00  0.00    -0.260 OA
BRANCH  29  32
HETATM   32  C   UNK N   1      26.980  17.842   4.828  0.00  0.00     0.060 A 
HETATM   33  C   UNK N   1      26.659  18.853   3.890  0.00  0.00     0.031 A 
HETATM   34  C   UNK N   1      26.878  20.202   4.140  0.00  0.00     0.002 A 
HETATM   35  C   UNK N   1      27.462  20.595   5.332  0.00  0.00     0.001 A 
HETATM   36  C   UNK N   1      27.808  19.638   6.281  0.00  0.00     0.020 A 
HETATM   37  C   UNK N   1      27.575  18.264   6.075  0.00  0.00     0.065 A 
BRANCH  37  38
HETATM   38  C   UNK N   1      27.930  17.374   7.218  0.00  0.00     0.178 C 
HETATM   39  O   UNK N   1      29.095  17.298   7.586  0.00  0.00    -0.646 OA
BRANCH  38  40
HETATM   40  O   UNK N   1      26.990  16.685   7.888  0.00  0.00    -0.773 OA
HETATM   41  H   UNK N   1      26.064  16.817   7.923  0.00  0.00     0.167 HD
ENDBRANCH  38  40
ENDBRANCH  37  38
ENDBRANCH  29  32
BRANCH  30  42
HETATM   42  C   UNK N   1      29.262  16.265   3.891  0.00  0.00     0.237 C 
HETATM   43  O   UNK N   1      30.166  16.242   4.710  0.00  0.00    -0.643 OA
BRANCH  42  44
HETATM   44  O   UNK N   1      29.448  16.935   2.736  0.00  0.00    -0.769 OA
HETATM   45  H   UNK N   1      29.473  16.468   1.923  0.00  0.00     0.168 HD
ENDBRANCH  42  44
ENDBRANCH  30  42
ENDBRANCH  10  29
TORSDOF 16
ENDMDL
MODEL 8
REMARK VINA RESULT:      -7.3     13.296     15.676
REMARK  16 active torsions:
REMARK  status: ('A' for Active; 'I' for Inactive)
REMARK    1  A    between atoms: C_4  and  C_3 
REMARK    2  A    between atoms: C_9  and  C_4 
REMARK    3  A    between atoms: C_16  and  C_9 
REMARK    4  A    between atoms: N_30  and  C_16 
REMARK    5  A    between atoms: C_19  and  C_17 
REMARK    6  A    between atoms: C_23  and  C_17 
REMARK    7  A    between atoms: O_35  and  C_18 
REMARK    8  A    between atoms: C_28  and  C_22 
REMARK    9  A    between atoms: C_26  and  C_23 
REMARK   10  A    between atoms: C_23  and  N_32 
REMARK   11  A    between atoms: N_34  and  C_24 
REMARK   12  A    between atoms: N_34  and  C_25 
REMARK   13  A    between atoms: O_36  and  C_26 
REMARK   14  A    between atoms: C_29  and  C_27 
REMARK       I    between atoms: N_34  and  C_27 
REMARK   15  A    between atoms: O_39  and  C_28 
REMARK   16  A    between atoms: O_40  and  C_29 
ROOT
HETATM    1  C   UNK N   1      28.050  22.000  -7.451  0.00  0.00     0.001 A 
HETATM    2  C   UNK N   1      27.354  23.198  -7.501  0.00  0.00     0.001 A 
HETATM    3  C   UNK N   1      28.958  21.783  -6.425  0.00  0.00     0.013 A 
HETATM    4  C   UNK N   1      27.583  24.177  -6.535  0.00  0.00     0.014 A 
HETATM    5  C   UNK N   1      30.460  23.495  -3.531  0.00  0.00     0.010 A 
HETATM    6  C   UNK N   1      29.840  24.735  -3.591  0.00  0.00     0.031 A 
HETATM    7  C   UNK N   1      30.136  22.499  -4.437  0.00  0.00    -0.044 A 
HETATM    8  C   UNK N   1      29.223  22.778  -5.463  0.00  0.00    -0.017 A 
HETATM    9  C   UNK N   1      28.535  24.036  -5.514  0.00  0.00     0.002 A 
HETATM   10  C   UNK N   1      28.817  25.057  -4.508  0.00  0.00     0.054 A 
ENDROOT
BRANCH   7  11
HETATM   11  C   UNK N   1      30.688  21.094  -4.299  0.00  0.00     0.073 C 
BRANCH  11  12
HETATM   12  C   UNK N   1      32.138  20.801  -4.708  0.00  0.00     0.162 C 
BRANCH  12  13
HETATM   13  C   UNK N   1      32.444  20.971  -6.206  0.00  0.00     0.135 C 
HETATM   14  N   UNK N   1      33.165  21.916  -6.727  0.00  0.00    -0.373 N 
ATOM     15  HN  UNK N   1      33.293  21.881  -7.738  1.00  0.00     0.161 HD
BRANCH  14  16
HETATM   16  C   UNK N   1      33.808  23.013  -6.037  0.00  0.00     0.121 C 
BRANCH  16  17
HETATM   17  C   UNK N   1      32.867  24.210  -5.913  0.00  0.00     0.020 C 
BRANCH  17  18
HETATM   18  C   UNK N   1      32.181  24.548  -7.229  0.00  0.00     0.001 C 
BRANCH  18  19
HETATM   19  C   UNK N   1      31.375  25.825  -7.108  0.00  0.00    -0.004 C 
HETATM   20  C   UNK N   1      30.356  25.874  -8.224  0.00  0.00     0.005 C 
ENDBRANCH  18  19
ENDBRANCH  17  18
ENDBRANCH  16  17
ENDBRANCH  14  16
BRANCH  13  21
HETATM   21  O   UNK N   1      31.903  20.072  -7.049  0.00  0.00    -0.348 OA
HETATM   22  H   UNK N   1      30.974  19.975  -7.127  0.00  0.00     0.219 HD
ENDBRANCH  13  21
ENDBRANCH  12  13
BRANCH  12  23
HETATM   23  N   UNK N   1      32.501  19.448  -4.314  0.00  0.00    -0.362 N 
HETATM   24  C   UNK N   1      33.708  19.054  -4.064  0.00  0.00     0.107 C 
HETATM   25  C   UNK N   1      34.881  19.983  -4.138  0.00  0.00     0.097 C 
ATOM     26  HN  UNK N   1      31.750  18.762  -4.229  1.00  0.00     0.162 HD
BRANCH  24  27
HETATM   27  O   UNK N   1      33.921  17.773  -3.711  0.00  0.00    -0.350 OA
HETATM   28  H   UNK N   1      34.532  17.121  -3.996  0.00  0.00     0.219 HD
ENDBRANCH  24  27
ENDBRANCH  12  23
ENDBRANCH  11  12
ENDBRANCH   7  11
BRANCH  10  29
HETATM   29  N   UNK N   1      28.120  26.357  -4.303  0.00  0.00    -0.272 N 
HETATM   30  C   UNK N   1      26.974  26.529  -3.515  0.00  0.00     0.326 C 
HETATM   31  O   UNK N   1      26.313  25.582  -3.149  0.00  0.00    -0.260 OA
BRANCH  29  32
HETATM   32  C   UNK N   1      28.532  27.504  -5.115  0.00  0.00     0.060 A 
HETATM   33  C   UNK N   1      27.747  27.787  -6.259  0.00  0.00     0.031 A 
HETATM   34  C   UNK N   1      28.064  28.806  -7.149  0.00  0.00     0.002 A 
HETATM   35  C   UNK N   1      29.203  29.566  -6.949  0.00  0.00     0.001 A 
HETATM   36  C   UNK N   1      30.014  29.319  -5.846  0.00  0.00     0.020 A 
HETATM   37  C   UNK N   1      29.711  28.314  -4.906  0.00  0.00     0.065 A 
BRANCH  37  38
HETATM   38  C   UNK N   1      30.636  28.225  -3.740  0.00  0.00     0.178 C 
HETATM   39  O   UNK N   1      30.271  28.636  -2.646  0.00  0.00    -0.646 OA
BRANCH  38  40
HETATM   40  O   UNK N   1      31.850  27.660  -3.850  0.00  0.00    -0.773 OA
HETATM   41  H   UNK N   1      32.102  26.864  -4.273  0.00  0.00     0.167 HD
ENDBRANCH  38  40
ENDBRANCH  37  38
ENDBRANCH  29  32
BRANCH  30  42
HETATM   42  C   UNK N   1      26.458  27.874  -3.082  0.00  0.00     0.237 C 
HETATM   43  O   UNK N   1      27.046  28.552  -2.255  0.00  0.00    -0.643 OA
BRANCH  42  44
HETATM   44  O   UNK N   1      25.256  28.291  -3.530  0.00  0.00    -0.769 OA
HETATM   45  H   UNK N   1      24.472  27.996  -3.110  0.00  0.00     0.168 HD
ENDBRANCH  42  44
ENDBRANCH  30  42
ENDBRANCH  10  29
TORSDOF 16
ENDMDL
MODEL 9
REMARK VINA RESULT:      -7.1      2.994      8.358
REMARK  16 active torsions:
REMARK  status: ('A' for Active; 'I' for Inactive)
REMARK    1  A    between atoms: C_4  and  C_3 
REMARK    2  A    between atoms: C_9  and  C_4 
REMARK    3  A    between atoms: C_16  and  C_9 
REMARK    4  A    between atoms: N_30  and  C_16 
REMARK    5  A    between atoms: C_19  and  C_17 
REMARK    6  A    between atoms: C_23  and  C_17 
REMARK    7  A    between atoms: O_35  and  C_18 
REMARK    8  A    between atoms: C_28  and  C_22 
REMARK    9  A    between atoms: C_26  and  C_23 
REMARK   10  A    between atoms: C_23  and  N_32 
REMARK   11  A    between atoms: N_34  and  C_24 
REMARK   12  A    between atoms: N_34  and  C_25 
REMARK   13  A    between atoms: O_36  and  C_26 
REMARK   14  A    between atoms: C_29  and  C_27 
REMARK       I    between atoms: N_34  and  C_27 
REMARK   15  A    between atoms: O_39  and  C_28 
REMARK   16  A    between atoms: O_40  and  C_29 
ROOT
HETATM    1  C   UNK N   1      22.055  15.528   4.071  0.00  0.00     0.001 A 
HETATM    2  C   UNK N   1      23.075  16.192   3.408  0.00  0.00     0.001 A 
HETATM    3  C   UNK N   1      22.288  15.015   5.339  0.00  0.00     0.013 A 
HETATM    4  C   UNK N   1      24.326  16.324   4.008  0.00  0.00     0.014 A 
HETATM    5  C   UNK N   1      24.997  14.617   7.803  0.00  0.00     0.010 A 
HETATM    6  C   UNK N   1      26.062  15.208   7.140  0.00  0.00     0.031 A 
HETATM    7  C   UNK N   1      23.735  14.594   7.232  0.00  0.00    -0.044 A 
HETATM    8  C   UNK N   1      23.559  15.113   5.941  0.00  0.00    -0.017 A 
HETATM    9  C   UNK N   1      24.635  15.771   5.259  0.00  0.00     0.002 A 
HETATM   10  C   UNK N   1      25.946  15.867   5.899  0.00  0.00     0.054 A 
ENDROOT
BRANCH   7  11
HETATM   11  C   UNK N   1      22.529  14.090   7.998  0.00  0.00     0.073 C 
BRANCH  11  12
HETATM   12  C   UNK N   1      22.373  12.588   8.274  0.00  0.00     0.162 C 
BRANCH  12  13
HETATM   13  C   UNK N   1      21.841  11.755   7.095  0.00  0.00     0.135 C 
HETATM   14  N   UNK N   1      22.509  10.852   6.446  0.00  0.00    -0.373 N 
ATOM     15  HN  UNK N   1      22.009  10.371   5.699  1.00  0.00     0.161 HD
BRANCH  14  16
HETATM   16  C   UNK N   1      23.881  10.450   6.661  0.00  0.00     0.121 C 
BRANCH  16  17
HETATM   17  C   UNK N   1      24.708  10.615   5.386  0.00  0.00     0.020 C 
BRANCH  17  18
HETATM   18  C   UNK N   1      25.467  11.933   5.355  0.00  0.00     0.001 C 
BRANCH  18  19
HETATM   19  C   UNK N   1      25.483  12.516   3.956  0.00  0.00    -0.004 C 
HETATM   20  C   UNK N   1      24.094  12.415   3.365  0.00  0.00     0.005 C 
ENDBRANCH  18  19
ENDBRANCH  17  18
ENDBRANCH  16  17
ENDBRANCH  14  16
BRANCH  13  21
HETATM   21  O   UNK N   1      20.580  11.999   6.692  0.00  0.00    -0.348 OA
HETATM   22  H   UNK N   1      20.395  12.292   5.822  0.00  0.00     0.219 HD
ENDBRANCH  13  21
ENDBRANCH  12  13
BRANCH  12  23
HETATM   23  N   UNK N   1      21.498  12.381   9.417  0.00  0.00    -0.362 N 
HETATM   24  C   UNK N   1      21.904  12.102  10.614  0.00  0.00     0.107 C 
HETATM   25  C   UNK N   1      23.358  11.982  10.954  0.00  0.00     0.097 C 
ATOM     26  HN  UNK N   1      20.492  12.461   9.264  1.00  0.00     0.162 HD
BRANCH  24  27
HETATM   27  O   UNK N   1      20.997  11.928  11.592  0.00  0.00    -0.350 OA
HETATM   28  H   UNK N   1      21.015  12.070  12.519  0.00  0.00     0.219 HD
ENDBRANCH  24  27
ENDBRANCH  12  23
ENDBRANCH  11  12
ENDBRANCH   7  11
BRANCH  10  29
HETATM   29  N   UNK N   1      27.141  16.621   5.427  0.00  0.00    -0.272 N 
HETATM   30  C   UNK N   1      28.324  16.027   4.967  0.00  0.00     0.326 C 
HETATM   31  O   UNK N   1      28.558  14.855   5.162  0.00  0.00    -0.260 OA
BRANCH  29  32
HETATM   32  C   UNK N   1      27.172  18.072   5.622  0.00  0.00     0.060 A 
HETATM   33  C   UNK N   1      26.699  18.868   4.551  0.00  0.00     0.031 A 
HETATM   34  C   UNK N   1      26.732  20.257   4.580  0.00  0.00     0.002 A 
HETATM   35  C   UNK N   1      27.276  20.910   5.674  0.00  0.00     0.001 A 
HETATM   36  C   UNK N   1      27.766  20.172   6.746  0.00  0.00     0.020 A 
HETATM   37  C   UNK N   1      27.722  18.764   6.766  0.00  0.00     0.065 A 
BRANCH  37  38
HETATM   38  C   UNK N   1      28.216  18.124   8.019  0.00  0.00     0.178 C 
HETATM   39  O   UNK N   1      29.307  17.569   8.026  0.00  0.00    -0.646 OA
BRANCH  38  40
HETATM   40  O   UNK N   1      27.508  18.181   9.161  0.00  0.00    -0.773 OA
HETATM   41  H   UNK N   1      26.956  18.863   9.487  0.00  0.00     0.167 HD
ENDBRANCH  38  40
ENDBRANCH  37  38
ENDBRANCH  29  32
BRANCH  30  42
HETATM   42  C   UNK N   1      29.397  16.779   4.226  0.00  0.00     0.237 C 
HETATM   43  O   UNK N   1      29.467  16.766   3.008  0.00  0.00    -0.643 OA
BRANCH  42  44
HETATM   44  O   UNK N   1      30.374  17.388   4.928  0.00  0.00    -0.769 OA
HETATM   45  H   UNK N   1      31.104  17.769   4.480  0.00  0.00     0.168 HD
ENDBRANCH  42  44
ENDBRANCH  30  42
ENDBRANCH  10  29
TORSDOF 16
ENDMDL
