MODEL 1
REMARK VINA RESULT:      -7.4      0.000      0.000
REMARK  31 active torsions:
REMARK  status: ('A' for Active; 'I' for Inactive)
REMARK    1  A    between atoms: C_4  and  C_3 
REMARK    2  A    between atoms: C_12  and  C_3 
REMARK    3  A    between atoms: N_25  and  C_4 
REMARK    4  A    between atoms: C_6  and  C_5 
REMARK    5  A    between atoms: N_23  and  C_5 
REMARK    6  A    between atoms: S_54  and  C_6 
REMARK    7  A    between atoms: C_11  and  C_7 
REMARK    8  A    between atoms: O_46  and  C_7 
REMARK    9  A    between atoms: C_21  and  C_8 
REMARK   10  A    between atoms: O_47  and  C_8 
REMARK   11  A    between atoms: N_23  and  C_12 
REMARK   12  A    between atoms: O_34  and  C_12 
REMARK   13  A    between atoms: C_14  and  O_35 
REMARK   14  A    between atoms: C_15  and  O_49 
REMARK   15  A    between atoms: C_19  and  C_16 
REMARK   16  A    between atoms: C_21  and  C_16 
REMARK   17  A    between atoms: C_16  and  O_36 
REMARK   18  A    between atoms: N_22  and  C_17 
REMARK   19  A    between atoms: N_25  and  C_19 
REMARK   20  A    between atoms: O_37  and  C_19 
REMARK   21  A    between atoms: C_20  and  N_33 
REMARK   22  A    between atoms: P_51  and  O_38 
REMARK   23  A    between atoms: P_51  and  O_39 
REMARK   24  A    between atoms: P_52  and  O_41 
REMARK   25  A    between atoms: P_53  and  O_43 
REMARK   26  A    between atoms: S_54  and  O_45 
REMARK   27  A    between atoms: P_52  and  O_46 
REMARK   28  A    between atoms: P_53  and  O_47 
REMARK   29  A    between atoms: P_51  and  O_49 
REMARK   30  A    between atoms: P_52  and  O_50 
REMARK   31  A    between atoms: P_53  and  O_50 
ROOT
HETATM    1  O   UNK N   1      27.064  21.702   5.799  0.00  0.00    -0.631 OA
HETATM    2  P   UNK N   1      26.831  20.173   5.941  0.00  0.00     0.401 P 
ENDROOT
BRANCH   2   3
HETATM    3  O   UNK N   1      27.082  19.820   7.622  0.00  0.00    -0.307 OA
HETATM    4  H   UNK N   1      27.248  20.262   8.469  0.00  0.00     0.222 HD
ENDBRANCH   2   3
BRANCH   2   5
HETATM    5  O   UNK N   1      25.184  19.764   5.542  0.00  0.00    -0.294 OA
BRANCH   5   6
HETATM    6  C   UNK N   1      25.133  19.371   4.196  0.00  0.00     0.215 C 
BRANCH   6   7
HETATM    7  C   UNK N   1      24.143  18.220   4.009  0.00  0.00     0.180 C 
HETATM    8  C   UNK N   1      22.685  18.717   3.950  0.00  0.00     0.197 C 
HETATM    9  C   UNK N   1      22.010  17.518   4.570  0.00  0.00     0.199 C 
HETATM   10  C   UNK N   1      22.995  17.265   5.701  0.00  0.00     0.262 C 
HETATM   11  O   UNK N   1      24.259  17.307   5.088  0.00  0.00    -0.353 OA
BRANCH   8  12
HETATM   12  O   UNK N   1      22.178  18.952   2.649  0.00  0.00    -0.286 OA
BRANCH  12  13
HETATM   13  P   UNK N   1      21.358  20.502   2.558  0.00  0.00     0.391 P 
HETATM   14  O   UNK N   1      22.395  21.643   2.723  0.00  0.00    -0.632 OA
BRANCH  13  15
HETATM   15  O   UNK N   1      20.545  20.726   1.039  0.00  0.00    -0.307 OA
HETATM   16  H   UNK N   1      20.681  20.633   0.083  0.00  0.00     0.222 HD
ENDBRANCH  13  15
BRANCH  13  17
HETATM   17  O   UNK N   1      20.230  20.678   3.865  0.00  0.00    -0.307 OA
HETATM   18  H   UNK N   1      19.652  21.455   3.911  0.00  0.00     0.222 HD
ENDBRANCH  13  17
ENDBRANCH  12  13
ENDBRANCH   8  12
BRANCH   9  19
HETATM   19  O   UNK N   1      20.716  17.807   5.007  0.00  0.00    -0.388 OA
HETATM   20  H   UNK N   1      20.273  18.457   5.575  0.00  0.00     0.210 HD
ENDBRANCH   9  19
BRANCH  10  21
HETATM   21  N   UNK N   1      22.840  16.006   6.439  0.00  0.00    -0.297 N 
HETATM   22  C   UNK N   1      23.725  14.978   6.356  0.00  0.00     0.188 A 
HETATM   23  N   UNK N   1      23.372  13.944   7.166  0.00  0.00    -0.346 N 
HETATM   24  C   UNK N   1      22.248  14.362   7.767  0.00  0.00     0.122 A 
ATOM     25  HN  UNK N   1      23.853  13.052   7.287  1.00  0.00     0.167 HD
HETATM   26  C   UNK N   1      21.474  13.732   8.726  0.00  0.00     0.131 A 
HETATM   27  C   UNK N   1      21.919  15.596   7.329  0.00  0.00     0.142 A 
HETATM   28  N   UNK N   1      20.383  14.397   9.206  0.00  0.00    -0.337 N 
HETATM   29  C   UNK N   1      20.065  15.654   8.747  0.00  0.00     0.183 A 
ATOM     30  HN  UNK N   1      19.798  13.957   9.916  1.00  0.00     0.168 HD
HETATM   31  N   UNK N   1      20.840  16.265   7.797  0.00  0.00    -0.336 N 
ATOM     32  HN  UNK N   1      20.611  17.198   7.453  1.00  0.00     0.168 HD
BRANCH  26  33
HETATM   33  N   UNK N   1      21.809  12.452   9.211  0.00  0.00    -0.383 N 
HETATM   34  H   UNK N   1      21.872  12.293  10.181  0.00  0.00     0.157 HD
HETATM   35  H   UNK N   1      21.980  11.715   8.580  0.00  0.00     0.157 HD
ENDBRANCH  26  33
ENDBRANCH  10  21
ENDBRANCH   6   7
ENDBRANCH   5   6
ENDBRANCH   2   5
BRANCH   2  36
HETATM   36  O   UNK N   1      28.033  19.310   5.015  0.00  0.00    -0.195 OA
BRANCH  36  37
HETATM   37  P   UNK N   1      28.316  17.780   5.806  0.00  0.00     0.401 P 
HETATM   38  O   UNK N   1      28.813  16.809   4.702  0.00  0.00    -0.631 OA
BRANCH  37  39
HETATM   39  O   UNK N   1      26.845  17.077   6.399  0.00  0.00    -0.307 OA
HETATM   40  H   UNK N   1      26.313  16.508   5.822  0.00  0.00     0.222 HD
ENDBRANCH  37  39
BRANCH  37  41
HETATM   41  O   UNK N   1      29.564  17.801   7.032  0.00  0.00    -0.296 OA
BRANCH  41  42
HETATM   42  C   UNK N   1      30.292  16.600   6.955  0.00  0.00     0.192 C 
BRANCH  42  43
HETATM   43  C   UNK N   1      31.814  16.807   6.899  0.00  0.00     0.008 C 
HETATM   44  C   UNK N   1      32.475  15.463   7.166  0.00  0.00     0.020 C 
HETATM   45  C   UNK N   1      32.247  17.259   5.504  0.00  0.00     0.020 C 
BRANCH  43  46
HETATM   46  C   UNK N   1      32.226  17.843   7.977  0.00  0.00     0.202 C 
BRANCH  46  47
HETATM   47  C   UNK N   1      33.672  17.735   8.382  0.00  0.00     0.141 C 
BRANCH  47  48
HETATM   48  N   UNK N   1      33.997  17.350   9.570  0.00  0.00    -0.372 N 
ATOM     49  HN  UNK N   1      33.381  17.582  10.349  1.00  0.00     0.161 HD
BRANCH  48  50
HETATM   50  C   UNK N   1      35.205  16.598   9.839  0.00  0.00     0.129 C 
BRANCH  50  51
HETATM   51  C   UNK N   1      34.956  15.105   9.685  0.00  0.00     0.103 C 
BRANCH  51  52
HETATM   52  C   UNK N   1      34.165  14.586  10.841  0.00  0.00     0.112 C 
BRANCH  52  53
HETATM   53  N   UNK N   1      34.660  13.678  11.607  0.00  0.00    -0.374 N 
ATOM     54  HN  UNK N   1      34.063  12.917  11.934  1.00  0.00     0.161 HD
BRANCH  53  55
HETATM   55  C   UNK N   1      36.043  13.714  12.011  0.00  0.00     0.134 C 
BRANCH  55  56
HETATM   56  C   UNK N   1      36.183  14.540  13.270  0.00  0.00     0.124 C 
BRANCH  56  57
HETATM   57  S   UNK N   1      36.226  13.430  14.704  0.00  0.00    -0.014 SA
BRANCH  57  58
HETATM   58  O   UNK N   1      34.540  13.121  14.600  0.00  0.00    -0.330 OA
HETATM   59  H   UNK N   1      34.064  12.739  15.355  0.00  0.00     0.227 HD
ENDBRANCH  57  58
ENDBRANCH  56  57
ENDBRANCH  55  56
ENDBRANCH  53  55
ENDBRANCH  52  53
BRANCH  52  60
HETATM   60  O   UNK N   1      32.929  15.080  11.070  0.00  0.00    -0.350 OA
HETATM   61  H   UNK N   1      32.158  15.266  10.570  0.00  0.00     0.219 HD
ENDBRANCH  52  60
ENDBRANCH  51  52
ENDBRANCH  50  51
ENDBRANCH  48  50
ENDBRANCH  47  48
BRANCH  47  62
HETATM   62  O   UNK N   1      34.623  18.033   7.471  0.00  0.00    -0.348 OA
HETATM   63  H   UNK N   1      34.655  18.837   6.990  0.00  0.00     0.219 HD
ENDBRANCH  47  62
ENDBRANCH  46  47
BRANCH  46  64
HETATM   64  O   UNK N   1      31.406  17.734   9.106  0.00  0.00    -0.387 OA
HETATM   65  H   UNK N   1      30.542  18.130   9.304  0.00  0.00     0.210 HD
ENDBRANCH  46  64
ENDBRANCH  43  46
ENDBRANCH  42  43
ENDBRANCH  41  42
ENDBRANCH  37  41
ENDBRANCH  36  37
ENDBRANCH   2  36
TORSDOF 31
ENDMDL
MODEL 2
REMARK VINA RESULT:      -7.0      6.935     11.377
REMARK  31 active torsions:
REMARK  status: ('A' for Active; 'I' for Inactive)
REMARK    1  A    between atoms: C_4  and  C_3 
REMARK    2  A    between atoms: C_12  and  C_3 
REMARK    3  A    between atoms: N_25  and  C_4 
REMARK    4  A    between atoms: C_6  and  C_5 
REMARK    5  A    between atoms: N_23  and  C_5 
REMARK    6  A    between atoms: S_54  and  C_6 
REMARK    7  A    between atoms: C_11  and  C_7 
REMARK    8  A    between atoms: O_46  and  C_7 
REMARK    9  A    between atoms: C_21  and  C_8 
REMARK   10  A    between atoms: O_47  and  C_8 
REMARK   11  A    between atoms: N_23  and  C_12 
REMARK   12  A    between atoms: O_34  and  C_12 
REMARK   13  A    between atoms: C_14  and  O_35 
REMARK   14  A    between atoms: C_15  and  O_49 
REMARK   15  A    between atoms: C_19  and  C_16 
REMARK   16  A    between atoms: C_21  and  C_16 
REMARK   17  A    between atoms: C_16  and  O_36 
REMARK   18  A    between atoms: N_22  and  C_17 
REMARK   19  A    between atoms: N_25  and  C_19 
REMARK   20  A    between atoms: O_37  and  C_19 
REMARK   21  A    between atoms: C_20  and  N_33 
REMARK   22  A    between atoms: P_51  and  O_38 
REMARK   23  A    between atoms: P_51  and  O_39 
REMARK   24  A    between atoms: P_52  and  O_41 
REMARK   25  A    between atoms: P_53  and  O_43 
REMARK   26  A    between atoms: S_54  and  O_45 
REMARK   27  A    between atoms: P_52  and  O_46 
REMARK   28  A    between atoms: P_53  and  O_47 
REMARK   29  A    between atoms: P_51  and  O_49 
REMARK   30  A    between atoms: P_52  and  O_50 
REMARK   31  A    between atoms: P_53  and  O_50 
ROOT
HETATM    1  O   UNK N   1      35.195  19.106   8.485  0.00  0.00    -0.631 OA
HETATM    2  P   UNK N   1      34.202  17.965   8.138  0.00  0.00     0.401 P 
ENDROOT
BRANCH   2   3
HETATM    3  O   UNK N   1      34.477  17.603   6.463  0.00  0.00    -0.307 OA
HETATM    4  H   UNK N   1      35.194  17.390   5.845  0.00  0.00     0.222 HD
ENDBRANCH   2   3
BRANCH   2   5
HETATM    5  O   UNK N   1      34.563  16.534   9.066  0.00  0.00    -0.294 OA
BRANCH   5   6
HETATM    6  C   UNK N   1      35.358  16.900  10.164  0.00  0.00     0.215 C 
BRANCH   6   7
HETATM    7  C   UNK N   1      36.193  15.711  10.642  0.00  0.00     0.180 C 
HETATM    8  C   UNK N   1      35.910  14.438   9.821  0.00  0.00     0.197 C 
HETATM    9  C   UNK N   1      36.144  13.412  10.902  0.00  0.00     0.199 C 
HETATM   10  C   UNK N   1      35.423  14.118  12.042  0.00  0.00     0.262 C 
HETATM   11  O   UNK N   1      35.904  15.438  12.004  0.00  0.00    -0.353 OA
BRANCH   8  12
HETATM   12  O   UNK N   1      36.783  14.214   8.729  0.00  0.00    -0.286 OA
BRANCH  12  13
HETATM   13  P   UNK N   1      35.887  13.893   7.254  0.00  0.00     0.391 P 
HETATM   14  O   UNK N   1      36.393  12.570   6.622  0.00  0.00    -0.632 OA
BRANCH  13  15
HETATM   15  O   UNK N   1      34.181  13.736   7.544  0.00  0.00    -0.307 OA
HETATM   16  H   UNK N   1      33.545  13.256   8.097  0.00  0.00     0.222 HD
ENDBRANCH  13  15
BRANCH  13  17
HETATM   17  O   UNK N   1      36.176  15.135   6.078  0.00  0.00    -0.307 OA
HETATM   18  H   UNK N   1      36.154  16.069   6.336  0.00  0.00     0.222 HD
ENDBRANCH  13  17
ENDBRANCH  12  13
ENDBRANCH   8  12
BRANCH   9  19
HETATM   19  O   UNK N   1      35.598  12.169  10.578  0.00  0.00    -0.388 OA
HETATM   20  H   UNK N   1      35.248  11.715   9.796  0.00  0.00     0.210 HD
ENDBRANCH   9  19
BRANCH  10  21
HETATM   21  N   UNK N   1      35.610  13.557  13.385  0.00  0.00    -0.297 N 
HETATM   22  C   UNK N   1      36.396  14.134  14.332  0.00  0.00     0.188 A 
HETATM   23  N   UNK N   1      36.369  13.438  15.501  0.00  0.00    -0.346 N 
HETATM   24  C   UNK N   1      35.532  12.418  15.260  0.00  0.00     0.122 A 
ATOM     25  HN  UNK N   1      36.873  13.646  16.364  1.00  0.00     0.167 HD
HETATM   26  C   UNK N   1      35.098  11.415  16.109  0.00  0.00     0.131 A 
HETATM   27  C   UNK N   1      35.080  12.480  13.990  0.00  0.00     0.142 A 
HETATM   28  N   UNK N   1      34.205  10.505  15.619  0.00  0.00    -0.337 N 
HETATM   29  C   UNK N   1      33.756  10.584  14.322  0.00  0.00     0.183 A 
ATOM     30  HN  UNK N   1      33.867   9.757  16.224  1.00  0.00     0.168 HD
HETATM   31  N   UNK N   1      34.195  11.583  13.493  0.00  0.00    -0.336 N 
ATOM     32  HN  UNK N   1      33.865  11.649  12.530  1.00  0.00     0.168 HD
BRANCH  26  33
HETATM   33  N   UNK N   1      35.543  11.342  17.444  0.00  0.00    -0.383 N 
HETATM   34  H   UNK N   1      36.183  10.644  17.712  0.00  0.00     0.157 HD
HETATM   35  H   UNK N   1      35.214  11.991  18.109  0.00  0.00     0.157 HD
ENDBRANCH  26  33
ENDBRANCH  10  21
ENDBRANCH   6   7
ENDBRANCH   5   6
ENDBRANCH   2   5
BRANCH   2  36
HETATM   36  O   UNK N   1      32.563  18.541   8.311  0.00  0.00    -0.195 OA
BRANCH  36  37
HETATM   37  P   UNK N   1      31.492  17.260   7.804  0.00  0.00     0.401 P 
HETATM   38  O   UNK N   1      30.364  17.195   8.868  0.00  0.00    -0.631 OA
BRANCH  37  39
HETATM   39  O   UNK N   1      32.265  15.708   7.869  0.00  0.00    -0.307 OA
HETATM   40  H   UNK N   1      31.729  14.899   7.874  0.00  0.00     0.222 HD
ENDBRANCH  37  39
BRANCH  37  41
HETATM   41  O   UNK N   1      30.698  17.524   6.268  0.00  0.00    -0.296 OA
BRANCH  41  42
HETATM   42  C   UNK N   1      30.549  16.286   5.618  0.00  0.00     0.192 C 
BRANCH  42  43
HETATM   43  C   UNK N   1      31.308  16.197   4.285  0.00  0.00     0.008 C 
HETATM   44  C   UNK N   1      30.293  15.895   3.193  0.00  0.00     0.020 C 
HETATM   45  C   UNK N   1      31.959  17.539   3.944  0.00  0.00     0.020 C 
BRANCH  43  46
HETATM   46  C   UNK N   1      32.366  15.068   4.376  0.00  0.00     0.202 C 
BRANCH  46  47
HETATM   47  C   UNK N   1      31.802  13.763   4.872  0.00  0.00     0.141 C 
BRANCH  47  48
HETATM   48  N   UNK N   1      31.685  12.751   4.080  0.00  0.00    -0.372 N 
ATOM     49  HN  UNK N   1      31.911  12.871   3.092  1.00  0.00     0.161 HD
BRANCH  48  50
HETATM   50  C   UNK N   1      31.244  11.452   4.540  0.00  0.00     0.129 C 
BRANCH  50  51
HETATM   51  C   UNK N   1      32.389  10.450   4.500  0.00  0.00     0.103 C 
BRANCH  51  52
HETATM   52  C   UNK N   1      33.605  11.019   5.155  0.00  0.00     0.112 C 
BRANCH  52  53
HETATM   53  N   UNK N   1      33.769  10.900   6.426  0.00  0.00    -0.374 N 
ATOM     54  HN  UNK N   1      34.295  11.613   6.933  1.00  0.00     0.161 HD
BRANCH  53  55
HETATM   55  C   UNK N   1      33.223   9.779   7.148  0.00  0.00     0.134 C 
BRANCH  55  56
HETATM   56  C   UNK N   1      33.891   9.672   8.501  0.00  0.00     0.124 C 
BRANCH  56  57
HETATM   57  S   UNK N   1      32.705  10.155   9.786  0.00  0.00    -0.014 SA
BRANCH  57  58
HETATM   58  O   UNK N   1      32.764  11.805   9.316  0.00  0.00    -0.330 OA
HETATM   59  H   UNK N   1      31.995  12.224   8.899  0.00  0.00     0.227 HD
ENDBRANCH  57  58
ENDBRANCH  56  57
ENDBRANCH  55  56
ENDBRANCH  53  55
ENDBRANCH  52  53
BRANCH  52  60
HETATM   60  O   UNK N   1      34.524  11.657   4.400  0.00  0.00    -0.350 OA
HETATM   61  H   UNK N   1      34.557  12.415   3.849  0.00  0.00     0.219 HD
ENDBRANCH  52  60
ENDBRANCH  51  52
ENDBRANCH  50  51
ENDBRANCH  48  50
ENDBRANCH  47  48
BRANCH  47  62
HETATM   62  O   UNK N   1      31.440  13.667   6.170  0.00  0.00    -0.348 OA
HETATM   63  H   UNK N   1      30.629  13.298   6.461  0.00  0.00     0.219 HD
ENDBRANCH  47  62
ENDBRANCH  46  47
BRANCH  46  64
HETATM   64  O   UNK N   1      33.439  15.460   5.184  0.00  0.00    -0.387 OA
HETATM   65  H   UNK N   1      33.973  16.271   5.181  0.00  0.00     0.210 HD
ENDBRANCH  46  64
ENDBRANCH  43  46
ENDBRANCH  42  43
ENDBRANCH  41  42
ENDBRANCH  37  41
ENDBRANCH  36  37
ENDBRANCH   2  36
TORSDOF 31
ENDMDL
MODEL 3
REMARK VINA RESULT:      -6.8      3.370      5.425
REMARK  31 active torsions:
REMARK  status: ('A' for Active; 'I' for Inactive)
REMARK    1  A    between atoms: C_4  and  C_3 
REMARK    2  A    between atoms: C_12  and  C_3 
REMARK    3  A    between atoms: N_25  and  C_4 
REMARK    4  A    between atoms: C_6  and  C_5 
REMARK    5  A    between atoms: N_23  and  C_5 
REMARK    6  A    between atoms: S_54  and  C_6 
REMARK    7  A    between atoms: C_11  and  C_7 
REMARK    8  A    between atoms: O_46  and  C_7 
REMARK    9  A    between atoms: C_21  and  C_8 
REMARK   10  A    between atoms: O_47  and  C_8 
REMARK   11  A    between atoms: N_23  and  C_12 
REMARK   12  A    between atoms: O_34  and  C_12 
REMARK   13  A    between atoms: C_14  and  O_35 
REMARK   14  A    between atoms: C_15  and  O_49 
REMARK   15  A    between atoms: C_19  and  C_16 
REMARK   16  A    between atoms: C_21  and  C_16 
REMARK   17  A    between atoms: C_16  and  O_36 
REMARK   18  A    between atoms: N_22  and  C_17 
REMARK   19  A    between atoms: N_25  and  C_19 
REMARK   20  A    between atoms: O_37  and  C_19 
REMARK   21  A    between atoms: C_20  and  N_33 
REMARK   22  A    between atoms: P_51  and  O_38 
REMARK   23  A    between atoms: P_51  and  O_39 
REMARK   24  A    between atoms: P_52  and  O_41 
REMARK   25  A    between atoms: P_53  and  O_43 
REMARK   26  A    between atoms: S_54  and  O_45 
REMARK   27  A    between atoms: P_52  and  O_46 
REMARK   28  A    between atoms: P_53  and  O_47 
REMARK   29  A    between atoms: P_51  and  O_49 
REMARK   30  A    between atoms: P_52  and  O_50 
REMARK   31  A    between atoms: P_53  and  O_50 
ROOT
HETATM    1  O   UNK N   1      25.756  15.172   4.485  0.00  0.00    -0.631 OA
HETATM    2  P   UNK N   1      25.865  15.937   5.831  0.00  0.00     0.401 P 
ENDROOT
BRANCH   2   3
HETATM    3  O   UNK N   1      25.235  17.523   5.518  0.00  0.00    -0.307 OA
HETATM    4  H   UNK N   1      25.079  18.373   5.957  0.00  0.00     0.222 HD
ENDBRANCH   2   3
BRANCH   2   5
HETATM    5  O   UNK N   1      24.863  15.188   7.046  0.00  0.00    -0.294 OA
BRANCH   5   6
HETATM    6  C   UNK N   1      23.665  14.772   6.444  0.00  0.00     0.215 C 
BRANCH   6   7
HETATM    7  C   UNK N   1      22.636  15.905   6.459  0.00  0.00     0.180 C 
HETATM    8  C   UNK N   1      21.251  15.421   6.931  0.00  0.00     0.197 C 
HETATM    9  C   UNK N   1      20.393  16.358   6.119  0.00  0.00     0.199 C 
HETATM   10  C   UNK N   1      21.150  16.273   4.802  0.00  0.00     0.262 C 
HETATM   11  O   UNK N   1      22.499  16.447   5.156  0.00  0.00    -0.353 OA
BRANCH   8  12
HETATM   12  O   UNK N   1      20.990  15.584   8.313  0.00  0.00    -0.286 OA
BRANCH  12  13
HETATM   13  P   UNK N   1      20.833  14.031   9.117  0.00  0.00     0.391 P 
HETATM   14  O   UNK N   1      22.040  13.819  10.068  0.00  0.00    -0.632 OA
BRANCH  13  15
HETATM   15  O   UNK N   1      19.377  13.924  10.060  0.00  0.00    -0.307 OA
HETATM   16  H   UNK N   1      18.413  13.980   9.977  0.00  0.00     0.222 HD
ENDBRANCH  13  15
BRANCH  13  17
HETATM   17  O   UNK N   1      20.890  12.734   7.966  0.00  0.00    -0.307 OA
HETATM   18  H   UNK N   1      20.109  12.519   7.433  0.00  0.00     0.222 HD
ENDBRANCH  13  17
ENDBRANCH  12  13
ENDBRANCH   8  12
BRANCH   9  19
HETATM   19  O   UNK N   1      19.069  15.923   6.033  0.00  0.00    -0.388 OA
HETATM   20  H   UNK N   1      18.548  15.141   6.275  0.00  0.00     0.210 HD
ENDBRANCH   9  19
BRANCH  10  21
HETATM   21  N   UNK N   1      20.778  17.243   3.765  0.00  0.00    -0.297 N 
HETATM   22  C   UNK N   1      19.616  17.176   3.063  0.00  0.00     0.188 A 
HETATM   23  N   UNK N   1      19.494  18.214   2.191  0.00  0.00    -0.346 N 
HETATM   24  C   UNK N   1      20.608  18.938   2.380  0.00  0.00     0.122 A 
ATOM     25  HN  UNK N   1      18.730  18.398   1.541  1.00  0.00     0.167 HD
HETATM   26  C   UNK N   1      20.997  20.128   1.791  0.00  0.00     0.131 A 
HETATM   27  C   UNK N   1      21.386  18.355   3.318  0.00  0.00     0.142 A 
HETATM   28  N   UNK N   1      22.179  20.683   2.190  0.00  0.00    -0.337 N 
HETATM   29  C   UNK N   1      22.957  20.075   3.146  0.00  0.00     0.183 A 
ATOM     30  HN  UNK N   1      22.487  21.562   1.774  1.00  0.00     0.168 HD
HETATM   31  N   UNK N   1      22.559  18.897   3.721  0.00  0.00    -0.336 N 
ATOM     32  HN  UNK N   1      23.130  18.441   4.433  1.00  0.00     0.168 HD
BRANCH  26  33
HETATM   33  N   UNK N   1      20.192  20.762   0.823  0.00  0.00    -0.383 N 
HETATM   34  H   UNK N   1      19.889  20.263   0.030  0.00  0.00     0.157 HD
HETATM   35  H   UNK N   1      19.932  21.705   0.940  0.00  0.00     0.157 HD
ENDBRANCH  26  33
ENDBRANCH  10  21
ENDBRANCH   6   7
ENDBRANCH   5   6
ENDBRANCH   2   5
BRANCH   2  36
HETATM   36  O   UNK N   1      27.545  16.094   6.281  0.00  0.00    -0.195 OA
BRANCH  36  37
HETATM   37  P   UNK N   1      28.220  17.416   5.364  0.00  0.00     0.401 P 
HETATM   38  O   UNK N   1      27.718  18.716   6.048  0.00  0.00    -0.631 OA
BRANCH  37  39
HETATM   39  O   UNK N   1      27.580  17.478   3.752  0.00  0.00    -0.307 OA
HETATM   40  H   UNK N   1      27.202  18.304   3.412  0.00  0.00     0.222 HD
ENDBRANCH  37  39
BRANCH  37  41
HETATM   41  O   UNK N   1      29.967  17.506   5.371  0.00  0.00    -0.296 OA
BRANCH  41  42
HETATM   42  C   UNK N   1      30.483  16.284   4.903  0.00  0.00     0.192 C 
BRANCH  42  43
HETATM   43  C   UNK N   1      31.928  16.385   4.390  0.00  0.00     0.008 C 
HETATM   44  C   UNK N   1      32.077  15.414   3.228  0.00  0.00     0.020 C 
HETATM   45  C   UNK N   1      32.213  17.788   3.851  0.00  0.00     0.020 C 
BRANCH  43  46
HETATM   46  C   UNK N   1      32.903  16.017   5.538  0.00  0.00     0.202 C 
BRANCH  46  47
HETATM   47  C   UNK N   1      33.291  17.197   6.389  0.00  0.00     0.141 C 
BRANCH  47  48
HETATM   48  N   UNK N   1      32.506  17.628   7.318  0.00  0.00    -0.372 N 
ATOM     49  HN  UNK N   1      31.931  18.449   7.133  1.00  0.00     0.161 HD
BRANCH  48  50
HETATM   50  C   UNK N   1      32.412  16.988   8.613  0.00  0.00     0.129 C 
BRANCH  50  51
HETATM   51  C   UNK N   1      33.671  16.186   8.910  0.00  0.00     0.103 C 
BRANCH  51  52
HETATM   52  C   UNK N   1      34.648  17.013   9.680  0.00  0.00     0.112 C 
BRANCH  52  53
HETATM   53  N   UNK N   1      35.058  16.619  10.834  0.00  0.00    -0.374 N 
ATOM     54  HN  UNK N   1      35.631  17.245  11.403  1.00  0.00     0.161 HD
BRANCH  53  55
HETATM   55  C   UNK N   1      34.725  15.312  11.340  0.00  0.00     0.134 C 
BRANCH  55  56
HETATM   56  C   UNK N   1      35.863  14.791  12.189  0.00  0.00     0.124 C 
BRANCH  56  57
HETATM   57  S   UNK N   1      36.958  13.781  11.154  0.00  0.00    -0.014 SA
BRANCH  57  58
HETATM   58  O   UNK N   1      37.629  15.167  10.394  0.00  0.00    -0.330 OA
HETATM   59  H   UNK N   1      38.541  15.152  10.062  0.00  0.00     0.227 HD
ENDBRANCH  57  58
ENDBRANCH  56  57
ENDBRANCH  55  56
ENDBRANCH  53  55
ENDBRANCH  52  53
BRANCH  52  60
HETATM   60  O   UNK N   1      35.092  18.173   9.150  0.00  0.00    -0.350 OA
HETATM   61  H   UNK N   1      35.587  18.916   9.437  0.00  0.00     0.219 HD
ENDBRANCH  52  60
ENDBRANCH  51  52
ENDBRANCH  50  51
ENDBRANCH  48  50
ENDBRANCH  47  48
BRANCH  47  62
HETATM   62  O   UNK N   1      34.489  17.783   6.172  0.00  0.00    -0.348 OA
HETATM   63  H   UNK N   1      34.749  18.157   5.353  0.00  0.00     0.219 HD
ENDBRANCH  47  62
ENDBRANCH  46  47
BRANCH  46  64
HETATM   64  O   UNK N   1      34.050  15.396   5.033  0.00  0.00    -0.387 OA
HETATM   65  H   UNK N   1      34.544  14.621   5.347  0.00  0.00     0.210 HD
ENDBRANCH  46  64
ENDBRANCH  43  46
ENDBRANCH  42  43
ENDBRANCH  41  42
ENDBRANCH  37  41
ENDBRANCH  36  37
ENDBRANCH   2  36
TORSDOF 31
ENDMDL
MODEL 4
REMARK VINA RESULT:      -6.7      2.021      2.963
REMARK  31 active torsions:
REMARK  status: ('A' for Active; 'I' for Inactive)
REMARK    1  A    between atoms: C_4  and  C_3 
REMARK    2  A    between atoms: C_12  and  C_3 
REMARK    3  A    between atoms: N_25  and  C_4 
REMARK    4  A    between atoms: C_6  and  C_5 
REMARK    5  A    between atoms: N_23  and  C_5 
REMARK    6  A    between atoms: S_54  and  C_6 
REMARK    7  A    between atoms: C_11  and  C_7 
REMARK    8  A    between atoms: O_46  and  C_7 
REMARK    9  A    between atoms: C_21  and  C_8 
REMARK   10  A    between atoms: O_47  and  C_8 
REMARK   11  A    between atoms: N_23  and  C_12 
REMARK   12  A    between atoms: O_34  and  C_12 
REMARK   13  A    between atoms: C_14  and  O_35 
REMARK   14  A    between atoms: C_15  and  O_49 
REMARK   15  A    between atoms: C_19  and  C_16 
REMARK   16  A    between atoms: C_21  and  C_16 
REMARK   17  A    between atoms: C_16  and  O_36 
REMARK   18  A    between atoms: N_22  and  C_17 
REMARK   19  A    between atoms: N_25  and  C_19 
REMARK   20  A    between atoms: O_37  and  C_19 
REMARK   21  A    between atoms: C_20  and  N_33 
REMARK   22  A    between atoms: P_51  and  O_38 
REMARK   23  A    between atoms: P_51  and  O_39 
REMARK   24  A    between atoms: P_52  and  O_41 
REMARK   25  A    between atoms: P_53  and  O_43 
REMARK   26  A    between atoms: S_54  and  O_45 
REMARK   27  A    between atoms: P_52  and  O_46 
REMARK   28  A    between atoms: P_53  and  O_47 
REMARK   29  A    between atoms: P_51  and  O_49 
REMARK   30  A    between atoms: P_52  and  O_50 
REMARK   31  A    between atoms: P_53  and  O_50 
ROOT
HETATM    1  O   UNK N   1      25.969  18.918   4.846  0.00  0.00    -0.631 OA
HETATM    2  P   UNK N   1      26.806  17.645   5.144  0.00  0.00     0.401 P 
ENDROOT
BRANCH   2   3
HETATM    3  O   UNK N   1      27.372  17.831   6.774  0.00  0.00    -0.307 OA
HETATM    4  H   UNK N   1      27.042  17.891   7.684  0.00  0.00     0.222 HD
ENDBRANCH   2   3
BRANCH   2   5
HETATM    5  O   UNK N   1      25.802  16.221   5.080  0.00  0.00    -0.294 OA
BRANCH   5   6
HETATM    6  C   UNK N   1      24.465  16.607   5.261  0.00  0.00     0.215 C 
BRANCH   6   7
HETATM    7  C   UNK N   1      23.576  15.379   5.469  0.00  0.00     0.180 C 
HETATM    8  C   UNK N   1      22.216  15.523   4.757  0.00  0.00     0.197 C 
HETATM    9  C   UNK N   1      21.370  14.725   5.718  0.00  0.00     0.199 C 
HETATM   10  C   UNK N   1      21.942  15.261   7.021  0.00  0.00     0.262 C 
HETATM   11  O   UNK N   1      23.336  15.189   6.854  0.00  0.00    -0.353 OA
BRANCH   8  12
HETATM   12  O   UNK N   1      22.150  14.964   3.458  0.00  0.00    -0.286 OA
BRANCH  12  13
HETATM   13  P   UNK N   1      21.001  15.831   2.452  0.00  0.00     0.391 P 
HETATM   14  O   UNK N   1      21.119  17.352   2.729  0.00  0.00    -0.632 OA
BRANCH  13  15
HETATM   15  O   UNK N   1      21.282  15.566   0.757  0.00  0.00    -0.307 OA
HETATM   16  H   UNK N   1      21.956  15.689   0.071  0.00  0.00     0.222 HD
ENDBRANCH  13  15
BRANCH  13  17
HETATM   17  O   UNK N   1      19.373  15.389   2.858  0.00  0.00    -0.307 OA
HETATM   18  H   UNK N   1      18.737  15.168   2.160  0.00  0.00     0.222 HD
ENDBRANCH  13  17
ENDBRANCH  12  13
ENDBRANCH   8  12
BRANCH   9  19
HETATM   19  O   UNK N   1      20.007  14.979   5.558  0.00  0.00    -0.388 OA
HETATM   20  H   UNK N   1      19.184  14.851   6.056  0.00  0.00     0.210 HD
ENDBRANCH   9  19
BRANCH  10  21
HETATM   21  N   UNK N   1      21.551  14.559   8.249  0.00  0.00    -0.297 N 
HETATM   22  C   UNK N   1      20.417  14.844   8.943  0.00  0.00     0.188 A 
HETATM   23  N   UNK N   1      20.267  14.026  10.020  0.00  0.00    -0.346 N 
HETATM   24  C   UNK N   1      21.333  13.213   9.970  0.00  0.00     0.122 A 
ATOM     25  HN  UNK N   1      19.514  14.031  10.709  1.00  0.00     0.167 HD
HETATM   26  C   UNK N   1      21.675  12.155  10.794  0.00  0.00     0.131 A 
HETATM   27  C   UNK N   1      22.111  13.534   8.914  0.00  0.00     0.142 A 
HETATM   28  N   UNK N   1      22.811  11.457  10.501  0.00  0.00    -0.337 N 
HETATM   29  C   UNK N   1      23.591  11.800   9.421  0.00  0.00     0.183 A 
ATOM     30  HN  UNK N   1      23.084  10.671  11.090  1.00  0.00     0.168 HD
HETATM   31  N   UNK N   1      23.240  12.849   8.614  0.00  0.00    -0.336 N 
ATOM     32  HN  UNK N   1      23.812  13.108   7.810  1.00  0.00     0.168 HD
BRANCH  26  33
HETATM   33  N   UNK N   1      20.868  11.792  11.890  0.00  0.00    -0.383 N 
HETATM   34  H   UNK N   1      21.059  12.156  12.785  0.00  0.00     0.157 HD
HETATM   35  H   UNK N   1      20.111  11.174  11.762  0.00  0.00     0.157 HD
ENDBRANCH  26  33
ENDBRANCH  10  21
ENDBRANCH   6   7
ENDBRANCH   5   6
ENDBRANCH   2   5
BRANCH   2  36
HETATM   36  O   UNK N   1      28.193  17.596   4.086  0.00  0.00    -0.195 OA
BRANCH  36  37
HETATM   37  P   UNK N   1      29.452  16.702   4.899  0.00  0.00     0.401 P 
HETATM   38  O   UNK N   1      30.438  16.241   3.792  0.00  0.00    -0.631 OA
BRANCH  37  39
HETATM   39  O   UNK N   1      28.850  15.237   5.608  0.00  0.00    -0.307 OA
HETATM   40  H   UNK N   1      29.220  14.381   5.339  0.00  0.00     0.222 HD
ENDBRANCH  37  39
BRANCH  37  41
HETATM   41  O   UNK N   1      30.401  17.630   6.039  0.00  0.00    -0.296 OA
BRANCH  41  42
HETATM   42  C   UNK N   1      31.729  17.169   6.001  0.00  0.00     0.192 C 
BRANCH  42  43
HETATM   43  C   UNK N   1      32.336  16.932   7.393  0.00  0.00     0.008 C 
HETATM   44  C   UNK N   1      31.704  17.930   8.351  0.00  0.00     0.020 C 
HETATM   45  C   UNK N   1      31.990  15.531   7.901  0.00  0.00     0.020 C 
BRANCH  43  46
HETATM   46  C   UNK N   1      33.871  17.139   7.321  0.00  0.00     0.202 C 
BRANCH  46  47
HETATM   47  C   UNK N   1      34.435  17.831   8.533  0.00  0.00     0.141 C 
BRANCH  47  48
HETATM   48  N   UNK N   1      34.402  17.264   9.692  0.00  0.00    -0.372 N 
ATOM     49  HN  UNK N   1      33.506  17.173  10.170  1.00  0.00     0.161 HD
BRANCH  48  50
HETATM   50  C   UNK N   1      35.591  16.750  10.338  0.00  0.00     0.129 C 
BRANCH  50  51
HETATM   51  C   UNK N   1      35.223  15.779  11.450  0.00  0.00     0.103 C 
BRANCH  51  52
HETATM   52  C   UNK N   1      34.241  14.767  10.955  0.00  0.00     0.112 C 
BRANCH  52  53
HETATM   53  N   UNK N   1      34.657  13.688  10.389  0.00  0.00    -0.374 N 
ATOM     54  HN  UNK N   1      34.219  13.377   9.521  1.00  0.00     0.161 HD
BRANCH  53  55
HETATM   55  C   UNK N   1      35.728  12.910  10.958  0.00  0.00     0.134 C 
BRANCH  55  56
HETATM   56  C   UNK N   1      35.215  12.134  12.150  0.00  0.00     0.124 C 
BRANCH  56  57
HETATM   57  S   UNK N   1      36.146  12.633  13.625  0.00  0.00    -0.014 SA
BRANCH  57  58
HETATM   58  O   UNK N   1      34.778  13.417  14.306  0.00  0.00    -0.330 OA
HETATM   59  H   UNK N   1      34.699  13.520  15.268  0.00  0.00     0.227 HD
ENDBRANCH  57  58
ENDBRANCH  56  57
ENDBRANCH  55  56
ENDBRANCH  53  55
ENDBRANCH  52  53
BRANCH  52  60
HETATM   60  O   UNK N   1      32.920  14.999  11.109  0.00  0.00    -0.350 OA
HETATM   61  H   UNK N   1      32.274  15.569  10.741  0.00  0.00     0.219 HD
ENDBRANCH  52  60
ENDBRANCH  51  52
ENDBRANCH  50  51
ENDBRANCH  48  50
ENDBRANCH  47  48
BRANCH  47  62
HETATM   62  O   UNK N   1      34.994  19.051   8.379  0.00  0.00    -0.348 OA
HETATM   63  H   UNK N   1      35.896  19.191   8.165  0.00  0.00     0.219 HD
ENDBRANCH  47  62
ENDBRANCH  46  47
BRANCH  46  64
HETATM   64  O   UNK N   1      34.220  17.845   6.165  0.00  0.00    -0.387 OA
HETATM   65  H   UNK N   1      33.736  18.520   5.662  0.00  0.00     0.210 HD
ENDBRANCH  46  64
ENDBRANCH  43  46
ENDBRANCH  42  43
ENDBRANCH  41  42
ENDBRANCH  37  41
ENDBRANCH  36  37
ENDBRANCH   2  36
TORSDOF 31
ENDMDL
MODEL 5
REMARK VINA RESULT:      -6.7      5.658      8.063
REMARK  31 active torsions:
REMARK  status: ('A' for Active; 'I' for Inactive)
REMARK    1  A    between atoms: C_4  and  C_3 
REMARK    2  A    between atoms: C_12  and  C_3 
REMARK    3  A    between atoms: N_25  and  C_4 
REMARK    4  A    between atoms: C_6  and  C_5 
REMARK    5  A    between atoms: N_23  and  C_5 
REMARK    6  A    between atoms: S_54  and  C_6 
REMARK    7  A    between atoms: C_11  and  C_7 
REMARK    8  A    between atoms: O_46  and  C_7 
REMARK    9  A    between atoms: C_21  and  C_8 
REMARK   10  A    between atoms: O_47  and  C_8 
REMARK   11  A    between atoms: N_23  and  C_12 
REMARK   12  A    between atoms: O_34  and  C_12 
REMARK   13  A    between atoms: C_14  and  O_35 
REMARK   14  A    between atoms: C_15  and  O_49 
REMARK   15  A    between atoms: C_19  and  C_16 
REMARK   16  A    between atoms: C_21  and  C_16 
REMARK   17  A    between atoms: C_16  and  O_36 
REMARK   18  A    between atoms: N_22  and  C_17 
REMARK   19  A    between atoms: N_25  and  C_19 
REMARK   20  A    between atoms: O_37  and  C_19 
REMARK   21  A    between atoms: C_20  and  N_33 
REMARK   22  A    between atoms: P_51  and  O_38 
REMARK   23  A    between atoms: P_51  and  O_39 
REMARK   24  A    between atoms: P_52  and  O_41 
REMARK   25  A    between atoms: P_53  and  O_43 
REMARK   26  A    between atoms: S_54  and  O_45 
REMARK   27  A    between atoms: P_52  and  O_46 
REMARK   28  A    between atoms: P_53  and  O_47 
REMARK   29  A    between atoms: P_51  and  O_49 
REMARK   30  A    between atoms: P_52  and  O_50 
REMARK   31  A    between atoms: P_53  and  O_50 
ROOT
HETATM    1  O   UNK N   1      20.129  12.289   3.302  0.00  0.00    -0.631 OA
HETATM    2  P   UNK N   1      19.763  13.795   3.400  0.00  0.00     0.401 P 
ENDROOT
BRANCH   2   3
HETATM    3  O   UNK N   1      18.537  14.054   2.199  0.00  0.00    -0.307 OA
HETATM    4  H   UNK N   1      18.436  14.225   1.249  0.00  0.00     0.222 HD
ENDBRANCH   2   3
BRANCH   2   5
HETATM    5  O   UNK N   1      19.075  14.159   4.960  0.00  0.00    -0.294 OA
BRANCH   5   6
HETATM    6  C   UNK N   1      19.008  15.553   5.107  0.00  0.00     0.215 C 
BRANCH   6   7
HETATM    7  C   UNK N   1      20.021  16.033   6.148  0.00  0.00     0.180 C 
HETATM    8  C   UNK N   1      21.187  16.809   5.505  0.00  0.00     0.197 C 
HETATM    9  C   UNK N   1      22.277  16.428   6.475  0.00  0.00     0.199 C 
HETATM   10  C   UNK N   1      21.944  14.951   6.620  0.00  0.00     0.262 C 
HETATM   11  O   UNK N   1      20.557  14.920   6.845  0.00  0.00    -0.353 OA
BRANCH   8  12
HETATM   12  O   UNK N   1      21.030  18.216   5.465  0.00  0.00    -0.286 OA
BRANCH  12  13
HETATM   13  P   UNK N   1      21.444  18.856   3.884  0.00  0.00     0.391 P 
HETATM   14  O   UNK N   1      22.988  18.916   3.741  0.00  0.00    -0.632 OA
BRANCH  13  15
HETATM   15  O   UNK N   1      20.820  17.874   2.593  0.00  0.00    -0.307 OA
HETATM   16  H   UNK N   1      20.961  17.673   1.655  0.00  0.00     0.222 HD
ENDBRANCH  13  15
BRANCH  13  17
HETATM   17  O   UNK N   1      20.878  20.487   3.714  0.00  0.00    -0.307 OA
HETATM   18  H   UNK N   1      21.395  21.225   4.073  0.00  0.00     0.222 HD
ENDBRANCH  13  17
ENDBRANCH  12  13
ENDBRANCH   8  12
BRANCH   9  19
HETATM   19  O   UNK N   1      23.552  16.667   5.958  0.00  0.00    -0.388 OA
HETATM   20  H   UNK N   1      23.992  17.320   5.391  0.00  0.00     0.210 HD
ENDBRANCH   9  19
BRANCH  10  21
HETATM   21  N   UNK N   1      22.639  14.222   7.688  0.00  0.00    -0.297 N 
HETATM   22  C   UNK N   1      23.986  14.046   7.718  0.00  0.00     0.188 A 
HETATM   23  N   UNK N   1      24.381  13.371   8.831  0.00  0.00    -0.346 N 
HETATM   24  C   UNK N   1      23.242  13.142   9.502  0.00  0.00     0.122 A 
ATOM     25  HN  UNK N   1      25.329  13.099   9.095  1.00  0.00     0.167 HD
HETATM   26  C   UNK N   1      23.048  12.529  10.727  0.00  0.00     0.131 A 
HETATM   27  C   UNK N   1      22.192  13.644   8.817  0.00  0.00     0.142 A 
HETATM   28  N   UNK N   1      21.773  12.453  11.210  0.00  0.00    -0.337 N 
HETATM   29  C   UNK N   1      20.717  12.970  10.497  0.00  0.00     0.183 A 
ATOM     30  HN  UNK N   1      21.603  12.009  12.112  1.00  0.00     0.168 HD
HETATM   31  N   UNK N   1      20.924  13.575   9.285  0.00  0.00    -0.336 N 
ATOM     32  HN  UNK N   1      20.145  13.962   8.752  1.00  0.00     0.168 HD
BRANCH  26  33
HETATM   33  N   UNK N   1      24.131  12.015  11.467  0.00  0.00    -0.383 N 
HETATM   34  H   UNK N   1      24.383  12.429  12.325  0.00  0.00     0.157 HD
HETATM   35  H   UNK N   1      24.637  11.240  11.128  0.00  0.00     0.157 HD
ENDBRANCH  26  33
ENDBRANCH  10  21
ENDBRANCH   6   7
ENDBRANCH   5   6
ENDBRANCH   2   5
BRANCH   2  36
HETATM   36  O   UNK N   1      21.153  14.764   2.982  0.00  0.00    -0.195 OA
BRANCH  36  37
HETATM   37  P   UNK N   1      21.454  14.554   1.276  0.00  0.00     0.401 P 
HETATM   38  O   UNK N   1      20.636  15.658   0.554  0.00  0.00    -0.631 OA
BRANCH  37  39
HETATM   39  O   UNK N   1      20.810  13.055   0.685  0.00  0.00    -0.307 OA
HETATM   40  H   UNK N   1      20.570  12.966  -0.251  0.00  0.00     0.222 HD
ENDBRANCH  37  39
BRANCH  37  41
HETATM   41  O   UNK N   1      23.117  14.782   0.784  0.00  0.00    -0.296 OA
BRANCH  41  42
HETATM   42  C   UNK N   1      23.708  13.520   0.593  0.00  0.00     0.192 C 
BRANCH  42  43
HETATM   43  C   UNK N   1      24.672  13.117   1.721  0.00  0.00     0.008 C 
HETATM   44  C   UNK N   1      23.835  12.630   2.894  0.00  0.00     0.020 C 
HETATM   45  C   UNK N   1      25.560  11.952   1.280  0.00  0.00     0.020 C 
BRANCH  43  46
HETATM   46  C   UNK N   1      25.522  14.347   2.128  0.00  0.00     0.202 C 
BRANCH  46  47
HETATM   47  C   UNK N   1      25.002  15.050   3.354  0.00  0.00     0.141 C 
BRANCH  47  48
HETATM   48  N   UNK N   1      25.488  14.788   4.520  0.00  0.00    -0.372 N 
ATOM     49  HN  UNK N   1      24.852  14.506   5.265  1.00  0.00     0.161 HD
BRANCH  48  50
HETATM   50  C   UNK N   1      26.904  14.881   4.810  0.00  0.00     0.129 C 
BRANCH  50  51
HETATM   51  C   UNK N   1      27.418  16.287   4.536  0.00  0.00     0.103 C 
BRANCH  51  52
HETATM   52  C   UNK N   1      27.294  17.136   5.759  0.00  0.00     0.112 C 
BRANCH  52  53
HETATM   53  N   UNK N   1      28.047  18.169   5.907  0.00  0.00    -0.374 N 
ATOM     54  HN  UNK N   1      28.927  18.226   5.391  1.00  0.00     0.161 HD
BRANCH  53  55
HETATM   55  C   UNK N   1      27.673  19.248   6.785  0.00  0.00     0.134 C 
BRANCH  55  56
HETATM   56  C   UNK N   1      27.651  20.548   6.013  0.00  0.00     0.124 C 
BRANCH  56  57
HETATM   57  S   UNK N   1      26.466  20.403   4.647  0.00  0.00    -0.014 SA
BRANCH  57  58
HETATM   58  O   UNK N   1      27.694  19.937   3.541  0.00  0.00    -0.330 OA
HETATM   59  H   UNK N   1      27.811  20.417   2.706  0.00  0.00     0.227 HD
ENDBRANCH  57  58
ENDBRANCH  56  57
ENDBRANCH  55  56
ENDBRANCH  53  55
ENDBRANCH  52  53
BRANCH  52  60
HETATM   60  O   UNK N   1      26.386  16.807   6.702  0.00  0.00    -0.350 OA
HETATM   61  H   UNK N   1      25.759  16.124   6.846  0.00  0.00     0.219 HD
ENDBRANCH  52  60
ENDBRANCH  51  52
ENDBRANCH  50  51
ENDBRANCH  48  50
ENDBRANCH  47  48
BRANCH  47  62
HETATM   62  O   UNK N   1      24.030  15.975   3.204  0.00  0.00    -0.348 OA
HETATM   63  H   UNK N   1      23.439  16.002   2.477  0.00  0.00     0.219 HD
ENDBRANCH  47  62
ENDBRANCH  46  47
BRANCH  46  64
HETATM   64  O   UNK N   1      25.621  15.253   1.066  0.00  0.00    -0.387 OA
HETATM   65  H   UNK N   1      24.941  15.779   0.615  0.00  0.00     0.210 HD
ENDBRANCH  46  64
ENDBRANCH  43  46
ENDBRANCH  42  43
ENDBRANCH  41  42
ENDBRANCH  37  41
ENDBRANCH  36  37
ENDBRANCH   2  36
TORSDOF 31
ENDMDL
MODEL 6
REMARK VINA RESULT:      -6.7      5.412     12.910
REMARK  31 active torsions:
REMARK  status: ('A' for Active; 'I' for Inactive)
REMARK    1  A    between atoms: C_4  and  C_3 
REMARK    2  A    between atoms: C_12  and  C_3 
REMARK    3  A    between atoms: N_25  and  C_4 
REMARK    4  A    between atoms: C_6  and  C_5 
REMARK    5  A    between atoms: N_23  and  C_5 
REMARK    6  A    between atoms: S_54  and  C_6 
REMARK    7  A    between atoms: C_11  and  C_7 
REMARK    8  A    between atoms: O_46  and  C_7 
REMARK    9  A    between atoms: C_21  and  C_8 
REMARK   10  A    between atoms: O_47  and  C_8 
REMARK   11  A    between atoms: N_23  and  C_12 
REMARK   12  A    between atoms: O_34  and  C_12 
REMARK   13  A    between atoms: C_14  and  O_35 
REMARK   14  A    between atoms: C_15  and  O_49 
REMARK   15  A    between atoms: C_19  and  C_16 
REMARK   16  A    between atoms: C_21  and  C_16 
REMARK   17  A    between atoms: C_16  and  O_36 
REMARK   18  A    between atoms: N_22  and  C_17 
REMARK   19  A    between atoms: N_25  and  C_19 
REMARK   20  A    between atoms: O_37  and  C_19 
REMARK   21  A    between atoms: C_20  and  N_33 
REMARK   22  A    between atoms: P_51  and  O_38 
REMARK   23  A    between atoms: P_51  and  O_39 
REMARK   24  A    between atoms: P_52  and  O_41 
REMARK   25  A    between atoms: P_53  and  O_43 
REMARK   26  A    between atoms: S_54  and  O_45 
REMARK   27  A    between atoms: P_52  and  O_46 
REMARK   28  A    between atoms: P_53  and  O_47 
REMARK   29  A    between atoms: P_51  and  O_49 
REMARK   30  A    between atoms: P_52  and  O_50 
REMARK   31  A    between atoms: P_53  and  O_50 
ROOT
HETATM    1  O   UNK N   1      32.686  15.473   8.766  0.00  0.00    -0.631 OA
HETATM    2  P   UNK N   1      33.956  15.421   9.658  0.00  0.00     0.401 P 
ENDROOT
BRANCH   2   3
HETATM    3  O   UNK N   1      33.394  14.994  11.243  0.00  0.00    -0.307 OA
HETATM    4  H   UNK N   1      33.061  14.236  11.746  0.00  0.00     0.222 HD
ENDBRANCH   2   3
BRANCH   2   5
HETATM    5  O   UNK N   1      35.037  14.166   9.112  0.00  0.00    -0.294 OA
BRANCH   5   6
HETATM    6  C   UNK N   1      36.348  14.667   9.125  0.00  0.00     0.215 C 
BRANCH   6   7
HETATM    7  C   UNK N   1      37.078  14.229  10.396  0.00  0.00     0.180 C 
HETATM    8  C   UNK N   1      37.709  12.830  10.248  0.00  0.00     0.197 C 
HETATM    9  C   UNK N   1      37.586  12.372  11.680  0.00  0.00     0.199 C 
HETATM   10  C   UNK N   1      36.176  12.872  11.957  0.00  0.00     0.262 C 
HETATM   11  O   UNK N   1      36.168  14.196  11.484  0.00  0.00    -0.353 OA
BRANCH   8  12
HETATM   12  O   UNK N   1      39.064  12.817   9.839  0.00  0.00    -0.286 OA
BRANCH  12  13
HETATM   13  P   UNK N   1      39.217  12.300   8.168  0.00  0.00     0.391 P 
HETATM   14  O   UNK N   1      39.621  13.513   7.289  0.00  0.00    -0.632 OA
BRANCH  13  15
HETATM   15  O   UNK N   1      40.423  11.065   7.972  0.00  0.00    -0.307 OA
HETATM   16  H   UNK N   1      40.684  10.345   7.376  0.00  0.00     0.222 HD
ENDBRANCH  13  15
BRANCH  13  17
HETATM   17  O   UNK N   1      37.693  11.743   7.555  0.00  0.00    -0.307 OA
HETATM   18  H   UNK N   1      37.258  10.972   7.951  0.00  0.00     0.222 HD
ENDBRANCH  13  17
ENDBRANCH  12  13
ENDBRANCH   8  12
BRANCH   9  19
HETATM   19  O   UNK N   1      37.725  10.989  11.807  0.00  0.00    -0.388 OA
HETATM   20  H   UNK N   1      38.408  10.352  12.070  0.00  0.00     0.210 HD
ENDBRANCH   9  19
BRANCH  10  21
HETATM   21  N   UNK N   1      35.729  12.839  13.355  0.00  0.00    -0.297 N 
HETATM   22  C   UNK N   1      34.825  11.941  13.829  0.00  0.00     0.188 A 
HETATM   23  N   UNK N   1      34.611  12.099  15.163  0.00  0.00    -0.346 N 
HETATM   24  C   UNK N   1      35.419  13.113  15.510  0.00  0.00     0.122 A 
ATOM     25  HN  UNK N   1      33.980  11.567  15.763  1.00  0.00     0.167 HD
HETATM   26  C   UNK N   1      35.643  13.675  16.755  0.00  0.00     0.131 A 
HETATM   27  C   UNK N   1      36.086  13.566  14.428  0.00  0.00     0.142 A 
HETATM   28  N   UNK N   1      36.554  14.688  16.845  0.00  0.00    -0.337 N 
HETATM   29  C   UNK N   1      37.223  15.136  15.730  0.00  0.00     0.183 A 
ATOM     30  HN  UNK N   1      36.741  15.117  17.750  1.00  0.00     0.168 HD
HETATM   31  N   UNK N   1      36.990  14.570  14.504  0.00  0.00    -0.336 N 
ATOM     32  HN  UNK N   1      37.484  14.897  13.673  1.00  0.00     0.168 HD
BRANCH  26  33
HETATM   33  N   UNK N   1      34.972  13.205  17.902  0.00  0.00    -0.383 N 
HETATM   34  H   UNK N   1      35.368  12.485  18.444  0.00  0.00     0.157 HD
HETATM   35  H   UNK N   1      34.106  13.598  18.161  0.00  0.00     0.157 HD
ENDBRANCH  26  33
ENDBRANCH  10  21
ENDBRANCH   6   7
ENDBRANCH   5   6
ENDBRANCH   2   5
BRANCH   2  36
HETATM   36  O   UNK N   1      34.679  17.007   9.741  0.00  0.00    -0.195 OA
BRANCH  36  37
HETATM   37  P   UNK N   1      34.214  17.881   8.304  0.00  0.00     0.401 P 
HETATM   38  O   UNK N   1      35.024  19.204   8.322  0.00  0.00    -0.631 OA
BRANCH  37  39
HETATM   39  O   UNK N   1      32.549  18.369   8.355  0.00  0.00    -0.307 OA
HETATM   40  H   UNK N   1      31.918  17.882   8.908  0.00  0.00     0.222 HD
ENDBRANCH  37  39
BRANCH  37  41
HETATM   41  O   UNK N   1      34.610  17.088   6.796  0.00  0.00    -0.296 OA
BRANCH  41  42
HETATM   42  C   UNK N   1      33.690  17.501   5.814  0.00  0.00     0.192 C 
BRANCH  42  43
HETATM   43  C   UNK N   1      33.151  16.348   4.953  0.00  0.00     0.008 C 
HETATM   44  C   UNK N   1      32.796  16.915   3.588  0.00  0.00     0.020 C 
HETATM   45  C   UNK N   1      34.231  15.285   4.739  0.00  0.00     0.020 C 
BRANCH  43  46
HETATM   46  C   UNK N   1      31.899  15.744   5.638  0.00  0.00     0.202 C 
BRANCH  46  47
HETATM   47  C   UNK N   1      30.934  15.117   4.667  0.00  0.00     0.141 C 
BRANCH  47  48
HETATM   48  N   UNK N   1      29.733  15.572   4.543  0.00  0.00    -0.372 N 
ATOM     49  HN  UNK N   1      29.552  16.299   3.851  1.00  0.00     0.161 HD
BRANCH  48  50
HETATM   50  C   UNK N   1      28.633  15.090   5.352  0.00  0.00     0.129 C 
BRANCH  50  51
HETATM   51  C   UNK N   1      27.345  15.819   4.998  0.00  0.00     0.103 C 
BRANCH  51  52
HETATM   52  C   UNK N   1      26.840  16.589   6.174  0.00  0.00     0.112 C 
BRANCH  52  53
HETATM   53  N   UNK N   1      26.791  17.875   6.132  0.00  0.00    -0.374 N 
ATOM     54  HN  UNK N   1      25.885  18.340   6.072  1.00  0.00     0.161 HD
BRANCH  53  55
HETATM   55  C   UNK N   1      27.992  18.670   6.167  0.00  0.00     0.134 C 
BRANCH  55  56
HETATM   56  C   UNK N   1      28.031  19.474   7.447  0.00  0.00     0.124 C 
BRANCH  56  57
HETATM   57  S   UNK N   1      28.879  18.509   8.727  0.00  0.00    -0.014 SA
BRANCH  57  58
HETATM   58  O   UNK N   1      27.396  17.924   9.365  0.00  0.00    -0.330 OA
HETATM   59  H   UNK N   1      26.988  18.355  10.133  0.00  0.00     0.227 HD
ENDBRANCH  57  58
ENDBRANCH  56  57
ENDBRANCH  55  56
ENDBRANCH  53  55
ENDBRANCH  52  53
BRANCH  52  60
HETATM   60  O   UNK N   1      26.438  15.921   7.276  0.00  0.00    -0.350 OA
HETATM   61  H   UNK N   1      26.798  15.288   7.867  0.00  0.00     0.219 HD
ENDBRANCH  52  60
ENDBRANCH  51  52
ENDBRANCH  50  51
ENDBRANCH  48  50
ENDBRANCH  47  48
BRANCH  47  62
HETATM   62  O   UNK N   1      31.359  14.080   3.913  0.00  0.00    -0.348 OA
HETATM   63  H   UNK N   1      31.480  13.210   4.239  0.00  0.00     0.219 HD
ENDBRANCH  47  62
ENDBRANCH  46  47
BRANCH  46  64
HETATM   64  O   UNK N   1      31.240  16.711   6.405  0.00  0.00    -0.387 OA
HETATM   65  H   UNK N   1      30.445  17.237   6.218  0.00  0.00     0.210 HD
ENDBRANCH  46  64
ENDBRANCH  43  46
ENDBRANCH  42  43
ENDBRANCH  41  42
ENDBRANCH  37  41
ENDBRANCH  36  37
ENDBRANCH   2  36
TORSDOF 31
ENDMDL
MODEL 7
REMARK VINA RESULT:      -6.7      5.067      7.259
REMARK  31 active torsions:
REMARK  status: ('A' for Active; 'I' for Inactive)
REMARK    1  A    between atoms: C_4  and  C_3 
REMARK    2  A    between atoms: C_12  and  C_3 
REMARK    3  A    between atoms: N_25  and  C_4 
REMARK    4  A    between atoms: C_6  and  C_5 
REMARK    5  A    between atoms: N_23  and  C_5 
REMARK    6  A    between atoms: S_54  and  C_6 
REMARK    7  A    between atoms: C_11  and  C_7 
REMARK    8  A    between atoms: O_46  and  C_7 
REMARK    9  A    between atoms: C_21  and  C_8 
REMARK   10  A    between atoms: O_47  and  C_8 
REMARK   11  A    between atoms: N_23  and  C_12 
REMARK   12  A    between atoms: O_34  and  C_12 
REMARK   13  A    between atoms: C_14  and  O_35 
REMARK   14  A    between atoms: C_15  and  O_49 
REMARK   15  A    between atoms: C_19  and  C_16 
REMARK   16  A    between atoms: C_21  and  C_16 
REMARK   17  A    between atoms: C_16  and  O_36 
REMARK   18  A    between atoms: N_22  and  C_17 
REMARK   19  A    between atoms: N_25  and  C_19 
REMARK   20  A    between atoms: O_37  and  C_19 
REMARK   21  A    between atoms: C_20  and  N_33 
REMARK   22  A    between atoms: P_51  and  O_38 
REMARK   23  A    between atoms: P_51  and  O_39 
REMARK   24  A    between atoms: P_52  and  O_41 
REMARK   25  A    between atoms: P_53  and  O_43 
REMARK   26  A    between atoms: S_54  and  O_45 
REMARK   27  A    between atoms: P_52  and  O_46 
REMARK   28  A    between atoms: P_53  and  O_47 
REMARK   29  A    between atoms: P_51  and  O_49 
REMARK   30  A    between atoms: P_52  and  O_50 
REMARK   31  A    between atoms: P_53  and  O_50 
ROOT
HETATM    1  O   UNK N   1      20.187  12.988   0.949  0.00  0.00    -0.631 OA
HETATM    2  P   UNK N   1      20.699  14.256   1.684  0.00  0.00     0.401 P 
ENDROOT
BRANCH   2   3
HETATM    3  O   UNK N   1      19.366  15.368   1.676  0.00  0.00    -0.307 OA
HETATM    4  H   UNK N   1      19.167  16.305   1.528  0.00  0.00     0.222 HD
ENDBRANCH   2   3
BRANCH   2   5
HETATM    5  O   UNK N   1      21.086  13.889   3.344  0.00  0.00    -0.294 OA
BRANCH   5   6
HETATM    6  C   UNK N   1      20.042  14.350   4.161  0.00  0.00     0.215 C 
BRANCH   6   7
HETATM    7  C   UNK N   1      20.600  15.002   5.428  0.00  0.00     0.180 C 
HETATM    8  C   UNK N   1      21.508  16.206   5.106  0.00  0.00     0.197 C 
HETATM    9  C   UNK N   1      22.459  16.092   6.272  0.00  0.00     0.199 C 
HETATM   10  C   UNK N   1      22.657  14.584   6.254  0.00  0.00     0.262 C 
HETATM   11  O   UNK N   1      21.358  14.055   6.162  0.00  0.00    -0.353 OA
BRANCH   8  12
HETATM   12  O   UNK N   1      20.866  17.468   5.113  0.00  0.00    -0.286 OA
BRANCH  12  13
HETATM   13  P   UNK N   1      21.440  18.479   3.797  0.00  0.00     0.391 P 
HETATM   14  O   UNK N   1      20.983  19.942   4.035  0.00  0.00    -0.632 OA
BRANCH  13  15
HETATM   15  O   UNK N   1      23.173  18.468   3.669  0.00  0.00    -0.307 OA
HETATM   16  H   UNK N   1      23.886  18.382   3.017  0.00  0.00     0.222 HD
ENDBRANCH  13  15
BRANCH  13  17
HETATM   17  O   UNK N   1      20.731  17.988   2.291  0.00  0.00    -0.307 OA
HETATM   18  H   UNK N   1      20.976  18.435   1.466  0.00  0.00     0.222 HD
ENDBRANCH  13  17
ENDBRANCH  12  13
ENDBRANCH   8  12
BRANCH   9  19
HETATM   19  O   UNK N   1      23.635  16.814   6.066  0.00  0.00    -0.388 OA
HETATM   20  H   UNK N   1      24.480  16.703   5.603  0.00  0.00     0.210 HD
ENDBRANCH   9  19
BRANCH  10  21
HETATM   21  N   UNK N   1      23.353  13.998   7.406  0.00  0.00    -0.297 N 
HETATM   22  C   UNK N   1      24.707  13.966   7.523  0.00  0.00     0.188 A 
HETATM   23  N   UNK N   1      25.097  13.405   8.700  0.00  0.00    -0.346 N 
HETATM   24  C   UNK N   1      23.946  13.102   9.320  0.00  0.00     0.122 A 
ATOM     25  HN  UNK N   1      26.049  13.251   9.034  1.00  0.00     0.167 HD
HETATM   26  C   UNK N   1      23.738  12.549  10.572  0.00  0.00     0.131 A 
HETATM   27  C   UNK N   1      22.897  13.449   8.545  0.00  0.00     0.142 A 
HETATM   28  N   UNK N   1      22.450  12.372  10.987  0.00  0.00    -0.337 N 
HETATM   29  C   UNK N   1      21.394  12.731  10.182  0.00  0.00     0.183 A 
ATOM     30  HN  UNK N   1      22.269  11.969  11.906  1.00  0.00     0.168 HD
HETATM   31  N   UNK N   1      21.615  13.278   8.946  0.00  0.00    -0.336 N 
ATOM     32  HN  UNK N   1      20.837  13.548   8.344  1.00  0.00     0.168 HD
BRANCH  26  33
HETATM   33  N   UNK N   1      24.819  12.197  11.405  0.00  0.00    -0.383 N 
HETATM   34  H   UNK N   1      24.809  12.447  12.357  0.00  0.00     0.157 HD
HETATM   35  H   UNK N   1      25.585  11.701  11.034  0.00  0.00     0.157 HD
ENDBRANCH  26  33
ENDBRANCH  10  21
ENDBRANCH   6   7
ENDBRANCH   5   6
ENDBRANCH   2   5
BRANCH   2  36
HETATM   36  O   UNK N   1      22.011  14.968   0.779  0.00  0.00    -0.195 OA
BRANCH  36  37
HETATM   37  P   UNK N   1      23.396  13.918   0.935  0.00  0.00     0.401 P 
HETATM   38  O   UNK N   1      23.609  13.275  -0.462  0.00  0.00    -0.631 OA
BRANCH  37  39
HETATM   39  O   UNK N   1      23.081  12.586   2.002  0.00  0.00    -0.307 OA
HETATM   40  H   UNK N   1      22.278  12.581   2.547  0.00  0.00     0.222 HD
ENDBRANCH  37  39
BRANCH  37  41
HETATM   41  O   UNK N   1      24.896  14.725   1.333  0.00  0.00    -0.296 OA
BRANCH  41  42
HETATM   42  C   UNK N   1      25.797  13.775   1.846  0.00  0.00     0.192 C 
BRANCH  42  43
HETATM   43  C   UNK N   1      26.712  14.329   2.950  0.00  0.00     0.008 C 
HETATM   44  C   UNK N   1      26.355  13.619   4.247  0.00  0.00     0.020 C 
HETATM   45  C   UNK N   1      28.177  14.013   2.645  0.00  0.00     0.020 C 
BRANCH  43  46
HETATM   46  C   UNK N   1      26.483  15.856   3.081  0.00  0.00     0.202 C 
BRANCH  46  47
HETATM   47  C   UNK N   1      27.576  16.559   3.840  0.00  0.00     0.141 C 
BRANCH  47  48
HETATM   48  N   UNK N   1      27.612  16.522   5.130  0.00  0.00    -0.372 N 
ATOM     49  HN  UNK N   1      26.742  16.641   5.649  1.00  0.00     0.161 HD
BRANCH  48  50
HETATM   50  C   UNK N   1      28.841  16.319   5.867  0.00  0.00     0.129 C 
BRANCH  50  51
HETATM   51  C   UNK N   1      29.177  17.546   6.702  0.00  0.00     0.103 C 
BRANCH  51  52
HETATM   52  C   UNK N   1      27.985  17.985   7.489  0.00  0.00     0.112 C 
BRANCH  52  53
HETATM   53  N   UNK N   1      27.641  19.225   7.500  0.00  0.00    -0.374 N 
ATOM     54  HN  UNK N   1      27.356  19.658   8.379  1.00  0.00     0.161 HD
BRANCH  53  55
HETATM   55  C   UNK N   1      27.650  20.014   6.295  0.00  0.00     0.134 C 
BRANCH  55  56
HETATM   56  C   UNK N   1      26.307  19.906   5.607  0.00  0.00     0.124 C 
BRANCH  56  57
HETATM   57  S   UNK N   1      26.528  20.195   3.830  0.00  0.00    -0.014 SA
BRANCH  57  58
HETATM   58  O   UNK N   1      28.228  19.972   3.936  0.00  0.00    -0.330 OA
HETATM   59  H   UNK N   1      28.610  19.082   3.882  0.00  0.00     0.227 HD
ENDBRANCH  57  58
ENDBRANCH  56  57
ENDBRANCH  55  56
ENDBRANCH  53  55
ENDBRANCH  52  53
BRANCH  52  60
HETATM   60  O   UNK N   1      27.279  17.068   8.184  0.00  0.00    -0.350 OA
HETATM   61  H   UNK N   1      27.423  16.212   8.538  0.00  0.00     0.219 HD
ENDBRANCH  52  60
ENDBRANCH  51  52
ENDBRANCH  50  51
ENDBRANCH  48  50
ENDBRANCH  47  48
BRANCH  47  62
HETATM   62  O   UNK N   1      28.531  17.211   3.143  0.00  0.00    -0.348 OA
HETATM   63  H   UNK N   1      29.241  16.786   2.703  0.00  0.00     0.219 HD
ENDBRANCH  47  62
ENDBRANCH  46  47
BRANCH  46  64
HETATM   64  O   UNK N   1      25.244  16.121   3.676  0.00  0.00    -0.387 OA
HETATM   65  H   UNK N   1      24.836  15.760   4.480  0.00  0.00     0.210 HD
ENDBRANCH  46  64
ENDBRANCH  43  46
ENDBRANCH  42  43
ENDBRANCH  41  42
ENDBRANCH  37  41
ENDBRANCH  36  37
ENDBRANCH   2  36
TORSDOF 31
ENDMDL
MODEL 8
REMARK VINA RESULT:      -6.7      3.169      5.216
REMARK  31 active torsions:
REMARK  status: ('A' for Active; 'I' for Inactive)
REMARK    1  A    between atoms: C_4  and  C_3 
REMARK    2  A    between atoms: C_12  and  C_3 
REMARK    3  A    between atoms: N_25  and  C_4 
REMARK    4  A    between atoms: C_6  and  C_5 
REMARK    5  A    between atoms: N_23  and  C_5 
REMARK    6  A    between atoms: S_54  and  C_6 
REMARK    7  A    between atoms: C_11  and  C_7 
REMARK    8  A    between atoms: O_46  and  C_7 
REMARK    9  A    between atoms: C_21  and  C_8 
REMARK   10  A    between atoms: O_47  and  C_8 
REMARK   11  A    between atoms: N_23  and  C_12 
REMARK   12  A    between atoms: O_34  and  C_12 
REMARK   13  A    between atoms: C_14  and  O_35 
REMARK   14  A    between atoms: C_15  and  O_49 
REMARK   15  A    between atoms: C_19  and  C_16 
REMARK   16  A    between atoms: C_21  and  C_16 
REMARK   17  A    between atoms: C_16  and  O_36 
REMARK   18  A    between atoms: N_22  and  C_17 
REMARK   19  A    between atoms: N_25  and  C_19 
REMARK   20  A    between atoms: O_37  and  C_19 
REMARK   21  A    between atoms: C_20  and  N_33 
REMARK   22  A    between atoms: P_51  and  O_38 
REMARK   23  A    between atoms: P_51  and  O_39 
REMARK   24  A    between atoms: P_52  and  O_41 
REMARK   25  A    between atoms: P_53  and  O_43 
REMARK   26  A    between atoms: S_54  and  O_45 
REMARK   27  A    between atoms: P_52  and  O_46 
REMARK   28  A    between atoms: P_53  and  O_47 
REMARK   29  A    between atoms: P_51  and  O_49 
REMARK   30  A    between atoms: P_52  and  O_50 
REMARK   31  A    between atoms: P_53  and  O_50 
ROOT
HETATM    1  O   UNK N   1      26.202  14.749   4.532  0.00  0.00    -0.631 OA
HETATM    2  P   UNK N   1      26.608  15.527   5.813  0.00  0.00     0.401 P 
ENDROOT
BRANCH   2   3
HETATM    3  O   UNK N   1      25.801  17.059   5.702  0.00  0.00    -0.307 OA
HETATM    4  H   UNK N   1      25.547  17.819   6.249  0.00  0.00     0.222 HD
ENDBRANCH   2   3
BRANCH   2   5
HETATM    5  O   UNK N   1      26.024  14.710   7.238  0.00  0.00    -0.294 OA
BRANCH   5   6
HETATM    6  C   UNK N   1      24.947  13.887   6.873  0.00  0.00     0.215 C 
BRANCH   6   7
HETATM    7  C   UNK N   1      23.617  14.595   7.136  0.00  0.00     0.180 C 
HETATM    8  C   UNK N   1      22.562  13.640   7.731  0.00  0.00     0.197 C 
HETATM    9  C   UNK N   1      21.326  14.267   7.136  0.00  0.00     0.199 C 
HETATM   10  C   UNK N   1      21.854  14.516   5.730  0.00  0.00     0.262 C 
HETATM   11  O   UNK N   1      23.107  15.124   5.923  0.00  0.00    -0.353 OA
BRANCH   8  12
HETATM   12  O   UNK N   1      22.481  13.632   9.144  0.00  0.00    -0.286 OA
BRANCH  12  13
HETATM   13  P   UNK N   1      23.185  12.169   9.812  0.00  0.00     0.391 P 
HETATM   14  O   UNK N   1      24.579  12.496  10.410  0.00  0.00    -0.632 OA
BRANCH  13  15
HETATM   15  O   UNK N   1      22.204  11.484  11.071  0.00  0.00    -0.307 OA
HETATM   16  H   UNK N   1      21.277  11.328  11.313  0.00  0.00     0.222 HD
ENDBRANCH  13  15
BRANCH  13  17
HETATM   17  O   UNK N   1      23.456  10.993   8.566  0.00  0.00    -0.307 OA
HETATM   18  H   UNK N   1      24.135  11.143   7.890  0.00  0.00     0.222 HD
ENDBRANCH  13  17
ENDBRANCH  12  13
ENDBRANCH   8  12
BRANCH   9  19
HETATM   19  O   UNK N   1      20.226  13.410   7.177  0.00  0.00    -0.388 OA
HETATM   20  H   UNK N   1      20.000  12.508   6.897  0.00  0.00     0.210 HD
ENDBRANCH   9  19
BRANCH  10  21
HETATM   21  N   UNK N   1      21.024  15.352   4.855  0.00  0.00    -0.297 N 
HETATM   22  C   UNK N   1      19.856  14.927   4.304  0.00  0.00     0.188 A 
HETATM   23  N   UNK N   1      19.263  15.903   3.566  0.00  0.00    -0.346 N 
HETATM   24  C   UNK N   1      20.088  16.955   3.683  0.00  0.00     0.122 A 
ATOM     25  HN  UNK N   1      18.389  15.848   3.041  1.00  0.00     0.167 HD
HETATM   26  C   UNK N   1      19.962  18.236   3.173  0.00  0.00     0.131 A 
HETATM   27  C   UNK N   1      21.150  16.627   4.449  0.00  0.00     0.142 A 
HETATM   28  N   UNK N   1      20.939  19.142   3.472  0.00  0.00    -0.337 N 
HETATM   29  C   UNK N   1      22.014  18.788   4.254  0.00  0.00     0.183 A 
ATOM     30  HN  UNK N   1      20.869  20.093   3.112  1.00  0.00     0.168 HD
HETATM   31  N   UNK N   1      22.124  17.517   4.752  0.00  0.00    -0.336 N 
ATOM     32  HN  UNK N   1      22.918  17.248   5.333  1.00  0.00     0.168 HD
BRANCH  26  33
HETATM   33  N   UNK N   1      18.853  18.604   2.387  0.00  0.00    -0.383 N 
HETATM   34  H   UNK N   1      17.947  18.585   2.774  0.00  0.00     0.157 HD
HETATM   35  H   UNK N   1      18.982  18.882   1.451  0.00  0.00     0.157 HD
ENDBRANCH  26  33
ENDBRANCH  10  21
ENDBRANCH   6   7
ENDBRANCH   5   6
ENDBRANCH   2   5
BRANCH   2  36
HETATM   36  O   UNK N   1      28.330  15.813   5.803  0.00  0.00    -0.195 OA
BRANCH  36  37
HETATM   37  P   UNK N   1      28.612  17.389   6.498  0.00  0.00     0.401 P 
HETATM   38  O   UNK N   1      27.598  17.534   7.663  0.00  0.00    -0.631 OA
BRANCH  37  39
HETATM   39  O   UNK N   1      28.214  18.664   5.391  0.00  0.00    -0.307 OA
HETATM   40  H   UNK N   1      27.647  19.397   5.678  0.00  0.00     0.222 HD
ENDBRANCH  37  39
BRANCH  37  41
HETATM   41  O   UNK N   1      30.197  17.615   7.202  0.00  0.00    -0.296 OA
BRANCH  41  42
HETATM   42  C   UNK N   1      31.168  17.224   6.263  0.00  0.00     0.192 C 
BRANCH  42  43
HETATM   43  C   UNK N   1      32.547  16.949   6.883  0.00  0.00     0.008 C 
HETATM   44  C   UNK N   1      32.618  15.467   7.218  0.00  0.00     0.020 C 
HETATM   45  C   UNK N   1      33.660  17.241   5.875  0.00  0.00     0.020 C 
BRANCH  43  46
HETATM   46  C   UNK N   1      32.710  17.808   8.163  0.00  0.00     0.202 C 
BRANCH  46  47
HETATM   47  C   UNK N   1      34.144  17.972   8.591  0.00  0.00     0.141 C 
BRANCH  47  48
HETATM   48  N   UNK N   1      34.611  17.314   9.598  0.00  0.00    -0.372 N 
ATOM     49  HN  UNK N   1      34.471  17.687  10.537  1.00  0.00     0.161 HD
BRANCH  48  50
HETATM   50  C   UNK N   1      35.327  16.065   9.444  0.00  0.00     0.129 C 
BRANCH  50  51
HETATM   51  C   UNK N   1      35.600  15.431  10.800  0.00  0.00     0.103 C 
BRANCH  51  52
HETATM   52  C   UNK N   1      34.390  14.703  11.290  0.00  0.00     0.112 C 
BRANCH  52  53
HETATM   53  N   UNK N   1      34.520  13.691  12.074  0.00  0.00    -0.374 N 
ATOM     54  HN  UNK N   1      33.731  13.058  12.209  1.00  0.00     0.161 HD
BRANCH  53  55
HETATM   55  C   UNK N   1      35.758  13.434  12.765  0.00  0.00     0.134 C 
BRANCH  55  56
HETATM   56  C   UNK N   1      35.470  13.058  14.201  0.00  0.00     0.124 C 
BRANCH  56  57
HETATM   57  S   UNK N   1      36.998  12.458  14.973  0.00  0.00    -0.014 SA
BRANCH  57  58
HETATM   58  O   UNK N   1      37.550  14.056  15.279  0.00  0.00    -0.330 OA
HETATM   59  H   UNK N   1      37.183  14.569  16.016  0.00  0.00     0.227 HD
ENDBRANCH  57  58
ENDBRANCH  56  57
ENDBRANCH  55  56
ENDBRANCH  53  55
ENDBRANCH  52  53
BRANCH  52  60
HETATM   60  O   UNK N   1      33.167  15.120  10.900  0.00  0.00    -0.350 OA
HETATM   61  H   UNK N   1      32.498  14.834  10.308  0.00  0.00     0.219 HD
ENDBRANCH  52  60
ENDBRANCH  51  52
ENDBRANCH  50  51
ENDBRANCH  48  50
ENDBRANCH  47  48
BRANCH  47  62
HETATM   62  O   UNK N   1      34.937  18.807   7.886  0.00  0.00    -0.348 OA
HETATM   63  H   UNK N   1      35.167  19.672   8.165  0.00  0.00     0.219 HD
ENDBRANCH  47  62
ENDBRANCH  46  47
BRANCH  46  64
HETATM   64  O   UNK N   1      31.958  17.274   9.215  0.00  0.00    -0.387 OA
HETATM   65  H   UNK N   1      31.000  17.139   9.307  0.00  0.00     0.210 HD
ENDBRANCH  46  64
ENDBRANCH  43  46
ENDBRANCH  42  43
ENDBRANCH  41  42
ENDBRANCH  37  41
ENDBRANCH  36  37
ENDBRANCH   2  36
TORSDOF 31
ENDMDL
MODEL 9
REMARK VINA RESULT:      -6.6      4.966     12.888
REMARK  31 active torsions:
REMARK  status: ('A' for Active; 'I' for Inactive)
REMARK    1  A    between atoms: C_4  and  C_3 
REMARK    2  A    between atoms: C_12  and  C_3 
REMARK    3  A    between atoms: N_25  and  C_4 
REMARK    4  A    between atoms: C_6  and  C_5 
REMARK    5  A    between atoms: N_23  and  C_5 
REMARK    6  A    between atoms: S_54  and  C_6 
REMARK    7  A    between atoms: C_11  and  C_7 
REMARK    8  A    between atoms: O_46  and  C_7 
REMARK    9  A    between atoms: C_21  and  C_8 
REMARK   10  A    between atoms: O_47  and  C_8 
REMARK   11  A    between atoms: N_23  and  C_12 
REMARK   12  A    between atoms: O_34  and  C_12 
REMARK   13  A    between atoms: C_14  and  O_35 
REMARK   14  A    between atoms: C_15  and  O_49 
REMARK   15  A    between atoms: C_19  and  C_16 
REMARK   16  A    between atoms: C_21  and  C_16 
REMARK   17  A    between atoms: C_16  and  O_36 
REMARK   18  A    between atoms: N_22  and  C_17 
REMARK   19  A    between atoms: N_25  and  C_19 
REMARK   20  A    between atoms: O_37  and  C_19 
REMARK   21  A    between atoms: C_20  and  N_33 
REMARK   22  A    between atoms: P_51  and  O_38 
REMARK   23  A    between atoms: P_51  and  O_39 
REMARK   24  A    between atoms: P_52  and  O_41 
REMARK   25  A    between atoms: P_53  and  O_43 
REMARK   26  A    between atoms: S_54  and  O_45 
REMARK   27  A    between atoms: P_52  and  O_46 
REMARK   28  A    between atoms: P_53  and  O_47 
REMARK   29  A    between atoms: P_51  and  O_49 
REMARK   30  A    between atoms: P_52  and  O_50 
REMARK   31  A    between atoms: P_53  and  O_50 
ROOT
HETATM    1  O   UNK N   1      35.225  19.159   8.601  0.00  0.00    -0.631 OA
HETATM    2  P   UNK N   1      34.229  18.051   8.165  0.00  0.00     0.401 P 
ENDROOT
BRANCH   2   3
HETATM    3  O   UNK N   1      34.590  17.730   6.498  0.00  0.00    -0.307 OA
HETATM    4  H   UNK N   1      35.106  18.083   5.757  0.00  0.00     0.222 HD
ENDBRANCH   2   3
BRANCH   2   5
HETATM    5  O   UNK N   1      34.506  16.586   9.070  0.00  0.00    -0.294 OA
BRANCH   5   6
HETATM    6  C   UNK N   1      35.371  16.875  10.136  0.00  0.00     0.215 C 
BRANCH   6   7
HETATM    7  C   UNK N   1      36.133  15.619  10.564  0.00  0.00     0.180 C 
HETATM    8  C   UNK N   1      35.665  14.369   9.794  0.00  0.00     0.197 C 
HETATM    9  C   UNK N   1      35.897  13.338  10.871  0.00  0.00     0.199 C 
HETATM   10  C   UNK N   1      35.344  14.119  12.054  0.00  0.00     0.262 C 
HETATM   11  O   UNK N   1      35.939  15.389  11.950  0.00  0.00    -0.353 OA
BRANCH   8  12
HETATM   12  O   UNK N   1      36.417  14.053   8.637  0.00  0.00    -0.286 OA
BRANCH  12  13
HETATM   13  P   UNK N   1      35.404  14.050   7.203  0.00  0.00     0.391 P 
HETATM   14  O   UNK N   1      35.473  12.656   6.526  0.00  0.00    -0.632 OA
BRANCH  13  15
HETATM   15  O   UNK N   1      33.740  14.389   7.574  0.00  0.00    -0.307 OA
HETATM   16  H   UNK N   1      33.169  14.686   8.299  0.00  0.00     0.222 HD
ENDBRANCH  13  15
BRANCH  13  17
HETATM   17  O   UNK N   1      35.993  15.187   6.032  0.00  0.00    -0.307 OA
HETATM   18  H   UNK N   1      36.225  16.090   6.300  0.00  0.00     0.222 HD
ENDBRANCH  13  17
ENDBRANCH  12  13
ENDBRANCH   8  12
BRANCH   9  19
HETATM   19  O   UNK N   1      35.214  12.147  10.618  0.00  0.00    -0.388 OA
HETATM   20  H   UNK N   1      35.335  11.342  10.090  0.00  0.00     0.210 HD
ENDBRANCH   9  19
BRANCH  10  21
HETATM   21  N   UNK N   1      35.595  13.559  13.387  0.00  0.00    -0.297 N 
HETATM   22  C   UNK N   1      36.439  14.126  14.289  0.00  0.00     0.188 A 
HETATM   23  N   UNK N   1      36.464  13.433  15.459  0.00  0.00    -0.346 N 
HETATM   24  C   UNK N   1      35.602  12.424  15.266  0.00  0.00     0.122 A 
ATOM     25  HN  UNK N   1      37.015  13.635  16.294  1.00  0.00     0.167 HD
HETATM   26  C   UNK N   1      35.199  11.428  16.139  0.00  0.00     0.131 A 
HETATM   27  C   UNK N   1      35.083  12.490  14.021  0.00  0.00     0.142 A 
HETATM   28  N   UNK N   1      34.270  10.529  15.700  0.00  0.00    -0.337 N 
HETATM   29  C   UNK N   1      33.754  10.613  14.428  0.00  0.00     0.183 A 
ATOM     30  HN  UNK N   1      33.954   9.788  16.324  1.00  0.00     0.168 HD
HETATM   31  N   UNK N   1      34.162  11.604  13.575  0.00  0.00    -0.336 N 
ATOM     32  HN  UNK N   1      33.782  11.673  12.631  1.00  0.00     0.168 HD
BRANCH  26  33
HETATM   33  N   UNK N   1      35.714  11.352  17.449  0.00  0.00    -0.383 N 
HETATM   34  H   UNK N   1      35.547  10.552  17.998  0.00  0.00     0.157 HD
HETATM   35  H   UNK N   1      36.242  12.099  17.815  0.00  0.00     0.157 HD
ENDBRANCH  26  33
ENDBRANCH  10  21
ENDBRANCH   6   7
ENDBRANCH   5   6
ENDBRANCH   2   5
BRANCH   2  36
HETATM   36  O   UNK N   1      32.596  18.660   8.264  0.00  0.00    -0.195 OA
BRANCH  36  37
HETATM   37  P   UNK N   1      31.511  17.304   8.092  0.00  0.00     0.401 P 
HETATM   38  O   UNK N   1      30.077  17.876   8.254  0.00  0.00    -0.631 OA
BRANCH  37  39
HETATM   39  O   UNK N   1      31.691  16.164   9.388  0.00  0.00    -0.307 OA
HETATM   40  H   UNK N   1      32.514  16.139   9.900  0.00  0.00     0.222 HD
ENDBRANCH  37  39
BRANCH  37  41
HETATM   41  O   UNK N   1      31.548  16.520   6.529  0.00  0.00    -0.296 OA
BRANCH  41  42
HETATM   42  C   UNK N   1      30.393  15.728   6.395  0.00  0.00     0.192 C 
BRANCH  42  43
HETATM   43  C   UNK N   1      29.788  15.759   4.982  0.00  0.00     0.008 C 
HETATM   44  C   UNK N   1      30.536  14.742   4.134  0.00  0.00     0.020 C 
HETATM   45  C   UNK N   1      28.319  15.333   5.015  0.00  0.00     0.020 C 
BRANCH  43  46
HETATM   46  C   UNK N   1      29.944  17.185   4.393  0.00  0.00     0.202 C 
BRANCH  46  47
HETATM   47  C   UNK N   1      28.785  18.091   4.712  0.00  0.00     0.141 C 
BRANCH  47  48
HETATM   48  N   UNK N   1      27.931  18.414   3.801  0.00  0.00    -0.372 N 
ATOM     49  HN  UNK N   1      28.023  18.003   2.872  1.00  0.00     0.161 HD
BRANCH  48  50
HETATM   50  C   UNK N   1      26.845  19.339   4.048  0.00  0.00     0.129 C 
BRANCH  50  51
HETATM   51  C   UNK N   1      25.591  18.594   4.481  0.00  0.00     0.103 C 
BRANCH  51  52
HETATM   52  C   UNK N   1      24.379  19.200   3.853  0.00  0.00     0.112 C 
BRANCH  52  53
HETATM   53  N   UNK N   1      23.317  18.492   3.685  0.00  0.00    -0.374 N 
ATOM     54  HN  UNK N   1      23.400  17.543   3.319  1.00  0.00     0.161 HD
BRANCH  53  55
HETATM   55  C   UNK N   1      22.013  19.015   4.005  0.00  0.00     0.134 C 
BRANCH  55  56
HETATM   56  C   UNK N   1      21.151  19.025   2.762  0.00  0.00     0.124 C 
BRANCH  56  57
HETATM   57  S   UNK N   1      19.623  18.105   3.094  0.00  0.00    -0.014 SA
BRANCH  57  58
HETATM   58  O   UNK N   1      19.382  17.771   1.427  0.00  0.00    -0.330 OA
HETATM   59  H   UNK N   1      18.975  16.936   1.148  0.00  0.00     0.227 HD
ENDBRANCH  57  58
ENDBRANCH  56  57
ENDBRANCH  55  56
ENDBRANCH  53  55
ENDBRANCH  52  53
BRANCH  52  60
HETATM   60  O   UNK N   1      24.413  20.493   3.466  0.00  0.00    -0.350 OA
HETATM   61  H   UNK N   1      24.591  20.972   2.680  0.00  0.00     0.219 HD
ENDBRANCH  52  60
ENDBRANCH  51  52
ENDBRANCH  50  51
ENDBRANCH  48  50
ENDBRANCH  47  48
BRANCH  47  62
HETATM   62  O   UNK N   1      28.646  18.542   5.977  0.00  0.00    -0.348 OA
HETATM   63  H   UNK N   1      29.025  19.339   6.294  0.00  0.00     0.219 HD
ENDBRANCH  47  62
ENDBRANCH  46  47
BRANCH  46  64
HETATM   64  O   UNK N   1      30.137  17.129   3.009  0.00  0.00    -0.387 OA
HETATM   65  H   UNK N   1      29.505  17.206   2.275  0.00  0.00     0.210 HD
ENDBRANCH  46  64
ENDBRANCH  43  46
ENDBRANCH  42  43
ENDBRANCH  41  42
ENDBRANCH  37  41
ENDBRANCH  36  37
ENDBRANCH   2  36
TORSDOF 31
ENDMDL
