MODEL 1
REMARK VINA RESULT:      -3.9      0.000      0.000
REMARK  2 active torsions:
REMARK  status: ('A' for Active; 'I' for Inactive)
REMARK    1  A    between atoms: C_2  and  O_1 
REMARK    2  A    between atoms: C_7  and  O_8 
ROOT
HETATM    1  C   UNK N   1      22.712  12.331  11.730  0.00  0.00     0.157 C 
HETATM    2  C   UNK N   1      21.443  12.165  10.902  0.00  0.00     0.120 C 
HETATM    3  S   UNK N   1      21.287  13.550   9.736  0.00  0.00    -0.095 SA
HETATM    4  S   UNK N   1      22.822  12.761   8.494  0.00  0.00    -0.095 SA
HETATM    5  C   UNK N   1      24.086  13.086   9.757  0.00  0.00     0.120 C 
HETATM    6  C   UNK N   1      23.962  12.067  10.885  0.00  0.00     0.157 C 
ENDROOT
BRANCH   1   7
HETATM    7  O   UNK N   1      22.673  11.439  12.804  0.00  0.00    -0.392 OA
HETATM    8  H   UNK N   1      21.959  10.796  12.935  0.00  0.00     0.210 HD
ENDBRANCH   1   7
BRANCH   6   9
HETATM    9  O   UNK N   1      25.100  12.138  11.687  0.00  0.00    -0.392 OA
HETATM   10  H   UNK N   1      25.298  12.894  12.263  0.00  0.00     0.210 HD
ENDBRANCH   6   9
TORSDOF 2
ENDMDL
MODEL 2
REMARK VINA RESULT:      -3.9      0.031      2.431
REMARK  2 active torsions:
REMARK  status: ('A' for Active; 'I' for Inactive)
REMARK    1  A    between atoms: C_2  and  O_1 
REMARK    2  A    between atoms: C_7  and  O_8 
ROOT
HETATM    1  C   UNK N   1      23.941  12.077  10.864  0.00  0.00     0.157 C 
HETATM    2  C   UNK N   1      24.068  13.104   9.744  0.00  0.00     0.120 C 
HETATM    3  S   UNK N   1      22.800  12.793   8.481  0.00  0.00    -0.095 SA
HETATM    4  S   UNK N   1      21.270  13.578   9.732  0.00  0.00    -0.095 SA
HETATM    5  C   UNK N   1      21.423  12.184  10.887  0.00  0.00     0.120 C 
HETATM    6  C   UNK N   1      22.694  12.339  11.715  0.00  0.00     0.157 C 
ENDROOT
BRANCH   1   7
HETATM    7  O   UNK N   1      25.082  12.139  11.667  0.00  0.00    -0.392 OA
HETATM    8  H   UNK N   1      25.172  12.749  12.416  0.00  0.00     0.210 HD
ENDBRANCH   1   7
BRANCH   6   9
HETATM    9  O   UNK N   1      22.653  11.442  12.781  0.00  0.00    -0.392 OA
HETATM   10  H   UNK N   1      22.152  10.611  12.758  0.00  0.00     0.210 HD
ENDBRANCH   6   9
TORSDOF 2
ENDMDL
MODEL 3
REMARK VINA RESULT:      -3.8     23.526     24.149
REMARK  2 active torsions:
REMARK  status: ('A' for Active; 'I' for Inactive)
REMARK    1  A    between atoms: C_2  and  O_1 
REMARK    2  A    between atoms: C_7  and  O_8 
ROOT
HETATM    1  C   UNK N   1      43.757  22.768   3.140  0.00  0.00     0.157 C 
HETATM    2  C   UNK N   1      42.388  22.203   2.779  0.00  0.00     0.120 C 
HETATM    3  S   UNK N   1      42.568  20.949   1.476  0.00  0.00    -0.095 SA
HETATM    4  S   UNK N   1      43.362  19.538   2.854  0.00  0.00    -0.095 SA
HETATM    5  C   UNK N   1      44.881  20.514   3.061  0.00  0.00     0.120 C 
HETATM    6  C   UNK N   1      44.591  21.743   3.915  0.00  0.00     0.157 C 
ENDROOT
BRANCH   1   7
HETATM    7  O   UNK N   1      43.583  23.917   3.915  0.00  0.00    -0.392 OA
HETATM    8  H   UNK N   1      42.712  24.258   4.171  0.00  0.00     0.210 HD
ENDBRANCH   1   7
BRANCH   6   9
HETATM    9  O   UNK N   1      45.800  22.316   4.308  0.00  0.00    -0.392 OA
HETATM   10  H   UNK N   1      46.600  22.301   3.759  0.00  0.00     0.210 HD
ENDBRANCH   6   9
TORSDOF 2
ENDMDL
MODEL 4
REMARK VINA RESULT:      -3.8     23.525     24.199
REMARK  2 active torsions:
REMARK  status: ('A' for Active; 'I' for Inactive)
REMARK    1  A    between atoms: C_2  and  O_1 
REMARK    2  A    between atoms: C_7  and  O_8 
ROOT
HETATM    1  C   UNK N   1      44.590  21.740   3.915  0.00  0.00     0.157 C 
HETATM    2  C   UNK N   1      44.881  20.512   3.060  0.00  0.00     0.120 C 
HETATM    3  S   UNK N   1      43.361  19.537   2.853  0.00  0.00    -0.095 SA
HETATM    4  S   UNK N   1      42.567  20.949   1.475  0.00  0.00    -0.095 SA
HETATM    5  C   UNK N   1      42.388  22.202   2.779  0.00  0.00     0.120 C 
HETATM    6  C   UNK N   1      43.757  22.767   3.141  0.00  0.00     0.157 C 
ENDROOT
BRANCH   1   7
HETATM    7  O   UNK N   1      45.800  22.315   4.309  0.00  0.00    -0.392 OA
HETATM    8  H   UNK N   1      46.128  23.158   3.958  0.00  0.00     0.210 HD
ENDBRANCH   1   7
BRANCH   6   9
HETATM    9  O   UNK N   1      43.584  23.914   3.914  0.00  0.00    -0.392 OA
HETATM   10  H   UNK N   1      43.917  24.787   3.653  0.00  0.00     0.210 HD
ENDBRANCH   6   9
TORSDOF 2
ENDMDL
MODEL 5
REMARK VINA RESULT:      -3.7     11.925     12.436
REMARK  2 active torsions:
REMARK  status: ('A' for Active; 'I' for Inactive)
REMARK    1  A    between atoms: C_2  and  O_1 
REMARK    2  A    between atoms: C_7  and  O_8 
ROOT
HETATM    1  C   UNK N   1      34.485  17.166   9.496  0.00  0.00     0.157 C 
HETATM    2  C   UNK N   1      34.197  15.685   9.274  0.00  0.00     0.120 C 
HETATM    3  S   UNK N   1      32.522  15.481   8.602  0.00  0.00    -0.095 SA
HETATM    4  S   UNK N   1      33.135  16.181   6.690  0.00  0.00    -0.095 SA
HETATM    5  C   UNK N   1      33.401  17.860   7.330  0.00  0.00     0.120 C 
HETATM    6  C   UNK N   1      34.677  17.897   8.164  0.00  0.00     0.157 C 
ENDROOT
BRANCH   1   7
HETATM    7  O   UNK N   1      35.638  17.292  10.274  0.00  0.00    -0.392 OA
HETATM    8  H   UNK N   1      35.803  16.763  11.070  0.00  0.00     0.210 HD
ENDBRANCH   1   7
BRANCH   6   9
HETATM    9  O   UNK N   1      35.026  19.226   8.400  0.00  0.00    -0.392 OA
HETATM   10  H   UNK N   1      35.094  19.891   7.696  0.00  0.00     0.210 HD
ENDBRANCH   6   9
TORSDOF 2
ENDMDL
MODEL 6
REMARK VINA RESULT:      -3.7     11.922     12.514
REMARK  2 active torsions:
REMARK  status: ('A' for Active; 'I' for Inactive)
REMARK    1  A    between atoms: C_2  and  O_1 
REMARK    2  A    between atoms: C_7  and  O_8 
ROOT
HETATM    1  C   UNK N   1      34.676  17.895   8.163  0.00  0.00     0.157 C 
HETATM    2  C   UNK N   1      33.399  17.859   7.330  0.00  0.00     0.120 C 
HETATM    3  S   UNK N   1      33.131  16.179   6.692  0.00  0.00    -0.095 SA
HETATM    4  S   UNK N   1      32.518  15.482   8.605  0.00  0.00    -0.095 SA
HETATM    5  C   UNK N   1      34.194  15.685   9.276  0.00  0.00     0.120 C 
HETATM    6  C   UNK N   1      34.485  17.165   9.497  0.00  0.00     0.157 C 
ENDROOT
BRANCH   1   7
HETATM    7  O   UNK N   1      35.026  19.225   8.399  0.00  0.00    -0.392 OA
HETATM    8  H   UNK N   1      35.572  19.747   7.790  0.00  0.00     0.210 HD
ENDBRANCH   1   7
BRANCH   6   9
HETATM    9  O   UNK N   1      35.636  17.290  10.273  0.00  0.00    -0.392 OA
HETATM   10  H   UNK N   1      36.189  18.088  10.280  0.00  0.00     0.210 HD
ENDBRANCH   6   9
TORSDOF 2
ENDMDL
MODEL 7
REMARK VINA RESULT:      -3.7      8.283      9.076
REMARK  2 active torsions:
REMARK  status: ('A' for Active; 'I' for Inactive)
REMARK    1  A    between atoms: C_2  and  O_1 
REMARK    2  A    between atoms: C_7  and  O_8 
ROOT
HETATM    1  C   UNK N   1      29.712  17.890   9.398  0.00  0.00     0.157 C 
HETATM    2  C   UNK N   1      30.990  17.945   8.569  0.00  0.00     0.120 C 
HETATM    3  S   UNK N   1      31.057  16.515   7.450  0.00  0.00    -0.095 SA
HETATM    4  S   UNK N   1      29.579  17.363   6.177  0.00  0.00    -0.095 SA
HETATM    5  C   UNK N   1      28.294  17.163   7.445  0.00  0.00     0.120 C 
HETATM    6  C   UNK N   1      28.483  18.208   8.540  0.00  0.00     0.157 C 
ENDROOT
BRANCH   1   7
HETATM    7  O   UNK N   1      29.809  18.812  10.442  0.00  0.00    -0.392 OA
HETATM    8  H   UNK N   1      29.439  19.708  10.397  0.00  0.00     0.210 HD
ENDBRANCH   1   7
BRANCH   6   9
HETATM    9  O   UNK N   1      27.342  18.238   9.340  0.00  0.00    -0.392 OA
HETATM   10  H   UNK N   1      26.768  17.468   9.477  0.00  0.00     0.210 HD
ENDBRANCH   6   9
TORSDOF 2
ENDMDL
MODEL 8
REMARK VINA RESULT:      -3.7      8.285      8.882
REMARK  2 active torsions:
REMARK  status: ('A' for Active; 'I' for Inactive)
REMARK    1  A    between atoms: C_2  and  O_1 
REMARK    2  A    between atoms: C_7  and  O_8 
ROOT
HETATM    1  C   UNK N   1      28.483  18.211   8.537  0.00  0.00     0.157 C 
HETATM    2  C   UNK N   1      28.292  17.166   7.443  0.00  0.00     0.120 C 
HETATM    3  S   UNK N   1      29.579  17.364   6.176  0.00  0.00    -0.095 SA
HETATM    4  S   UNK N   1      31.055  16.515   7.450  0.00  0.00    -0.095 SA
HETATM    5  C   UNK N   1      30.989  17.945   8.569  0.00  0.00     0.120 C 
HETATM    6  C   UNK N   1      29.710  17.893   9.397  0.00  0.00     0.157 C 
ENDROOT
BRANCH   1   7
HETATM    7  O   UNK N   1      27.340  18.242   9.338  0.00  0.00    -0.392 OA
HETATM    8  H   UNK N   1      27.247  18.824  10.109  0.00  0.00     0.210 HD
ENDBRANCH   1   7
BRANCH   6   9
HETATM    9  O   UNK N   1      29.808  18.812  10.440  0.00  0.00    -0.392 OA
HETATM   10  H   UNK N   1      30.337  19.624  10.386  0.00  0.00     0.210 HD
ENDBRANCH   6   9
TORSDOF 2
ENDMDL
MODEL 9
REMARK VINA RESULT:      -3.5     12.351     12.859
REMARK  2 active torsions:
REMARK  status: ('A' for Active; 'I' for Inactive)
REMARK    1  A    between atoms: C_2  and  O_1 
REMARK    2  A    between atoms: C_7  and  O_8 
ROOT
HETATM    1  C   UNK N   1      34.494  17.106   7.025  0.00  0.00     0.157 C 
HETATM    2  C   UNK N   1      33.694  15.810   6.965  0.00  0.00     0.120 C 
HETATM    3  S   UNK N   1      34.486  14.552   8.011  0.00  0.00    -0.095 SA
HETATM    4  S   UNK N   1      33.797  15.502   9.784  0.00  0.00    -0.095 SA
HETATM    5  C   UNK N   1      34.888  16.929   9.508  0.00  0.00     0.120 C 
HETATM    6  C   UNK N   1      34.329  17.794   8.384  0.00  0.00     0.157 C 
ENDROOT
BRANCH   1   7
HETATM    7  O   UNK N   1      34.055  17.957   6.009  0.00  0.00    -0.392 OA
HETATM    8  H   UNK N   1      33.684  17.638   5.171  0.00  0.00     0.210 HD
ENDBRANCH   1   7
BRANCH   6   9
HETATM    9  O   UNK N   1      34.998  19.018   8.378  0.00  0.00    -0.392 OA
HETATM   10  H   UNK N   1      35.575  19.305   7.653  0.00  0.00     0.210 HD
ENDBRANCH   6   9
TORSDOF 2
ENDMDL
