REMARK  6 active torsions:
REMARK  status: ('A' for Active; 'I' for Inactive)
REMARK    1  A    between atoms: O_1  and  C_2 
REMARK    2  A    between atoms: C_2  and  C_4 
REMARK    3  A    between atoms: C_4  and  O_6 
REMARK    4  A    between atoms: O_6  and  P_7 
REMARK    5  A    between atoms: P_7  and  O_8 
REMARK    6  A    between atoms: P_7  and  O_9 
ROOT
HETATM    1  O   UNK N   1       2.051  -1.560  -0.078  0.00  0.00    -0.248 OA
ENDROOT
BRANCH   1   2
HETATM    2  C   UNK N   1       0.841  -0.961  -0.277  0.00  0.00     0.144 C 
HETATM    3  C   UNK N   1       0.746   0.271  -0.794  0.00  0.00     0.059 C 
BRANCH   2   4
HETATM    4  C   UNK N   1      -0.391  -1.699   0.067  0.00  0.00     0.200 C 
HETATM    5  O   UNK N   1      -0.317  -2.841   0.495  0.00  0.00    -0.645 OA
BRANCH   4   6
HETATM    6  O   UNK N   1      -1.601  -1.132  -0.106  0.00  0.00    -0.771 OA
HETATM    7  H   UNK N   1      -1.680  -0.206  -0.227  0.00  0.00     0.167 HD
ENDBRANCH   4   6
ENDBRANCH   2   4
ENDBRANCH   1   2
BRANCH   1   8
HETATM    8  P   UNK N   1       3.579  -0.965  -0.637  0.00  0.00     0.396 P 
HETATM    9  O   UNK N   1       3.323   0.160   0.402  0.00  0.00    -0.631 OA
BRANCH   8  10
HETATM   10  O   UNK N   1       5.047  -1.048   0.284  0.00  0.00    -0.307 OA
HETATM   11  H   UNK N   1       5.417  -1.783   0.799  0.00  0.00     0.222 HD
ENDBRANCH   8  10
BRANCH   8  12
HETATM   12  O   UNK N   1       3.750  -2.431   0.279  0.00  0.00    -0.307 OA
HETATM   13  H   UNK N   1       3.089  -2.923   0.790  0.00  0.00     0.222 HD
ENDBRANCH   8  12
ENDBRANCH   1   8
TORSDOF 6
