REMARK  6 active torsions:
REMARK  status: ('A' for Active; 'I' for Inactive)
REMARK    1  A    between atoms: C_16  and  C_14 
REMARK    2  A    between atoms: C_20  and  C_14 
REMARK    3  A    between atoms: C_24  and  C_17 
REMARK    4  A    between atoms: N_26  and  C_19 
REMARK    5  A    between atoms: N_26  and  C_21 
REMARK    6  A    between atoms: O_32  and  C_23 
ROOT
HETATM    1  C   UNK N   1       5.591   2.743  -0.059  0.00  0.00     0.015 A 
HETATM    2  C   UNK N   1       7.979   2.846   0.304  0.00  0.00     0.015 A 
HETATM    3  C   UNK N   1       5.663   1.336  -0.116  0.00  0.00     0.030 A 
HETATM    4  C   UNK N   1       8.047   1.469   0.251  0.00  0.00     0.030 A 
HETATM    5  C   UNK N   1       6.761   3.506   0.137  0.00  0.00    -0.012 A 
HETATM    6  C   UNK N   1       6.906   0.696   0.015  0.00  0.00     0.032 A 
ENDROOT
BRANCH   6   7
HETATM    7  N   UNK N   1       7.025  -0.722  -0.065  0.00  0.00    -0.359 N 
HETATM    8  H   UNK N   1       6.227  -1.287   0.052  0.00  0.00     0.166 HD
BRANCH   7   9
HETATM    9  C   UNK N   1       8.297  -1.329  -0.313  0.00  0.00     0.019 C 
HETATM   10  C   UNK N   1       9.279  -0.641  -1.238  0.00  0.00     0.058 C 
HETATM   11  C   UNK N   1      10.682  -0.707  -0.673  0.00  0.00     0.014 C 
HETATM   12  C   UNK N   1      11.095  -2.170  -0.586  0.00  0.00     0.084 C 
HETATM   13  C   UNK N   1      10.056  -2.989   0.136  0.00  0.00     0.157 C 
HETATM   14  C   UNK N   1       8.649  -2.491   0.282  0.00  0.00     0.014 C 
HETATM   15  O   UNK N   1      10.408  -4.016   0.693  0.00  0.00    -0.293 OA
BRANCH  14  16
HETATM   16  C   UNK N   1       7.678  -3.222   1.175  0.00  0.00     0.083 C 
BRANCH  16  17
HETATM   17  C   UNK N   1       7.188  -4.507   0.571  0.00  0.00    -0.052 A 
HETATM   18  C   UNK N   1       8.082  -5.525   0.211  0.00  0.00     0.007 A 
HETATM   19  C   UNK N   1       7.612  -6.721  -0.335  0.00  0.00     0.002 A 
HETATM   20  C   UNK N   1       6.240  -6.913  -0.511  0.00  0.00     0.018 A 
HETATM   21  C   UNK N   1       5.342  -5.907  -0.145  0.00  0.00     0.006 A 
HETATM   22  C   UNK N   1       5.815  -4.704   0.394  0.00  0.00     0.025 A 
HETATM   23  I   UNK N   1       3.277  -6.214  -0.386  0.00  0.00    -0.045 I 
ENDBRANCH  16  17
ENDBRANCH  14  16
ENDBRANCH   7   9
ENDBRANCH   6   7
BRANCH   5  24
HETATM   24  C   UNK N   1       6.776   4.995   0.133  0.00  0.00     0.040 A 
HETATM   25  C   UNK N   1       5.500   5.798  -0.021  0.00  0.00     0.041 A 
HETATM   26  C   UNK N   1       4.828   5.474  -1.343  0.00  0.00     0.017 C 
HETATM   27  C   UNK N   1       5.698   7.314   0.037  0.00  0.00     0.096 A 
HETATM   28  C   UNK N   1       7.122   7.778   0.112  0.00  0.00     0.130 A 
HETATM   29  N   UNK N   1       8.098   6.950   0.210  0.00  0.00    -0.283 N 
HETATM   30  N   UNK N   1       7.923   5.582   0.241  0.00  0.00    -0.302 N 
ATOM     31  HN  UNK N   1       9.046   7.321   0.269  1.00  0.00     0.188 HD
ATOM     32  HN  UNK N   1       8.751   4.997   0.355  1.00  0.00     0.186 HD
BRANCH  28  33
HETATM   33  O   UNK N   1       7.383   9.098   0.084  0.00  0.00    -0.348 OA
HETATM   34  H   UNK N   1       8.270   9.400   0.065  0.00  0.00     0.219 HD
ENDBRANCH  28  33
ENDBRANCH   5  24
TORSDOF 6
