MODEL 1
REMARK VINA RESULT:      -6.4      0.000      0.000
REMARK  12 active torsions:
REMARK  status: ('A' for Active; 'I' for Inactive)
REMARK    1  A    between atoms: C_2  and  C_11 
REMARK    2  A    between atoms: C_3  and  O_10 
REMARK    3  A    between atoms: C_4  and  O_9 
REMARK    4  A    between atoms: C_5  and  O_8 
REMARK    5  A    between atoms: C_6  and  O_7 
REMARK    6  A    between atoms: C_15  and  O_7 
REMARK    7  A    between atoms: C_11  and  O_12 
REMARK    8  A    between atoms: C_14  and  C_22 
REMARK    9  A    between atoms: C_16  and  O_21 
REMARK   10  A    between atoms: C_17  and  O_20 
REMARK   11  A    between atoms: C_18  and  O_19 
REMARK   12  A    between atoms: C_22  and  O_23 
ROOT
HETATM    1  O   UNK N   1      32.062  17.217   8.557  0.00  0.00    -0.348 OA
ENDROOT
BRANCH   1   2
HETATM    2  C   UNK N   1      30.757  16.978   8.106  0.00  0.00     0.292 C 
HETATM    3  C   UNK N   1      29.773  17.713   9.035  0.00  0.00     0.204 C 
HETATM    4  C   UNK N   1      28.355  17.594   8.489  0.00  0.00     0.183 C 
HETATM    5  C   UNK N   1      28.317  18.012   7.024  0.00  0.00     0.180 C 
HETATM    6  C   UNK N   1      29.388  17.200   6.277  0.00  0.00     0.179 C 
HETATM    7  O   UNK N   1      30.649  17.523   6.808  0.00  0.00    -0.348 OA
BRANCH   3   8
HETATM    8  O   UNK N   1      29.816  17.174  10.321  0.00  0.00    -0.388 OA
HETATM    9  H   UNK N   1      29.713  17.684  11.139  0.00  0.00     0.210 HD
ENDBRANCH   3   8
BRANCH   4  10
HETATM   10  O   UNK N   1      27.488  18.392   9.238  0.00  0.00    -0.390 OA
HETATM   11  H   UNK N   1      27.499  18.399  10.207  0.00  0.00     0.210 HD
ENDBRANCH   4  10
BRANCH   5  12
HETATM   12  O   UNK N   1      27.044  17.764   6.508  0.00  0.00    -0.390 OA
HETATM   13  H   UNK N   1      26.479  16.985   6.628  0.00  0.00     0.210 HD
ENDBRANCH   5  12
BRANCH   6  14
HETATM   14  C   UNK N   1      29.407  17.536   4.791  0.00  0.00     0.198 C 
BRANCH  14  15
HETATM   15  O   UNK N   1      28.892  18.811   4.562  0.00  0.00    -0.398 OA
HETATM   16  H   UNK N   1      29.291  19.667   4.339  0.00  0.00     0.209 HD
ENDBRANCH  14  15
ENDBRANCH   6  14
ENDBRANCH   1   2
BRANCH   1  17
HETATM   17  C   UNK N   1      32.784  16.012   8.533  0.00  0.00     0.187 C 
HETATM   18  C   UNK N   1      34.206  16.273   7.971  0.00  0.00     0.180 C 
HETATM   19  O   UNK N   1      35.019  15.138   8.154  0.00  0.00    -0.349 OA
HETATM   20  C   UNK N   1      35.271  15.051   9.530  0.00  0.00     0.288 C 
HETATM   21  C   UNK N   1      34.018  14.505  10.201  0.00  0.00     0.204 C 
HETATM   22  C   UNK N   1      32.904  15.526   9.990  0.00  0.00     0.183 C 
BRANCH  18  23
HETATM   23  C   UNK N   1      34.184  16.595   6.485  0.00  0.00     0.198 C 
BRANCH  23  24
HETATM   24  O   UNK N   1      34.186  17.973   6.278  0.00  0.00    -0.398 OA
HETATM   25  H   UNK N   1      33.665  18.620   5.776  0.00  0.00     0.209 HD
ENDBRANCH  23  24
ENDBRANCH  18  23
BRANCH  20  26
HETATM   26  O   UNK N   1      36.354  14.198   9.751  0.00  0.00    -0.369 OA
HETATM   27  H   UNK N   1      37.249  14.388   9.428  0.00  0.00     0.212 HD
ENDBRANCH  20  26
BRANCH  21  28
HETATM   28  O   UNK N   1      34.236  14.338  11.569  0.00  0.00    -0.388 OA
HETATM   29  H   UNK N   1      33.982  13.555  12.081  0.00  0.00     0.210 HD
ENDBRANCH  21  28
BRANCH  22  30
HETATM   30  O   UNK N   1      31.693  14.999  10.436  0.00  0.00    -0.390 OA
HETATM   31  H   UNK N   1      31.428  14.072  10.329  0.00  0.00     0.210 HD
ENDBRANCH  22  30
ENDBRANCH   1  17
TORSDOF 12
ENDMDL
MODEL 2
REMARK VINA RESULT:      -6.3      1.953      3.403
REMARK  12 active torsions:
REMARK  status: ('A' for Active; 'I' for Inactive)
REMARK    1  A    between atoms: C_2  and  C_11 
REMARK    2  A    between atoms: C_3  and  O_10 
REMARK    3  A    between atoms: C_4  and  O_9 
REMARK    4  A    between atoms: C_5  and  O_8 
REMARK    5  A    between atoms: C_6  and  O_7 
REMARK    6  A    between atoms: C_15  and  O_7 
REMARK    7  A    between atoms: C_11  and  O_12 
REMARK    8  A    between atoms: C_14  and  C_22 
REMARK    9  A    between atoms: C_16  and  O_21 
REMARK   10  A    between atoms: C_17  and  O_20 
REMARK   11  A    between atoms: C_18  and  O_19 
REMARK   12  A    between atoms: C_22  and  O_23 
ROOT
HETATM    1  O   UNK N   1      31.199  15.951   6.125  0.00  0.00    -0.348 OA
ENDROOT
BRANCH   1   2
HETATM    2  C   UNK N   1      30.490  17.140   6.332  0.00  0.00     0.292 C 
HETATM    3  C   UNK N   1      29.417  17.272   5.237  0.00  0.00     0.204 C 
HETATM    4  C   UNK N   1      28.533  18.482   5.516  0.00  0.00     0.183 C 
HETATM    5  C   UNK N   1      28.012  18.435   6.947  0.00  0.00     0.180 C 
HETATM    6  C   UNK N   1      29.222  18.265   7.881  0.00  0.00     0.179 C 
HETATM    7  O   UNK N   1      29.848  17.041   7.586  0.00  0.00    -0.348 OA
BRANCH   3   8
HETATM    8  O   UNK N   1      30.011  17.419   3.983  0.00  0.00    -0.388 OA
HETATM    9  H   UNK N   1      29.533  17.414   3.139  0.00  0.00     0.210 HD
ENDBRANCH   3   8
BRANCH   4  10
HETATM   10  O   UNK N   1      27.465  18.509   4.617  0.00  0.00    -0.390 OA
HETATM   11  H   UNK N   1      26.896  19.287   4.513  0.00  0.00     0.210 HD
ENDBRANCH   4  10
BRANCH   5  12
HETATM   12  O   UNK N   1      27.323  19.617   7.224  0.00  0.00    -0.390 OA
HETATM   13  H   UNK N   1      27.305  20.445   6.720  0.00  0.00     0.210 HD
ENDBRANCH   5  12
BRANCH   6  14
HETATM   14  C   UNK N   1      28.796  18.231   9.344  0.00  0.00     0.198 C 
BRANCH  14  15
HETATM   15  O   UNK N   1      27.440  17.930   9.462  0.00  0.00    -0.398 OA
HETATM   16  H   UNK N   1      26.851  17.300   9.018  0.00  0.00     0.209 HD
ENDBRANCH  14  15
ENDBRANCH   6  14
ENDBRANCH   1   2
BRANCH   1  17
HETATM   17  C   UNK N   1      32.553  16.162   6.432  0.00  0.00     0.187 C 
HETATM   18  C   UNK N   1      33.015  17.515   5.830  0.00  0.00     0.180 C 
HETATM   19  O   UNK N   1      34.290  17.856   6.318  0.00  0.00    -0.349 OA
HETATM   20  C   UNK N   1      34.120  18.193   7.668  0.00  0.00     0.288 C 
HETATM   21  C   UNK N   1      33.949  16.900   8.453  0.00  0.00     0.204 C 
HETATM   22  C   UNK N   1      32.665  16.235   7.966  0.00  0.00     0.183 C 
BRANCH  18  23
HETATM   23  C   UNK N   1      33.095  17.468   4.311  0.00  0.00     0.198 C 
BRANCH  23  24
HETATM   24  O   UNK N   1      32.795  16.192   3.841  0.00  0.00    -0.398 OA
HETATM   25  H   UNK N   1      33.059  15.279   4.038  0.00  0.00     0.209 HD
ENDBRANCH  23  24
ENDBRANCH  18  23
BRANCH  20  26
HETATM   26  O   UNK N   1      35.240  18.893   8.118  0.00  0.00    -0.369 OA
HETATM   27  H   UNK N   1      35.349  19.849   7.993  0.00  0.00     0.212 HD
ENDBRANCH  20  26
BRANCH  21  28
HETATM   28  O   UNK N   1      33.837  17.174   9.817  0.00  0.00    -0.388 OA
HETATM   29  H   UNK N   1      33.092  17.635  10.232  0.00  0.00     0.210 HD
ENDBRANCH  21  28
BRANCH  22  30
HETATM   30  O   UNK N   1      32.550  14.966   8.531  0.00  0.00    -0.390 OA
HETATM   31  H   UNK N   1      31.955  14.745   9.265  0.00  0.00     0.210 HD
ENDBRANCH  22  30
ENDBRANCH   1  17
TORSDOF 12
ENDMDL
MODEL 3
REMARK VINA RESULT:      -6.1      6.512      9.917
REMARK  12 active torsions:
REMARK  status: ('A' for Active; 'I' for Inactive)
REMARK    1  A    between atoms: C_2  and  C_11 
REMARK    2  A    between atoms: C_3  and  O_10 
REMARK    3  A    between atoms: C_4  and  O_9 
REMARK    4  A    between atoms: C_5  and  O_8 
REMARK    5  A    between atoms: C_6  and  O_7 
REMARK    6  A    between atoms: C_15  and  O_7 
REMARK    7  A    between atoms: C_11  and  O_12 
REMARK    8  A    between atoms: C_14  and  C_22 
REMARK    9  A    between atoms: C_16  and  O_21 
REMARK   10  A    between atoms: C_17  and  O_20 
REMARK   11  A    between atoms: C_18  and  O_19 
REMARK   12  A    between atoms: C_22  and  O_23 
ROOT
HETATM    1  O   UNK N   1      23.295  18.774   4.525  0.00  0.00    -0.348 OA
ENDROOT
BRANCH   1   2
HETATM    2  C   UNK N   1      22.276  18.400   3.640  0.00  0.00     0.292 C 
HETATM    3  C   UNK N   1      21.197  17.634   4.427  0.00  0.00     0.204 C 
HETATM    4  C   UNK N   1      20.005  17.338   3.524  0.00  0.00     0.183 C 
HETATM    5  C   UNK N   1      19.537  18.614   2.833  0.00  0.00     0.180 C 
HETATM    6  C   UNK N   1      20.756  19.247   2.142  0.00  0.00     0.179 C 
HETATM    7  O   UNK N   1      21.705  19.584   3.123  0.00  0.00    -0.348 OA
BRANCH   3   8
HETATM    8  O   UNK N   1      21.708  16.432   4.918  0.00  0.00    -0.388 OA
HETATM    9  H   UNK N   1      22.573  16.061   4.685  0.00  0.00     0.210 HD
ENDBRANCH   3   8
BRANCH   4  10
HETATM   10  O   UNK N   1      18.964  16.789   4.274  0.00  0.00    -0.390 OA
HETATM   11  H   UNK N   1      19.045  15.934   4.723  0.00  0.00     0.210 HD
ENDBRANCH   4  10
BRANCH   5  12
HETATM   12  O   UNK N   1      18.540  18.298   1.910  0.00  0.00    -0.390 OA
HETATM   13  H   UNK N   1      17.623  18.611   1.871  0.00  0.00     0.210 HD
ENDBRANCH   5  12
BRANCH   6  14
HETATM   14  C   UNK N   1      20.376  20.524   1.402  0.00  0.00     0.198 C 
BRANCH  14  15
HETATM   15  O   UNK N   1      20.659  20.414   0.041  0.00  0.00    -0.398 OA
HETATM   16  H   UNK N   1      20.542  21.005  -0.720  0.00  0.00     0.209 HD
ENDBRANCH  14  15
ENDBRANCH   6  14
ENDBRANCH   1   2
BRANCH   1  17
HETATM   17  C   UNK N   1      24.537  18.414   3.975  0.00  0.00     0.187 C 
HETATM   18  C   UNK N   1      25.389  19.689   3.745  0.00  0.00     0.180 C 
HETATM   19  O   UNK N   1      26.712  19.339   3.416  0.00  0.00    -0.349 OA
HETATM   20  C   UNK N   1      27.287  18.824   4.586  0.00  0.00     0.288 C 
HETATM   21  C   UNK N   1      26.753  17.411   4.785  0.00  0.00     0.204 C 
HETATM   22  C   UNK N   1      25.247  17.517   5.006  0.00  0.00     0.183 C 
BRANCH  18  23
HETATM   23  C   UNK N   1      24.840  20.548   2.616  0.00  0.00     0.198 C 
BRANCH  23  24
HETATM   24  O   UNK N   1      23.788  21.342   3.065  0.00  0.00    -0.398 OA
HETATM   25  H   UNK N   1      23.345  21.529   3.909  0.00  0.00     0.209 HD
ENDBRANCH  23  24
ENDBRANCH  18  23
BRANCH  20  26
HETATM   26  O   UNK N   1      28.676  18.806   4.454  0.00  0.00    -0.369 OA
HETATM   27  H   UNK N   1      29.223  18.056   4.735  0.00  0.00     0.212 HD
ENDBRANCH  20  26
BRANCH  21  28
HETATM   28  O   UNK N   1      27.343  16.826   5.906  0.00  0.00    -0.388 OA
HETATM   29  H   UNK N   1      27.108  15.958   6.269  0.00  0.00     0.210 HD
ENDBRANCH  21  28
BRANCH  22  30
HETATM   30  O   UNK N   1      24.684  16.243   5.024  0.00  0.00    -0.390 OA
HETATM   31  H   UNK N   1      23.920  15.990   5.566  0.00  0.00     0.210 HD
ENDBRANCH  22  30
ENDBRANCH   1  17
TORSDOF 12
ENDMDL
MODEL 4
REMARK VINA RESULT:      -6.0     10.396     13.254
REMARK  12 active torsions:
REMARK  status: ('A' for Active; 'I' for Inactive)
REMARK    1  A    between atoms: C_2  and  C_11 
REMARK    2  A    between atoms: C_3  and  O_10 
REMARK    3  A    between atoms: C_4  and  O_9 
REMARK    4  A    between atoms: C_5  and  O_8 
REMARK    5  A    between atoms: C_6  and  O_7 
REMARK    6  A    between atoms: C_15  and  O_7 
REMARK    7  A    between atoms: C_11  and  O_12 
REMARK    8  A    between atoms: C_14  and  C_22 
REMARK    9  A    between atoms: C_16  and  O_21 
REMARK   10  A    between atoms: C_17  and  O_20 
REMARK   11  A    between atoms: C_18  and  O_19 
REMARK   12  A    between atoms: C_22  and  O_23 
ROOT
HETATM    1  O   UNK N   1      21.247  16.468   3.160  0.00  0.00    -0.348 OA
ENDROOT
BRANCH   1   2
HETATM    2  C   UNK N   1      20.419  15.583   3.862  0.00  0.00     0.292 C 
HETATM    3  C   UNK N   1      19.971  14.463   2.905  0.00  0.00     0.204 C 
HETATM    4  C   UNK N   1      19.188  13.405   3.671  0.00  0.00     0.183 C 
HETATM    5  C   UNK N   1      19.973  12.951   4.896  0.00  0.00     0.180 C 
HETATM    6  C   UNK N   1      20.358  14.206   5.697  0.00  0.00     0.179 C 
HETATM    7  O   UNK N   1      21.188  15.012   4.900  0.00  0.00    -0.348 OA
BRANCH   3   8
HETATM    8  O   UNK N   1      19.169  14.979   1.887  0.00  0.00    -0.388 OA
HETATM    9  H   UNK N   1      18.411  14.521   1.492  0.00  0.00     0.210 HD
ENDBRANCH   3   8
BRANCH   4  10
HETATM   10  O   UNK N   1      18.922  12.314   2.841  0.00  0.00    -0.390 OA
HETATM   11  H   UNK N   1      19.543  12.022   2.156  0.00  0.00     0.210 HD
ENDBRANCH   4  10
BRANCH   5  12
HETATM   12  O   UNK N   1      19.182  12.089   5.656  0.00  0.00    -0.390 OA
HETATM   13  H   UNK N   1      18.537  12.303   6.349  0.00  0.00     0.210 HD
ENDBRANCH   5  12
BRANCH   6  14
HETATM   14  C   UNK N   1      21.131  13.845   6.960  0.00  0.00     0.198 C 
BRANCH  14  15
HETATM   15  O   UNK N   1      20.267  13.669   8.041  0.00  0.00    -0.398 OA
HETATM   16  H   UNK N   1      19.940  12.892   8.520  0.00  0.00     0.209 HD
ENDBRANCH  14  15
ENDBRANCH   6  14
ENDBRANCH   1   2
BRANCH   1  17
HETATM   17  C   UNK N   1      20.706  17.763   3.238  0.00  0.00     0.187 C 
HETATM   18  C   UNK N   1      21.684  18.686   4.010  0.00  0.00     0.180 C 
HETATM   19  O   UNK N   1      21.277  20.029   3.899  0.00  0.00    -0.349 OA
HETATM   20  C   UNK N   1      21.522  20.407   2.572  0.00  0.00     0.288 C 
HETATM   21  C   UNK N   1      20.430  19.799   1.704  0.00  0.00     0.204 C 
HETATM   22  C   UNK N   1      20.564  18.282   1.794  0.00  0.00     0.183 C 
BRANCH  18  23
HETATM   23  C   UNK N   1      21.749  18.340   5.490  0.00  0.00     0.198 C 
BRANCH  23  24
HETATM   24  O   UNK N   1      22.799  17.462   5.747  0.00  0.00    -0.398 OA
HETATM   25  H   UNK N   1      23.053  16.838   6.445  0.00  0.00     0.209 HD
ENDBRANCH  23  24
ENDBRANCH  18  23
BRANCH  20  26
HETATM   26  O   UNK N   1      21.505  21.800   2.475  0.00  0.00    -0.369 OA
HETATM   27  H   UNK N   1      21.456  22.268   1.626  0.00  0.00     0.212 HD
ENDBRANCH  20  26
BRANCH  21  28
HETATM   28  O   UNK N   1      20.590  20.197   0.376  0.00  0.00    -0.388 OA
HETATM   29  H   UNK N   1      20.314  21.054   0.015  0.00  0.00     0.210 HD
ENDBRANCH  21  28
BRANCH  22  30
HETATM   30  O   UNK N   1      19.484  17.676   1.155  0.00  0.00    -0.390 OA
HETATM   31  H   UNK N   1      18.689  18.146   0.860  0.00  0.00     0.210 HD
ENDBRANCH  22  30
ENDBRANCH   1  17
TORSDOF 12
ENDMDL
MODEL 5
REMARK VINA RESULT:      -6.0      8.642     11.092
REMARK  12 active torsions:
REMARK  status: ('A' for Active; 'I' for Inactive)
REMARK    1  A    between atoms: C_2  and  C_11 
REMARK    2  A    between atoms: C_3  and  O_10 
REMARK    3  A    between atoms: C_4  and  O_9 
REMARK    4  A    between atoms: C_5  and  O_8 
REMARK    5  A    between atoms: C_6  and  O_7 
REMARK    6  A    between atoms: C_15  and  O_7 
REMARK    7  A    between atoms: C_11  and  O_12 
REMARK    8  A    between atoms: C_14  and  C_22 
REMARK    9  A    between atoms: C_16  and  O_21 
REMARK   10  A    between atoms: C_17  and  O_20 
REMARK   11  A    between atoms: C_18  and  O_19 
REMARK   12  A    between atoms: C_22  and  O_23 
ROOT
HETATM    1  O   UNK N   1      21.155  17.128   5.685  0.00  0.00    -0.348 OA
ENDROOT
BRANCH   1   2
HETATM    2  C   UNK N   1      21.087  17.567   4.357  0.00  0.00     0.292 C 
HETATM    3  C   UNK N   1      19.608  17.770   3.980  0.00  0.00     0.204 C 
HETATM    4  C   UNK N   1      19.504  18.386   2.590  0.00  0.00     0.183 C 
HETATM    5  C   UNK N   1      20.385  19.626   2.495  0.00  0.00     0.180 C 
HETATM    6  C   UNK N   1      21.801  19.230   2.944  0.00  0.00     0.179 C 
HETATM    7  O   UNK N   1      21.748  18.814   4.286  0.00  0.00    -0.348 OA
BRANCH   3   8
HETATM    8  O   UNK N   1      18.927  16.553   3.994  0.00  0.00    -0.388 OA
HETATM    9  H   UNK N   1      19.262  15.725   3.616  0.00  0.00     0.210 HD
ENDBRANCH   3   8
BRANCH   4  10
HETATM   10  O   UNK N   1      18.177  18.718   2.314  0.00  0.00    -0.390 OA
HETATM   11  H   UNK N   1      17.820  18.716   1.412  0.00  0.00     0.210 HD
ENDBRANCH   4  10
BRANCH   5  12
HETATM   12  O   UNK N   1      20.384  20.091   1.179  0.00  0.00    -0.390 OA
HETATM   13  H   UNK N   1      19.723  19.951   0.484  0.00  0.00     0.210 HD
ENDBRANCH   5  12
BRANCH   6  14
HETATM   14  C   UNK N   1      22.763  20.410   2.860  0.00  0.00     0.198 C 
BRANCH  14  15
HETATM   15  O   UNK N   1      22.067  21.618   2.824  0.00  0.00    -0.398 OA
HETATM   16  H   UNK N   1      21.533  22.105   3.471  0.00  0.00     0.209 HD
ENDBRANCH  14  15
ENDBRANCH   6  14
ENDBRANCH   1   2
BRANCH   1  17
HETATM   17  C   UNK N   1      21.666  15.820   5.711  0.00  0.00     0.187 C 
HETATM   18  C   UNK N   1      23.103  15.837   6.296  0.00  0.00     0.180 C 
HETATM   19  O   UNK N   1      23.543  14.525   6.547  0.00  0.00    -0.349 OA
HETATM   20  C   UNK N   1      22.800  14.061   7.641  0.00  0.00     0.288 C 
HETATM   21  C   UNK N   1      21.405  13.708   7.142  0.00  0.00     0.204 C 
HETATM   22  C   UNK N   1      20.758  14.996   6.643  0.00  0.00     0.183 C 
BRANCH  18  23
HETATM   23  C   UNK N   1      24.098  16.490   5.348  0.00  0.00     0.198 C 
BRANCH  23  24
HETATM   24  O   UNK N   1      24.179  17.860   5.584  0.00  0.00    -0.398 OA
HETATM   25  H   UNK N   1      23.992  18.679   5.098  0.00  0.00     0.209 HD
ENDBRANCH  23  24
ENDBRANCH  18  23
BRANCH  20  26
HETATM   26  O   UNK N   1      23.423  12.936   8.184  0.00  0.00    -0.369 OA
HETATM   27  H   UNK N   1      23.897  12.954   9.030  0.00  0.00     0.212 HD
ENDBRANCH  20  26
BRANCH  21  28
HETATM   28  O   UNK N   1      20.639  13.180   8.182  0.00  0.00    -0.388 OA
HETATM   29  H   UNK N   1      19.672  13.110   8.180  0.00  0.00     0.210 HD
ENDBRANCH  21  28
BRANCH  22  30
HETATM   30  O   UNK N   1      19.547  14.702   6.019  0.00  0.00    -0.390 OA
HETATM   31  H   UNK N   1      19.432  14.015   5.344  0.00  0.00     0.210 HD
ENDBRANCH  22  30
ENDBRANCH   1  17
TORSDOF 12
ENDMDL
MODEL 6
REMARK VINA RESULT:      -5.9      1.178      6.114
REMARK  12 active torsions:
REMARK  status: ('A' for Active; 'I' for Inactive)
REMARK    1  A    between atoms: C_2  and  C_11 
REMARK    2  A    between atoms: C_3  and  O_10 
REMARK    3  A    between atoms: C_4  and  O_9 
REMARK    4  A    between atoms: C_5  and  O_8 
REMARK    5  A    between atoms: C_6  and  O_7 
REMARK    6  A    between atoms: C_15  and  O_7 
REMARK    7  A    between atoms: C_11  and  O_12 
REMARK    8  A    between atoms: C_14  and  C_22 
REMARK    9  A    between atoms: C_16  and  O_21 
REMARK   10  A    between atoms: C_17  and  O_20 
REMARK   11  A    between atoms: C_18  and  O_19 
REMARK   12  A    between atoms: C_22  and  O_23 
ROOT
HETATM    1  O   UNK N   1      30.990  15.670   8.022  0.00  0.00    -0.348 OA
ENDROOT
BRANCH   1   2
HETATM    2  C   UNK N   1      32.289  15.774   8.536  0.00  0.00     0.292 C 
HETATM    3  C   UNK N   1      32.414  14.838   9.752  0.00  0.00     0.204 C 
HETATM    4  C   UNK N   1      33.855  14.817  10.248  0.00  0.00     0.183 C 
HETATM    5  C   UNK N   1      34.806  14.529   9.092  0.00  0.00     0.180 C 
HETATM    6  C   UNK N   1      34.501  15.537   7.972  0.00  0.00     0.179 C 
HETATM    7  O   UNK N   1      33.181  15.336   7.533  0.00  0.00    -0.348 OA
BRANCH   3   8
HETATM    8  O   UNK N   1      31.580  15.262  10.787  0.00  0.00    -0.388 OA
HETATM    9  H   UNK N   1      31.299  14.712  11.534  0.00  0.00     0.210 HD
ENDBRANCH   3   8
BRANCH   4  10
HETATM   10  O   UNK N   1      34.003  13.850  11.243  0.00  0.00    -0.390 OA
HETATM   11  H   UNK N   1      34.560  13.992  12.024  0.00  0.00     0.210 HD
ENDBRANCH   4  10
BRANCH   5  12
HETATM   12  O   UNK N   1      36.123  14.653   9.538  0.00  0.00    -0.390 OA
HETATM   13  H   UNK N   1      36.513  15.337  10.104  0.00  0.00     0.210 HD
ENDBRANCH   5  12
BRANCH   6  14
HETATM   14  C   UNK N   1      35.426  15.338   6.776  0.00  0.00     0.198 C 
BRANCH  14  15
HETATM   15  O   UNK N   1      34.967  16.049   5.668  0.00  0.00    -0.398 OA
HETATM   16  H   UNK N   1      34.880  16.993   5.464  0.00  0.00     0.209 HD
ENDBRANCH  14  15
ENDBRANCH   6  14
ENDBRANCH   1   2
BRANCH   1  17
HETATM   17  C   UNK N   1      30.502  16.957   7.742  0.00  0.00     0.187 C 
HETATM   18  C   UNK N   1      29.833  16.963   6.342  0.00  0.00     0.180 C 
HETATM   19  O   UNK N   1      29.137  18.169   6.139  0.00  0.00    -0.349 OA
HETATM   20  C   UNK N   1      28.020  18.128   6.985  0.00  0.00     0.288 C 
HETATM   21  C   UNK N   1      28.497  18.413   8.403  0.00  0.00     0.204 C 
HETATM   22  C   UNK N   1      29.436  17.280   8.806  0.00  0.00     0.183 C 
BRANCH  18  23
HETATM   23  C   UNK N   1      30.851  16.818   5.221  0.00  0.00     0.198 C 
BRANCH  23  24
HETATM   24  O   UNK N   1      32.092  17.313   5.614  0.00  0.00    -0.398 OA
HETATM   25  H   UNK N   1      32.461  18.162   5.907  0.00  0.00     0.209 HD
ENDBRANCH  23  24
ENDBRANCH  18  23
BRANCH  20  26
HETATM   26  O   UNK N   1      27.093  19.089   6.579  0.00  0.00    -0.369 OA
HETATM   27  H   UNK N   1      27.122  19.513   5.708  0.00  0.00     0.212 HD
ENDBRANCH  20  26
BRANCH  21  28
HETATM   28  O   UNK N   1      27.412  18.445   9.280  0.00  0.00    -0.388 OA
HETATM   29  H   UNK N   1      27.100  19.235   9.749  0.00  0.00     0.210 HD
ENDBRANCH  21  28
BRANCH  22  30
HETATM   30  O   UNK N   1      30.034  17.579  10.029  0.00  0.00    -0.390 OA
HETATM   31  H   UNK N   1      30.246  18.476  10.329  0.00  0.00     0.210 HD
ENDBRANCH  22  30
ENDBRANCH   1  17
TORSDOF 12
ENDMDL
MODEL 7
REMARK VINA RESULT:      -5.8      1.976      6.719
REMARK  12 active torsions:
REMARK  status: ('A' for Active; 'I' for Inactive)
REMARK    1  A    between atoms: C_2  and  C_11 
REMARK    2  A    between atoms: C_3  and  O_10 
REMARK    3  A    between atoms: C_4  and  O_9 
REMARK    4  A    between atoms: C_5  and  O_8 
REMARK    5  A    between atoms: C_6  and  O_7 
REMARK    6  A    between atoms: C_15  and  O_7 
REMARK    7  A    between atoms: C_11  and  O_12 
REMARK    8  A    between atoms: C_14  and  C_22 
REMARK    9  A    between atoms: C_16  and  O_21 
REMARK   10  A    between atoms: C_17  and  O_20 
REMARK   11  A    between atoms: C_18  and  O_19 
REMARK   12  A    between atoms: C_22  and  O_23 
ROOT
HETATM    1  O   UNK N   1      33.401  14.695   8.090  0.00  0.00    -0.348 OA
ENDROOT
BRANCH   1   2
HETATM    2  C   UNK N   1      34.335  14.929   9.106  0.00  0.00     0.292 C 
HETATM    3  C   UNK N   1      33.802  14.316  10.415  0.00  0.00     0.204 C 
HETATM    4  C   UNK N   1      34.857  14.425  11.509  0.00  0.00     0.183 C 
HETATM    5  C   UNK N   1      36.188  13.870  11.015  0.00  0.00     0.180 C 
HETATM    6  C   UNK N   1      36.526  14.574   9.690  0.00  0.00     0.179 C 
HETATM    7  O   UNK N   1      35.529  14.265   8.749  0.00  0.00    -0.348 OA
BRANCH   3   8
HETATM    8  O   UNK N   1      32.644  14.975  10.829  0.00  0.00    -0.388 OA
HETATM    9  H   UNK N   1      32.410  15.159  11.752  0.00  0.00     0.210 HD
ENDBRANCH   3   8
BRANCH   4  10
HETATM   10  O   UNK N   1      34.440  13.730  12.645  0.00  0.00    -0.390 OA
HETATM   11  H   UNK N   1      34.055  14.178  13.414  0.00  0.00     0.210 HD
ENDBRANCH   4  10
BRANCH   5  12
HETATM   12  O   UNK N   1      37.171  14.106  11.978  0.00  0.00    -0.390 OA
HETATM   13  H   UNK N   1      37.193  13.828  12.906  0.00  0.00     0.210 HD
ENDBRANCH   5  12
BRANCH   6  14
HETATM   14  C   UNK N   1      37.861  14.095   9.130  0.00  0.00     0.198 C 
BRANCH  14  15
HETATM   15  O   UNK N   1      38.921  14.803   9.696  0.00  0.00    -0.398 OA
HETATM   16  H   UNK N   1      39.212  14.962  10.608  0.00  0.00     0.209 HD
ENDBRANCH  14  15
ENDBRANCH   6  14
ENDBRANCH   1   2
BRANCH   1  17
HETATM   17  C   UNK N   1      33.207  15.881   7.362  0.00  0.00     0.187 C 
HETATM   18  C   UNK N   1      33.219  15.564   5.844  0.00  0.00     0.180 C 
HETATM   19  O   UNK N   1      32.797  16.687   5.108  0.00  0.00    -0.349 OA
HETATM   20  C   UNK N   1      31.425  16.829   5.355  0.00  0.00     0.288 C 
HETATM   21  C   UNK N   1      31.260  17.432   6.743  0.00  0.00     0.204 C 
HETATM   22  C   UNK N   1      31.819  16.428   7.747  0.00  0.00     0.183 C 
BRANCH  18  23
HETATM   23  C   UNK N   1      34.605  15.178   5.351  0.00  0.00     0.198 C 
BRANCH  23  24
HETATM   24  O   UNK N   1      35.591  15.772   6.135  0.00  0.00    -0.398 OA
HETATM   25  H   UNK N   1      35.978  16.655   6.247  0.00  0.00     0.209 HD
ENDBRANCH  23  24
ENDBRANCH  18  23
BRANCH  20  26
HETATM   26  O   UNK N   1      30.863  17.667   4.390  0.00  0.00    -0.369 OA
HETATM   27  H   UNK N   1      31.396  18.190   3.771  0.00  0.00     0.212 HD
ENDBRANCH  20  26
BRANCH  21  28
HETATM   28  O   UNK N   1      29.910  17.653   7.017  0.00  0.00    -0.388 OA
HETATM   29  H   UNK N   1      29.461  18.509   6.942  0.00  0.00     0.210 HD
ENDBRANCH  21  28
BRANCH  22  30
HETATM   30  O   UNK N   1      31.849  17.001   9.018  0.00  0.00    -0.390 OA
HETATM   31  H   UNK N   1      31.069  17.345   9.480  0.00  0.00     0.210 HD
ENDBRANCH  22  30
ENDBRANCH   1  17
TORSDOF 12
ENDMDL
MODEL 8
REMARK VINA RESULT:      -5.7     12.258     15.738
REMARK  12 active torsions:
REMARK  status: ('A' for Active; 'I' for Inactive)
REMARK    1  A    between atoms: C_2  and  C_11 
REMARK    2  A    between atoms: C_3  and  O_10 
REMARK    3  A    between atoms: C_4  and  O_9 
REMARK    4  A    between atoms: C_5  and  O_8 
REMARK    5  A    between atoms: C_6  and  O_7 
REMARK    6  A    between atoms: C_15  and  O_7 
REMARK    7  A    between atoms: C_11  and  O_12 
REMARK    8  A    between atoms: C_14  and  C_22 
REMARK    9  A    between atoms: C_16  and  O_21 
REMARK   10  A    between atoms: C_17  and  O_20 
REMARK   11  A    between atoms: C_18  and  O_19 
REMARK   12  A    between atoms: C_22  and  O_23 
ROOT
HETATM    1  O   UNK N   1      29.320  23.304  -6.000  0.00  0.00    -0.348 OA
ENDROOT
BRANCH   1   2
HETATM    2  C   UNK N   1      27.968  23.229  -6.358  0.00  0.00     0.292 C 
HETATM    3  C   UNK N   1      27.429  24.659  -6.547  0.00  0.00     0.204 C 
HETATM    4  C   UNK N   1      26.001  24.611  -7.077  0.00  0.00     0.183 C 
HETATM    5  C   UNK N   1      25.923  23.709  -8.303  0.00  0.00     0.180 C 
HETATM    6  C   UNK N   1      26.540  22.352  -7.926  0.00  0.00     0.179 C 
HETATM    7  O   UNK N   1      27.891  22.548  -7.593  0.00  0.00    -0.348 OA
BRANCH   3   8
HETATM    8  O   UNK N   1      27.445  25.354  -5.337  0.00  0.00    -0.388 OA
HETATM    9  H   UNK N   1      26.740  25.326  -4.672  0.00  0.00     0.210 HD
ENDBRANCH   3   8
BRANCH   4  10
HETATM   10  O   UNK N   1      25.570  25.899  -7.401  0.00  0.00    -0.390 OA
HETATM   11  H   UNK N   1      25.308  26.145  -8.302  0.00  0.00     0.210 HD
ENDBRANCH   4  10
BRANCH   5  12
HETATM   12  O   UNK N   1      24.589  23.569  -8.687  0.00  0.00    -0.390 OA
HETATM   13  H   UNK N   1      23.885  24.236  -8.702  0.00  0.00     0.210 HD
ENDBRANCH   5  12
BRANCH   6  14
HETATM   14  C   UNK N   1      26.484  21.371  -9.092  0.00  0.00     0.198 C 
BRANCH  14  15
HETATM   15  O   UNK N   1      25.168  21.005  -9.372  0.00  0.00    -0.398 OA
HETATM   16  H   UNK N   1      24.694  20.158  -9.382  0.00  0.00     0.209 HD
ENDBRANCH  14  15
ENDBRANCH   6  14
ENDBRANCH   1   2
BRANCH   1  17
HETATM   17  C   UNK N   1      29.582  22.360  -4.993  0.00  0.00     0.187 C 
HETATM   18  C   UNK N   1      30.959  21.694  -5.254  0.00  0.00     0.180 C 
HETATM   19  O   UNK N   1      31.345  20.921  -4.143  0.00  0.00    -0.349 OA
HETATM   20  C   UNK N   1      31.660  21.828  -3.122  0.00  0.00     0.288 C 
HETATM   21  C   UNK N   1      30.353  22.357  -2.547  0.00  0.00     0.204 C 
HETATM   22  C   UNK N   1      29.642  23.125  -3.658  0.00  0.00     0.183 C 
BRANCH  18  23
HETATM   23  C   UNK N   1      30.931  20.781  -6.470  0.00  0.00     0.198 C 
BRANCH  23  24
HETATM   24  O   UNK N   1      29.639  20.320  -6.713  0.00  0.00    -0.398 OA
HETATM   25  H   UNK N   1      28.981  19.772  -6.258  0.00  0.00     0.209 HD
ENDBRANCH  23  24
ENDBRANCH  18  23
BRANCH  20  26
HETATM   26  O   UNK N   1      32.399  21.176  -2.133  0.00  0.00    -0.369 OA
HETATM   27  H   UNK N   1      33.247  20.740  -2.311  0.00  0.00     0.212 HD
ENDBRANCH  20  26
BRANCH  21  28
HETATM   28  O   UNK N   1      30.608  23.219  -1.481  0.00  0.00    -0.388 OA
HETATM   29  H   UNK N   1      30.231  24.107  -1.382  0.00  0.00     0.210 HD
ENDBRANCH  21  28
BRANCH  22  30
HETATM   30  O   UNK N   1      28.364  23.485  -3.236  0.00  0.00    -0.390 OA
HETATM   31  H   UNK N   1      27.596  23.563  -3.824  0.00  0.00     0.210 HD
ENDBRANCH  22  30
ENDBRANCH   1  17
TORSDOF 12
ENDMDL
MODEL 9
REMARK VINA RESULT:      -5.6      6.895     11.008
REMARK  12 active torsions:
REMARK  status: ('A' for Active; 'I' for Inactive)
REMARK    1  A    between atoms: C_2  and  C_11 
REMARK    2  A    between atoms: C_3  and  O_10 
REMARK    3  A    between atoms: C_4  and  O_9 
REMARK    4  A    between atoms: C_5  and  O_8 
REMARK    5  A    between atoms: C_6  and  O_7 
REMARK    6  A    between atoms: C_15  and  O_7 
REMARK    7  A    between atoms: C_11  and  O_12 
REMARK    8  A    between atoms: C_14  and  C_22 
REMARK    9  A    between atoms: C_16  and  O_21 
REMARK   10  A    between atoms: C_17  and  O_20 
REMARK   11  A    between atoms: C_18  and  O_19 
REMARK   12  A    between atoms: C_22  and  O_23 
ROOT
HETATM    1  O   UNK N   1      34.712  13.002  15.581  0.00  0.00    -0.348 OA
ENDROOT
BRANCH   1   2
HETATM    2  C   UNK N   1      35.327  12.426  16.700  0.00  0.00     0.292 C 
HETATM    3  C   UNK N   1      34.970  13.262  17.943  0.00  0.00     0.204 C 
HETATM    4  C   UNK N   1      35.502  12.582  19.199  0.00  0.00     0.183 C 
HETATM    5  C   UNK N   1      35.063  11.123  19.236  0.00  0.00     0.180 C 
HETATM    6  C   UNK N   1      35.473  10.476  17.903  0.00  0.00     0.179 C 
HETATM    7  O   UNK N   1      34.794  11.128  16.858  0.00  0.00    -0.348 OA
BRANCH   3   8
HETATM    8  O   UNK N   1      35.517  14.542  17.848  0.00  0.00    -0.388 OA
HETATM    9  H   UNK N   1      35.020  15.342  17.617  0.00  0.00     0.210 HD
ENDBRANCH   3   8
BRANCH   4  10
HETATM   10  O   UNK N   1      35.042  13.251  20.334  0.00  0.00    -0.390 OA
HETATM   11  H   UNK N   1      35.003  12.825  21.205  0.00  0.00     0.210 HD
ENDBRANCH   4  10
BRANCH   5  12
HETATM   12  O   UNK N   1      35.674  10.486  20.316  0.00  0.00    -0.390 OA
HETATM   13  H   UNK N   1      36.570  10.119  20.381  0.00  0.00     0.210 HD
ENDBRANCH   5  12
BRANCH   6  14
HETATM   14  C   UNK N   1      35.092   9.001  17.859  0.00  0.00     0.198 C 
BRANCH  14  15
HETATM   15  O   UNK N   1      34.002   8.743  18.689  0.00  0.00    -0.398 OA
HETATM   16  H   UNK N   1      33.912   8.478  19.618  0.00  0.00     0.209 HD
ENDBRANCH  14  15
ENDBRANCH   6  14
ENDBRANCH   1   2
BRANCH   1  17
HETATM   17  C   UNK N   1      35.486  12.730  14.441  0.00  0.00     0.187 C 
HETATM   18  C   UNK N   1      34.588  12.093  13.347  0.00  0.00     0.180 C 
HETATM   19  O   UNK N   1      35.282  12.027  12.125  0.00  0.00    -0.349 OA
HETATM   20  C   UNK N   1      35.395  13.346  11.663  0.00  0.00     0.288 C 
HETATM   21  C   UNK N   1      36.488  14.032  12.471  0.00  0.00     0.204 C 
HETATM   22  C   UNK N   1      36.022  14.078  13.924  0.00  0.00     0.183 C 
BRANCH  18  23
HETATM   23  C   UNK N   1      34.155  10.682  13.714  0.00  0.00     0.198 C 
BRANCH  23  24
HETATM   24  O   UNK N   1      33.078  10.709  14.597  0.00  0.00    -0.398 OA
HETATM   25  H   UNK N   1      32.225  10.258  14.696  0.00  0.00     0.209 HD
ENDBRANCH  23  24
ENDBRANCH  18  23
BRANCH  20  26
HETATM   26  O   UNK N   1      35.724  13.338  10.306  0.00  0.00    -0.369 OA
HETATM   27  H   UNK N   1      35.177  13.765   9.629  0.00  0.00     0.212 HD
ENDBRANCH  20  26
BRANCH  21  28
HETATM   28  O   UNK N   1      36.686  15.333  12.010  0.00  0.00    -0.388 OA
HETATM   29  H   UNK N   1      36.026  15.862  11.536  0.00  0.00     0.210 HD
ENDBRANCH  21  28
BRANCH  22  30
HETATM   30  O   UNK N   1      37.057  14.542  14.734  0.00  0.00    -0.390 OA
HETATM   31  H   UNK N   1      37.087  14.433  15.698  0.00  0.00     0.210 HD
ENDBRANCH  22  30
ENDBRANCH   1  17
TORSDOF 12
ENDMDL
