MODEL 1
REMARK VINA RESULT:      -7.7      0.000      0.000
REMARK  6 active torsions:
REMARK  status: ('A' for Active; 'I' for Inactive)
REMARK    1  A    between atoms: C_14  and  C_7 
REMARK    2  A    between atoms: C_15  and  C_7 
REMARK    3  A    between atoms: C_16  and  C_8 
REMARK    4  A    between atoms: C_17  and  C_9 
REMARK    5  A    between atoms: N_19  and  C_16 
REMARK    6  A    between atoms: N_21  and  C_17 
ROOT
HETATM    1  C   UNK N   1      26.869  20.556   5.150  0.00  0.00     0.152 C 
ENDROOT
BRANCH   1   2
HETATM    2  C   UNK N   1      27.486  19.555   6.078  0.00  0.00     0.089 A 
HETATM    3  N   UNK N   1      27.384  19.623   7.431  0.00  0.00    -0.344 N 
HETATM    4  C   UNK N   1      28.281  18.723   7.862  0.00  0.00     0.060 A 
ATOM      5  HN  UNK N   1      26.769  20.218   7.989  1.00  0.00     0.167 HD
HETATM    6  C   UNK N   1      28.636  18.419   9.173  0.00  0.00     0.033 A 
HETATM    7  C   UNK N   1      28.907  18.152   6.799  0.00  0.00     0.061 A 
HETATM    8  C   UNK N   1      29.700  17.514   9.362  0.00  0.00     0.017 A 
HETATM    9  C   UNK N   1      30.378  16.946   8.248  0.00  0.00     0.009 A 
HETATM   10  C   UNK N   1      29.960  17.264   6.941  0.00  0.00     0.047 A 
HETATM   11  N   UNK N   1      28.414  18.653   5.664  0.00  0.00    -0.344 N 
HETATM   12  H   UNK N   1      28.665  18.422   4.740  0.00  0.00     0.167 HD
BRANCH   9  13
HETATM   13  C   UNK N   1      31.553  16.071   8.444  0.00  0.00     0.102 C 
HETATM   14  N   UNK N   1      32.188  15.602   7.433  0.00  0.00    -0.385 N 
HETATM   15  H   UNK N   1      32.525  14.680   7.364  0.00  0.00     0.157 HD
HETATM   16  H   UNK N   1      32.352  16.207   6.674  0.00  0.00     0.157 HD
BRANCH  13  17
HETATM   17  N   UNK N   1      31.924  15.664   9.746  0.00  0.00    -0.385 N 
HETATM   18  H   UNK N   1      32.092  16.207  10.549  0.00  0.00     0.157 HD
HETATM   19  H   UNK N   1      32.030  14.692   9.868  0.00  0.00     0.157 HD
ENDBRANCH  13  17
ENDBRANCH   9  13
ENDBRANCH   1   2
BRANCH   1  20
HETATM   20  C   UNK N   1      25.590  19.964   4.630  0.00  0.00     0.089 A 
HETATM   21  N   UNK N   1      24.950  18.932   5.241  0.00  0.00    -0.344 N 
HETATM   22  C   UNK N   1      23.774  18.860   4.606  0.00  0.00     0.060 A 
ATOM     23  HN  UNK N   1      25.288  18.348   6.006  1.00  0.00     0.167 HD
HETATM   24  C   UNK N   1      22.712  18.009   4.877  0.00  0.00     0.033 A 
HETATM   25  C   UNK N   1      23.720  19.811   3.638  0.00  0.00     0.061 A 
HETATM   26  C   UNK N   1      21.552  18.154   4.096  0.00  0.00     0.017 A 
HETATM   27  C   UNK N   1      21.488  19.134   3.069  0.00  0.00     0.009 A 
HETATM   28  C   UNK N   1      22.595  19.981   2.837  0.00  0.00     0.047 A 
HETATM   29  N   UNK N   1      24.852  20.530   3.640  0.00  0.00    -0.344 N 
HETATM   30  H   UNK N   1      25.093  21.289   3.060  0.00  0.00     0.167 HD
BRANCH  27  31
HETATM   31  C   UNK N   1      20.265  19.274   2.249  0.00  0.00     0.102 C 
HETATM   32  N   UNK N   1      20.222  20.126   1.290  0.00  0.00    -0.385 N 
HETATM   33  H   UNK N   1      19.414  20.654   1.097  0.00  0.00     0.157 HD
HETATM   34  H   UNK N   1      21.021  20.255   0.730  0.00  0.00     0.157 HD
BRANCH  31  35
HETATM   35  N   UNK N   1      19.132  18.474   2.520  0.00  0.00    -0.385 N 
HETATM   36  H   UNK N   1      19.004  17.501   2.451  0.00  0.00     0.157 HD
HETATM   37  H   UNK N   1      18.340  18.973   2.827  0.00  0.00     0.157 HD
ENDBRANCH  31  35
ENDBRANCH  27  31
ENDBRANCH   1  20
TORSDOF 6
ENDMDL
MODEL 2
REMARK VINA RESULT:      -7.6      4.467      7.958
REMARK  6 active torsions:
REMARK  status: ('A' for Active; 'I' for Inactive)
REMARK    1  A    between atoms: C_14  and  C_7 
REMARK    2  A    between atoms: C_15  and  C_7 
REMARK    3  A    between atoms: C_16  and  C_8 
REMARK    4  A    between atoms: C_17  and  C_9 
REMARK    5  A    between atoms: N_19  and  C_16 
REMARK    6  A    between atoms: N_21  and  C_17 
ROOT
HETATM    1  C   UNK N   1      33.877  18.065   8.184  0.00  0.00     0.152 C 
ENDROOT
BRANCH   1   2
HETATM    2  C   UNK N   1      34.588  17.049   9.024  0.00  0.00     0.089 A 
HETATM    3  N   UNK N   1      34.686  15.736   8.690  0.00  0.00    -0.344 N 
HETATM    4  C   UNK N   1      35.143  15.158   9.812  0.00  0.00     0.060 A 
ATOM      5  HN  UNK N   1      34.465  15.293   7.797  1.00  0.00     0.167 HD
HETATM    6  C   UNK N   1      35.374  13.807  10.053  0.00  0.00     0.033 A 
HETATM    7  C   UNK N   1      35.295  16.095  10.784  0.00  0.00     0.061 A 
HETATM    8  C   UNK N   1      35.742  13.436  11.363  0.00  0.00     0.017 A 
HETATM    9  C   UNK N   1      35.865  14.416  12.388  0.00  0.00     0.009 A 
HETATM   10  C   UNK N   1      35.648  15.774  12.084  0.00  0.00     0.047 A 
HETATM   11  N   UNK N   1      34.961  17.297  10.306  0.00  0.00    -0.344 N 
HETATM   12  H   UNK N   1      34.981  18.162  10.776  0.00  0.00     0.167 HD
BRANCH   9  13
HETATM   13  C   UNK N   1      36.159  14.019  13.781  0.00  0.00     0.102 C 
HETATM   14  N   UNK N   1      35.549  13.026  14.315  0.00  0.00    -0.385 N 
HETATM   15  H   UNK N   1      35.205  13.012  15.237  0.00  0.00     0.157 HD
HETATM   16  H   UNK N   1      35.415  12.220  13.765  0.00  0.00     0.157 HD
BRANCH  13  17
HETATM   17  N   UNK N   1      37.044  14.794  14.566  0.00  0.00    -0.385 N 
HETATM   18  H   UNK N   1      37.406  14.615  15.464  0.00  0.00     0.157 HD
HETATM   19  H   UNK N   1      37.341  15.637  14.154  0.00  0.00     0.157 HD
ENDBRANCH  13  17
ENDBRANCH   9  13
ENDBRANCH   1   2
BRANCH   1  20
HETATM   20  C   UNK N   1      32.430  17.666   8.116  0.00  0.00     0.089 A 
HETATM   21  N   UNK N   1      31.557  17.871   9.137  0.00  0.00    -0.344 N 
HETATM   22  C   UNK N   1      30.364  17.587   8.604  0.00  0.00     0.060 A 
ATOM     23  HN  UNK N   1      31.764  18.171  10.090  1.00  0.00     0.167 HD
HETATM   24  C   UNK N   1      29.117  17.689   9.205  0.00  0.00     0.033 A 
HETATM   25  C   UNK N   1      30.521  17.212   7.307  0.00  0.00     0.061 A 
HETATM   26  C   UNK N   1      27.993  17.377   8.419  0.00  0.00     0.017 A 
HETATM   27  C   UNK N   1      28.145  16.967   7.067  0.00  0.00     0.009 A 
HETATM   28  C   UNK N   1      29.437  16.884   6.499  0.00  0.00     0.047 A 
HETATM   29  N   UNK N   1      31.818  17.264   6.971  0.00  0.00    -0.344 N 
HETATM   30  H   UNK N   1      32.231  17.059   6.101  0.00  0.00     0.167 HD
BRANCH  27  31
HETATM   31  C   UNK N   1      26.957  16.634   6.252  0.00  0.00     0.102 C 
HETATM   32  N   UNK N   1      26.889  17.001   5.025  0.00  0.00    -0.385 N 
HETATM   33  H   UNK N   1      26.051  17.319   4.620  0.00  0.00     0.157 HD
HETATM   34  H   UNK N   1      27.702  16.962   4.470  0.00  0.00     0.157 HD
BRANCH  31  35
HETATM   35  N   UNK N   1      25.883  15.914   6.822  0.00  0.00    -0.385 N 
HETATM   36  H   UNK N   1      25.830  14.981   7.132  0.00  0.00     0.157 HD
HETATM   37  H   UNK N   1      25.050  16.429   6.926  0.00  0.00     0.157 HD
ENDBRANCH  31  35
ENDBRANCH  27  31
ENDBRANCH   1  20
TORSDOF 6
ENDMDL
MODEL 3
REMARK VINA RESULT:      -7.5      7.046     11.882
REMARK  6 active torsions:
REMARK  status: ('A' for Active; 'I' for Inactive)
REMARK    1  A    between atoms: C_14  and  C_7 
REMARK    2  A    between atoms: C_15  and  C_7 
REMARK    3  A    between atoms: C_16  and  C_8 
REMARK    4  A    between atoms: C_17  and  C_9 
REMARK    5  A    between atoms: N_19  and  C_16 
REMARK    6  A    between atoms: N_21  and  C_17 
ROOT
HETATM    1  C   UNK N   1      36.350  13.217  10.824  0.00  0.00     0.152 C 
ENDROOT
BRANCH   1   2
HETATM    2  C   UNK N   1      36.176  12.995  12.295  0.00  0.00     0.089 A 
HETATM    3  N   UNK N   1      35.198  12.214  12.825  0.00  0.00    -0.344 N 
HETATM    4  C   UNK N   1      35.235  12.506  14.134  0.00  0.00     0.060 A 
ATOM      5  HN  UNK N   1      34.581  11.560  12.342  1.00  0.00     0.167 HD
HETATM    6  C   UNK N   1      34.406  12.034  15.147  0.00  0.00     0.033 A 
HETATM    7  C   UNK N   1      36.193  13.442  14.370  0.00  0.00     0.061 A 
HETATM    8  C   UNK N   1      34.573  12.589  16.432  0.00  0.00     0.017 A 
HETATM    9  C   UNK N   1      35.552  13.594  16.668  0.00  0.00     0.009 A 
HETATM   10  C   UNK N   1      36.386  14.017  15.615  0.00  0.00     0.047 A 
HETATM   11  N   UNK N   1      36.806  13.756  13.226  0.00  0.00    -0.344 N 
HETATM   12  H   UNK N   1      37.545  14.393  13.090  0.00  0.00     0.167 HD
BRANCH   9  13
HETATM   13  C   UNK N   1      35.666  14.243  17.992  0.00  0.00     0.102 C 
HETATM   14  N   UNK N   1      36.240  15.383  18.108  0.00  0.00    -0.385 N 
HETATM   15  H   UNK N   1      36.857  15.626  18.835  0.00  0.00     0.157 HD
HETATM   16  H   UNK N   1      36.049  16.065  17.423  0.00  0.00     0.157 HD
BRANCH  13  17
HETATM   17  N   UNK N   1      35.230  13.564  19.153  0.00  0.00    -0.385 N 
HETATM   18  H   UNK N   1      35.107  12.600  19.308  0.00  0.00     0.157 HD
HETATM   19  H   UNK N   1      35.017  14.142  19.922  0.00  0.00     0.157 HD
ENDBRANCH  13  17
ENDBRANCH   9  13
ENDBRANCH   1   2
BRANCH   1  20
HETATM   20  C   UNK N   1      35.362  14.268  10.403  0.00  0.00     0.089 A 
HETATM   21  N   UNK N   1      35.728  15.531  10.059  0.00  0.00    -0.344 N 
HETATM   22  C   UNK N   1      34.610  16.063   9.551  0.00  0.00     0.060 A 
ATOM     23  HN  UNK N   1      36.641  15.972  10.166  1.00  0.00     0.167 HD
HETATM   24  C   UNK N   1      34.445  17.323   8.993  0.00  0.00     0.033 A 
HETATM   25  C   UNK N   1      33.607  15.149   9.600  0.00  0.00     0.061 A 
HETATM   26  C   UNK N   1      33.176  17.640   8.477  0.00  0.00     0.017 A 
HETATM   27  C   UNK N   1      32.113  16.700   8.538  0.00  0.00     0.009 A 
HETATM   28  C   UNK N   1      32.334  15.426   9.110  0.00  0.00     0.047 A 
HETATM   29  N   UNK N   1      34.060  14.001  10.126  0.00  0.00    -0.344 N 
HETATM   30  H   UNK N   1      33.565  13.163  10.276  0.00  0.00     0.167 HD
BRANCH  27  31
HETATM   31  C   UNK N   1      30.780  17.046   7.998  0.00  0.00     0.102 C 
HETATM   32  N   UNK N   1      30.335  16.463   6.946  0.00  0.00    -0.385 N 
HETATM   33  H   UNK N   1      29.824  16.945   6.257  0.00  0.00     0.157 HD
HETATM   34  H   UNK N   1      30.510  15.502   6.823  0.00  0.00     0.157 HD
BRANCH  31  35
HETATM   35  N   UNK N   1      29.989  18.028   8.635  0.00  0.00    -0.385 N 
HETATM   36  H   UNK N   1      30.183  18.604   9.410  0.00  0.00     0.157 HD
HETATM   37  H   UNK N   1      29.096  18.158   8.240  0.00  0.00     0.157 HD
ENDBRANCH  31  35
ENDBRANCH  27  31
ENDBRANCH   1  20
TORSDOF 6
ENDMDL
MODEL 4
REMARK VINA RESULT:      -7.5      4.493     11.818
REMARK  6 active torsions:
REMARK  status: ('A' for Active; 'I' for Inactive)
REMARK    1  A    between atoms: C_14  and  C_7 
REMARK    2  A    between atoms: C_15  and  C_7 
REMARK    3  A    between atoms: C_16  and  C_8 
REMARK    4  A    between atoms: C_17  and  C_9 
REMARK    5  A    between atoms: N_19  and  C_16 
REMARK    6  A    between atoms: N_21  and  C_17 
ROOT
HETATM    1  C   UNK N   1      34.001  17.534   8.094  0.00  0.00     0.152 C 
ENDROOT
BRANCH   1   2
HETATM    2  C   UNK N   1      32.521  17.749   8.003  0.00  0.00     0.089 A 
HETATM    3  N   UNK N   1      31.757  18.157   9.050  0.00  0.00    -0.344 N 
HETATM    4  C   UNK N   1      30.501  17.958   8.621  0.00  0.00     0.060 A 
ATOM      5  HN  UNK N   1      32.065  18.528   9.950  1.00  0.00     0.167 HD
HETATM    6  C   UNK N   1      29.311  18.154   9.316  0.00  0.00     0.033 A 
HETATM    7  C   UNK N   1      30.520  17.433   7.367  0.00  0.00     0.061 A 
HETATM    8  C   UNK N   1      28.117  17.755   8.681  0.00  0.00     0.017 A 
HETATM    9  C   UNK N   1      28.144  17.172   7.384  0.00  0.00     0.009 A 
HETATM   10  C   UNK N   1      29.373  17.022   6.711  0.00  0.00     0.047 A 
HETATM   11  N   UNK N   1      31.783  17.303   6.954  0.00  0.00    -0.344 N 
HETATM   12  H   UNK N   1      32.105  16.962   6.088  0.00  0.00     0.167 HD
BRANCH   9  13
HETATM   13  C   UNK N   1      26.904  16.667   6.756  0.00  0.00     0.102 C 
HETATM   14  N   UNK N   1      26.407  17.260   5.734  0.00  0.00    -0.385 N 
HETATM   15  H   UNK N   1      25.447  17.429   5.599  0.00  0.00     0.157 HD
HETATM   16  H   UNK N   1      27.028  17.566   5.034  0.00  0.00     0.157 HD
BRANCH  13  17
HETATM   17  N   UNK N   1      26.204  15.585   7.340  0.00  0.00    -0.385 N 
HETATM   18  H   UNK N   1      25.243  15.489   7.529  0.00  0.00     0.157 HD
HETATM   19  H   UNK N   1      26.761  14.814   7.594  0.00  0.00     0.157 HD
ENDBRANCH  13  17
ENDBRANCH   9  13
ENDBRANCH   1   2
BRANCH   1  20
HETATM   20  C   UNK N   1      34.253  16.587   9.232  0.00  0.00     0.089 A 
HETATM   21  N   UNK N   1      34.077  15.243   9.129  0.00  0.00    -0.344 N 
HETATM   22  C   UNK N   1      34.608  14.760  10.258  0.00  0.00     0.060 A 
ATOM     23  HN  UNK N   1      33.640  14.723   8.368  1.00  0.00     0.167 HD
HETATM   24  C   UNK N   1      34.743  13.431  10.634  0.00  0.00     0.033 A 
HETATM   25  C   UNK N   1      35.077  15.785  11.016  0.00  0.00     0.061 A 
HETATM   26  C   UNK N   1      35.384  13.168  11.858  0.00  0.00     0.017 A 
HETATM   27  C   UNK N   1      35.863  14.231  12.669  0.00  0.00     0.009 A 
HETATM   28  C   UNK N   1      35.707  15.569  12.238  0.00  0.00     0.047 A 
HETATM   29  N   UNK N   1      34.873  16.951  10.385  0.00  0.00    -0.344 N 
HETATM   30  H   UNK N   1      35.116  17.857  10.685  0.00  0.00     0.167 HD
BRANCH  27  31
HETATM   31  C   UNK N   1      36.530  13.944  13.958  0.00  0.00     0.102 C 
HETATM   32  N   UNK N   1      36.603  12.740  14.395  0.00  0.00    -0.385 N 
HETATM   33  H   UNK N   1      36.496  12.523  15.349  0.00  0.00     0.157 HD
HETATM   34  H   UNK N   1      36.772  12.010  13.757  0.00  0.00     0.157 HD
BRANCH  31  35
HETATM   35  N   UNK N   1      37.086  14.995  14.721  0.00  0.00    -0.385 N 
HETATM   36  H   UNK N   1      36.771  15.916  14.868  0.00  0.00     0.157 HD
HETATM   37  H   UNK N   1      37.927  14.770  15.181  0.00  0.00     0.157 HD
ENDBRANCH  31  35
ENDBRANCH  27  31
ENDBRANCH   1  20
TORSDOF 6
ENDMDL
MODEL 5
REMARK VINA RESULT:      -7.5      8.778     13.961
REMARK  6 active torsions:
REMARK  status: ('A' for Active; 'I' for Inactive)
REMARK    1  A    between atoms: C_14  and  C_7 
REMARK    2  A    between atoms: C_15  and  C_7 
REMARK    3  A    between atoms: C_16  and  C_8 
REMARK    4  A    between atoms: C_17  and  C_9 
REMARK    5  A    between atoms: N_19  and  C_16 
REMARK    6  A    between atoms: N_21  and  C_17 
ROOT
HETATM    1  C   UNK N   1      36.513  12.210  13.307  0.00  0.00     0.152 C 
ENDROOT
BRANCH   1   2
HETATM    2  C   UNK N   1      35.962  12.244  14.700  0.00  0.00     0.089 A 
HETATM    3  N   UNK N   1      35.642  13.392  15.353  0.00  0.00    -0.344 N 
HETATM    4  C   UNK N   1      35.456  12.994  16.621  0.00  0.00     0.060 A 
ATOM      5  HN  UNK N   1      35.561  14.335  14.970  1.00  0.00     0.167 HD
HETATM    6  C   UNK N   1      35.165  13.774  17.736  0.00  0.00     0.033 A 
HETATM    7  C   UNK N   1      35.676  11.656  16.720  0.00  0.00     0.061 A 
HETATM    8  C   UNK N   1      35.137  13.128  18.989  0.00  0.00     0.017 A 
HETATM    9  C   UNK N   1      35.403  11.734  19.094  0.00  0.00     0.009 A 
HETATM   10  C   UNK N   1      35.664  10.984  17.930  0.00  0.00     0.047 A 
HETATM   11  N   UNK N   1      35.985  11.161  15.519  0.00  0.00    -0.344 N 
HETATM   12  H   UNK N   1      36.183  10.226  15.282  0.00  0.00     0.167 HD
BRANCH   9  13
HETATM   13  C   UNK N   1      35.466  11.074  20.415  0.00  0.00     0.102 C 
HETATM   14  N   UNK N   1      34.388  10.761  21.036  0.00  0.00    -0.385 N 
HETATM   15  H   UNK N   1      34.247  10.881  22.003  0.00  0.00     0.157 HD
HETATM   16  H   UNK N   1      33.652  10.373  20.510  0.00  0.00     0.157 HD
BRANCH  13  17
HETATM   17  N   UNK N   1      36.715  10.872  21.047  0.00  0.00    -0.385 N 
HETATM   18  H   UNK N   1      36.916  10.478  21.927  0.00  0.00     0.157 HD
HETATM   19  H   UNK N   1      37.499  11.170  20.531  0.00  0.00     0.157 HD
ENDBRANCH  13  17
ENDBRANCH   9  13
ENDBRANCH   1   2
BRANCH   1  20
HETATM   20  C   UNK N   1      35.880  13.338  12.542  0.00  0.00     0.089 A 
HETATM   21  N   UNK N   1      36.513  14.517  12.303  0.00  0.00    -0.344 N 
HETATM   22  C   UNK N   1      35.716  15.140  11.427  0.00  0.00     0.060 A 
ATOM     23  HN  UNK N   1      37.391  14.850  12.701  1.00  0.00     0.167 HD
HETATM   24  C   UNK N   1      35.926  16.363  10.807  0.00  0.00     0.033 A 
HETATM   25  C   UNK N   1      34.635  14.361  11.161  0.00  0.00     0.061 A 
HETATM   26  C   UNK N   1      34.960  16.791   9.879  0.00  0.00     0.017 A 
HETATM   27  C   UNK N   1      33.815  15.995   9.604  0.00  0.00     0.009 A 
HETATM   28  C   UNK N   1      33.651  14.752  10.258  0.00  0.00     0.047 A 
HETATM   29  N   UNK N   1      34.721  13.211  11.846  0.00  0.00    -0.344 N 
HETATM   30  H   UNK N   1      34.091  12.453  11.845  0.00  0.00     0.167 HD
BRANCH  27  31
HETATM   31  C   UNK N   1      32.802  16.458   8.632  0.00  0.00     0.102 C 
HETATM   32  N   UNK N   1      32.010  17.422   8.930  0.00  0.00    -0.385 N 
HETATM   33  H   UNK N   1      31.063  17.422   8.663  0.00  0.00     0.157 HD
HETATM   34  H   UNK N   1      32.360  18.186   9.442  0.00  0.00     0.157 HD
BRANCH  31  35
HETATM   35  N   UNK N   1      32.694  15.836   7.367  0.00  0.00    -0.385 N 
HETATM   36  H   UNK N   1      33.346  15.758   6.634  0.00  0.00     0.157 HD
HETATM   37  H   UNK N   1      31.823  15.412   7.190  0.00  0.00     0.157 HD
ENDBRANCH  31  35
ENDBRANCH  27  31
ENDBRANCH   1  20
TORSDOF 6
ENDMDL
MODEL 6
REMARK VINA RESULT:      -7.4      4.923     12.536
REMARK  6 active torsions:
REMARK  status: ('A' for Active; 'I' for Inactive)
REMARK    1  A    between atoms: C_14  and  C_7 
REMARK    2  A    between atoms: C_15  and  C_7 
REMARK    3  A    between atoms: C_16  and  C_8 
REMARK    4  A    between atoms: C_17  and  C_9 
REMARK    5  A    between atoms: N_19  and  C_16 
REMARK    6  A    between atoms: N_21  and  C_17 
ROOT
HETATM    1  C   UNK N   1      34.899  16.461   8.465  0.00  0.00     0.152 C 
ENDROOT
BRANCH   1   2
HETATM    2  C   UNK N   1      33.458  16.545   8.065  0.00  0.00     0.089 A 
HETATM    3  N   UNK N   1      33.028  16.425   6.781  0.00  0.00    -0.344 N 
HETATM    4  C   UNK N   1      31.749  16.827   6.838  0.00  0.00     0.060 A 
ATOM      5  HN  UNK N   1      33.553  16.105   5.967  1.00  0.00     0.167 HD
HETATM    6  C   UNK N   1      30.840  16.960   5.792  0.00  0.00     0.033 A 
HETATM    7  C   UNK N   1      31.436  17.189   8.110  0.00  0.00     0.061 A 
HETATM    8  C   UNK N   1      29.582  17.520   6.095  0.00  0.00     0.017 A 
HETATM    9  C   UNK N   1      29.270  17.932   7.421  0.00  0.00     0.009 A 
HETATM   10  C   UNK N   1      30.215  17.748   8.449  0.00  0.00     0.047 A 
HETATM   11  N   UNK N   1      32.495  17.009   8.903  0.00  0.00    -0.344 N 
HETATM   12  H   UNK N   1      32.562  17.175   9.871  0.00  0.00     0.167 HD
BRANCH   9  13
HETATM   13  C   UNK N   1      27.989  18.605   7.721  0.00  0.00     0.102 C 
HETATM   14  N   UNK N   1      27.333  19.197   6.792  0.00  0.00    -0.385 N 
HETATM   15  H   UNK N   1      26.885  20.067   6.891  0.00  0.00     0.157 HD
HETATM   16  H   UNK N   1      27.271  18.748   5.917  0.00  0.00     0.157 HD
BRANCH  13  17
HETATM   17  N   UNK N   1      27.526  18.686   9.056  0.00  0.00    -0.385 N 
HETATM   18  H   UNK N   1      27.174  19.459   9.552  0.00  0.00     0.157 HD
HETATM   19  H   UNK N   1      27.563  17.843   9.563  0.00  0.00     0.157 HD
ENDBRANCH  13  17
ENDBRANCH   9  13
ENDBRANCH   1   2
BRANCH   1  20
HETATM   20  C   UNK N   1      34.967  15.688   9.752  0.00  0.00     0.089 A 
HETATM   21  N   UNK N   1      34.684  14.361   9.834  0.00  0.00    -0.344 N 
HETATM   22  C   UNK N   1      35.071  14.024  11.070  0.00  0.00     0.060 A 
ATOM     23  HN  UNK N   1      34.270  13.762   9.120  1.00  0.00     0.167 HD
HETATM   24  C   UNK N   1      35.055  12.764  11.652  0.00  0.00     0.033 A 
HETATM   25  C   UNK N   1      35.560  15.118  11.709  0.00  0.00     0.061 A 
HETATM   26  C   UNK N   1      35.562  12.650  12.959  0.00  0.00     0.017 A 
HETATM   27  C   UNK N   1      36.060  13.790  13.645  0.00  0.00     0.009 A 
HETATM   28  C   UNK N   1      36.060  15.050  13.006  0.00  0.00     0.047 A 
HETATM   29  N   UNK N   1      35.515  16.182  10.893  0.00  0.00    -0.344 N 
HETATM   30  H   UNK N   1      35.809  17.104  11.077  0.00  0.00     0.167 HD
BRANCH  27  31
HETATM   31  C   UNK N   1      36.585  13.660  15.022  0.00  0.00     0.102 C 
HETATM   32  N   UNK N   1      36.308  12.624  15.726  0.00  0.00    -0.385 N 
HETATM   33  H   UNK N   1      36.119  12.683  16.690  0.00  0.00     0.157 HD
HETATM   34  H   UNK N   1      36.284  11.742  15.289  0.00  0.00     0.157 HD
BRANCH  31  35
HETATM   35  N   UNK N   1      37.391  14.680  15.575  0.00  0.00    -0.385 N 
HETATM   36  H   UNK N   1      37.341  15.659  15.479  0.00  0.00     0.157 HD
HETATM   37  H   UNK N   1      38.123  14.360  16.150  0.00  0.00     0.157 HD
ENDBRANCH  31  35
ENDBRANCH  27  31
ENDBRANCH   1  20
TORSDOF 6
ENDMDL
MODEL 7
REMARK VINA RESULT:      -7.4      1.220      9.121
REMARK  6 active torsions:
REMARK  status: ('A' for Active; 'I' for Inactive)
REMARK    1  A    between atoms: C_14  and  C_7 
REMARK    2  A    between atoms: C_15  and  C_7 
REMARK    3  A    between atoms: C_16  and  C_8 
REMARK    4  A    between atoms: C_17  and  C_9 
REMARK    5  A    between atoms: N_19  and  C_16 
REMARK    6  A    between atoms: N_21  and  C_17 
ROOT
HETATM    1  C   UNK N   1      26.186  20.444   4.016  0.00  0.00     0.152 C 
ENDROOT
BRANCH   1   2
HETATM    2  C   UNK N   1      24.807  19.858   4.045  0.00  0.00     0.089 A 
HETATM    3  N   UNK N   1      24.515  18.656   4.606  0.00  0.00    -0.344 N 
HETATM    4  C   UNK N   1      23.268  18.403   4.179  0.00  0.00     0.060 A 
ATOM      5  HN  UNK N   1      25.103  18.081   5.210  1.00  0.00     0.167 HD
HETATM    6  C   UNK N   1      22.492  17.270   4.407  0.00  0.00     0.033 A 
HETATM    7  C   UNK N   1      22.842  19.414   3.377  0.00  0.00     0.061 A 
HETATM    8  C   UNK N   1      21.250  17.192   3.744  0.00  0.00     0.017 A 
HETATM    9  C   UNK N   1      20.822  18.236   2.876  0.00  0.00     0.009 A 
HETATM   10  C   UNK N   1      21.633  19.375   2.703  0.00  0.00     0.047 A 
HETATM   11  N   UNK N   1      23.792  20.348   3.288  0.00  0.00    -0.344 N 
HETATM   12  H   UNK N   1      23.763  21.196   2.788  0.00  0.00     0.167 HD
BRANCH   9  13
HETATM   13  C   UNK N   1      19.565  18.113   2.109  0.00  0.00     0.102 C 
HETATM   14  N   UNK N   1      19.470  17.267   1.151  0.00  0.00    -0.385 N 
HETATM   15  H   UNK N   1      19.033  17.447   0.287  0.00  0.00     0.157 HD
HETATM   16  H   UNK N   1      19.859  16.373   1.288  0.00  0.00     0.157 HD
BRANCH  13  17
HETATM   17  N   UNK N   1      18.491  18.998   2.362  0.00  0.00    -0.385 N 
HETATM   18  H   UNK N   1      18.466  19.982   2.324  0.00  0.00     0.157 HD
HETATM   19  H   UNK N   1      17.643  18.567   2.612  0.00  0.00     0.157 HD
ENDBRANCH  13  17
ENDBRANCH   9  13
ENDBRANCH   1   2
BRANCH   1  20
HETATM   20  C   UNK N   1      27.089  19.517   4.780  0.00  0.00     0.089 A 
HETATM   21  N   UNK N   1      28.072  18.788   4.189  0.00  0.00    -0.344 N 
HETATM   22  C   UNK N   1      28.764  18.284   5.217  0.00  0.00     0.060 A 
ATOM     23  HN  UNK N   1      28.241  18.655   3.192  1.00  0.00     0.167 HD
HETATM   24  C   UNK N   1      29.913  17.508   5.171  0.00  0.00     0.033 A 
HETATM   25  C   UNK N   1      28.204  18.691   6.386  0.00  0.00     0.061 A 
HETATM   26  C   UNK N   1      30.491  17.135   6.397  0.00  0.00     0.017 A 
HETATM   27  C   UNK N   1      29.906  17.539   7.627  0.00  0.00     0.009 A 
HETATM   28  C   UNK N   1      28.738  18.336   7.621  0.00  0.00     0.047 A 
HETATM   29  N   UNK N   1      27.149  19.481   6.137  0.00  0.00    -0.344 N 
HETATM   30  H   UNK N   1      26.556  19.929   6.784  0.00  0.00     0.167 HD
BRANCH  27  31
HETATM   31  C   UNK N   1      30.518  17.136   8.912  0.00  0.00     0.102 C 
HETATM   32  N   UNK N   1      29.818  17.119   9.987  0.00  0.00    -0.385 N 
HETATM   33  H   UNK N   1      30.184  17.409  10.853  0.00  0.00     0.157 HD
HETATM   34  H   UNK N   1      28.885  16.806   9.944  0.00  0.00     0.157 HD
BRANCH  31  35
HETATM   35  N   UNK N   1      31.882  16.772   8.966  0.00  0.00    -0.385 N 
HETATM   36  H   UNK N   1      32.650  17.225   9.383  0.00  0.00     0.157 HD
HETATM   37  H   UNK N   1      32.101  15.927   8.510  0.00  0.00     0.157 HD
ENDBRANCH  31  35
ENDBRANCH  27  31
ENDBRANCH   1  20
TORSDOF 6
ENDMDL
MODEL 8
REMARK VINA RESULT:      -7.1      4.545      8.503
REMARK  6 active torsions:
REMARK  status: ('A' for Active; 'I' for Inactive)
REMARK    1  A    between atoms: C_14  and  C_7 
REMARK    2  A    between atoms: C_15  and  C_7 
REMARK    3  A    between atoms: C_16  and  C_8 
REMARK    4  A    between atoms: C_17  and  C_9 
REMARK    5  A    between atoms: N_19  and  C_16 
REMARK    6  A    between atoms: N_21  and  C_17 
ROOT
HETATM    1  C   UNK N   1      26.090  16.111   4.940  0.00  0.00     0.152 C 
ENDROOT
BRANCH   1   2
HETATM    2  C   UNK N   1      25.306  15.204   5.839  0.00  0.00     0.089 A 
HETATM    3  N   UNK N   1      23.963  15.304   6.018  0.00  0.00    -0.344 N 
HETATM    4  C   UNK N   1      23.725  14.510   7.073  0.00  0.00     0.060 A 
ATOM      5  HN  UNK N   1      23.292  15.851   5.477  1.00  0.00     0.167 HD
HETATM    6  C   UNK N   1      22.518  14.283   7.726  0.00  0.00     0.033 A 
HETATM    7  C   UNK N   1      24.892  13.971   7.516  0.00  0.00     0.061 A 
HETATM    8  C   UNK N   1      22.552  13.493   8.894  0.00  0.00     0.017 A 
HETATM    9  C   UNK N   1      23.780  12.961   9.376  0.00  0.00     0.009 A 
HETATM   10  C   UNK N   1      24.971  13.196   8.661  0.00  0.00     0.047 A 
HETATM   11  N   UNK N   1      25.900  14.387   6.746  0.00  0.00    -0.344 N 
HETATM   12  H   UNK N   1      26.854  14.154   6.818  0.00  0.00     0.167 HD
BRANCH   9  13
HETATM   13  C   UNK N   1      23.831  12.212  10.650  0.00  0.00     0.102 C 
HETATM   14  N   UNK N   1      24.861  12.295  11.409  0.00  0.00    -0.385 N 
HETATM   15  H   UNK N   1      25.271  11.533  11.879  0.00  0.00     0.157 HD
HETATM   16  H   UNK N   1      25.270  13.182  11.533  0.00  0.00     0.157 HD
BRANCH  13  17
HETATM   17  N   UNK N   1      22.786  11.323  10.992  0.00  0.00    -0.385 N 
HETATM   18  H   UNK N   1      22.792  10.555  11.608  0.00  0.00     0.157 HD
HETATM   19  H   UNK N   1      21.925  11.497  10.548  0.00  0.00     0.157 HD
ENDBRANCH  13  17
ENDBRANCH   9  13
ENDBRANCH   1   2
BRANCH   1  20
HETATM   20  C   UNK N   1      27.225  16.677   5.745  0.00  0.00     0.089 A 
HETATM   21  N   UNK N   1      27.037  17.421   6.868  0.00  0.00    -0.344 N 
HETATM   22  C   UNK N   1      28.264  17.535   7.389  0.00  0.00     0.060 A 
ATOM     23  HN  UNK N   1      26.163  17.804   7.228  1.00  0.00     0.167 HD
HETATM   24  C   UNK N   1      28.630  18.153   8.576  0.00  0.00     0.033 A 
HETATM   25  C   UNK N   1      29.158  16.889   6.595  0.00  0.00     0.061 A 
HETATM   26  C   UNK N   1      29.987  18.101   8.940  0.00  0.00     0.017 A 
HETATM   27  C   UNK N   1      30.936  17.444   8.110  0.00  0.00     0.009 A 
HETATM   28  C   UNK N   1      30.511  16.824   6.913  0.00  0.00     0.047 A 
HETATM   29  N   UNK N   1      28.524  16.329   5.554  0.00  0.00    -0.344 N 
HETATM   30  H   UNK N   1      28.909  15.793   4.823  0.00  0.00     0.167 HD
BRANCH  27  31
HETATM   31  C   UNK N   1      32.362  17.401   8.499  0.00  0.00     0.102 C 
HETATM   32  N   UNK N   1      32.771  16.554   9.372  0.00  0.00    -0.385 N 
HETATM   33  H   UNK N   1      33.449  16.785  10.046  0.00  0.00     0.157 HD
HETATM   34  H   UNK N   1      32.394  15.644   9.367  0.00  0.00     0.157 HD
BRANCH  31  35
HETATM   35  N   UNK N   1      33.285  18.298   7.916  0.00  0.00    -0.385 N 
HETATM   36  H   UNK N   1      33.978  18.149   7.233  0.00  0.00     0.157 HD
HETATM   37  H   UNK N   1      33.225  19.223   8.247  0.00  0.00     0.157 HD
ENDBRANCH  31  35
ENDBRANCH  27  31
ENDBRANCH   1  20
TORSDOF 6
ENDMDL
MODEL 9
REMARK VINA RESULT:      -7.1     10.455     15.308
REMARK  6 active torsions:
REMARK  status: ('A' for Active; 'I' for Inactive)
REMARK    1  A    between atoms: C_14  and  C_7 
REMARK    2  A    between atoms: C_15  and  C_7 
REMARK    3  A    between atoms: C_16  and  C_8 
REMARK    4  A    between atoms: C_17  and  C_9 
REMARK    5  A    between atoms: N_19  and  C_16 
REMARK    6  A    between atoms: N_21  and  C_17 
ROOT
HETATM    1  C   UNK N   1      34.306   9.981  12.358  0.00  0.00     0.152 C 
ENDROOT
BRANCH   1   2
HETATM    2  C   UNK N   1      34.789  11.139  11.540  0.00  0.00     0.089 A 
HETATM    3  N   UNK N   1      36.017  11.703  11.689  0.00  0.00    -0.344 N 
HETATM    4  C   UNK N   1      35.932  12.838  10.979  0.00  0.00     0.060 A 
ATOM      5  HN  UNK N   1      36.815  11.346  12.216  1.00  0.00     0.167 HD
HETATM    6  C   UNK N   1      36.890  13.837  10.833  0.00  0.00     0.033 A 
HETATM    7  C   UNK N   1      34.689  12.953  10.441  0.00  0.00     0.061 A 
HETATM    8  C   UNK N   1      36.512  14.998  10.128  0.00  0.00     0.017 A 
HETATM    9  C   UNK N   1      35.199  15.131   9.597  0.00  0.00     0.009 A 
HETATM   10  C   UNK N   1      34.276  14.077   9.747  0.00  0.00     0.047 A 
HETATM   11  N   UNK N   1      33.955  11.887  10.772  0.00  0.00    -0.344 N 
HETATM   12  H   UNK N   1      33.025  11.690  10.518  0.00  0.00     0.167 HD
BRANCH   9  13
HETATM   13  C   UNK N   1      34.772  16.384   8.939  0.00  0.00     0.102 C 
HETATM   14  N   UNK N   1      34.513  17.428   9.638  0.00  0.00    -0.385 N 
HETATM   15  H   UNK N   1      33.754  18.034   9.476  0.00  0.00     0.157 HD
HETATM   16  H   UNK N   1      35.115  17.638  10.388  0.00  0.00     0.157 HD
BRANCH  13  17
HETATM   17  N   UNK N   1      34.552  16.413   7.542  0.00  0.00    -0.385 N 
HETATM   18  H   UNK N   1      34.948  16.997   6.857  0.00  0.00     0.157 HD
HETATM   19  H   UNK N   1      33.908  15.748   7.206  0.00  0.00     0.157 HD
ENDBRANCH  13  17
ENDBRANCH   9  13
ENDBRANCH   1   2
BRANCH   1  20
HETATM   20  C   UNK N   1      34.413  10.372  13.805  0.00  0.00     0.089 A 
HETATM   21  N   UNK N   1      34.920   9.546  14.758  0.00  0.00    -0.344 N 
HETATM   22  C   UNK N   1      35.042  10.332  15.834  0.00  0.00     0.060 A 
ATOM     23  HN  UNK N   1      35.152   8.557  14.673  1.00  0.00     0.167 HD
HETATM   24  C   UNK N   1      35.569  10.000  17.075  0.00  0.00     0.033 A 
HETATM   25  C   UNK N   1      34.611  11.585  15.535  0.00  0.00     0.061 A 
HETATM   26  C   UNK N   1      35.636  11.019  18.042  0.00  0.00     0.017 A 
HETATM   27  C   UNK N   1      35.173  12.330  17.748  0.00  0.00     0.009 A 
HETATM   28  C   UNK N   1      34.650  12.618  16.466  0.00  0.00     0.047 A 
HETATM   29  N   UNK N   1      34.218  11.639  14.254  0.00  0.00    -0.344 N 
HETATM   30  H   UNK N   1      33.868  12.414  13.756  0.00  0.00     0.167 HD
BRANCH  27  31
HETATM   31  C   UNK N   1      35.242  13.392  18.774  0.00  0.00     0.102 C 
HETATM   32  N   UNK N   1      35.372  14.620  18.428  0.00  0.00    -0.385 N 
HETATM   33  H   UNK N   1      35.941  15.247  18.930  0.00  0.00     0.157 HD
HETATM   34  H   UNK N   1      34.887  14.947  17.636  0.00  0.00     0.157 HD
BRANCH  31  35
HETATM   35  N   UNK N   1      35.171  13.060  20.146  0.00  0.00    -0.385 N 
HETATM   36  H   UNK N   1      35.793  12.553  20.715  0.00  0.00     0.157 HD
HETATM   37  H   UNK N   1      34.367  13.391  20.608  0.00  0.00     0.157 HD
ENDBRANCH  31  35
ENDBRANCH  27  31
ENDBRANCH   1  20
TORSDOF 6
ENDMDL
