MODEL 1
REMARK VINA RESULT:      -4.2      0.000      0.000
REMARK  7 active torsions:
REMARK  status: ('A' for Active; 'I' for Inactive)
REMARK    1  A    between atoms: C_2  and  O_3 
REMARK    2  A    between atoms: P_4  and  O_3 
REMARK    3  A    between atoms: P_4  and  O_5 
REMARK    4  A    between atoms: P_4  and  O_7 
REMARK    5  A    between atoms: O_7  and  P_8 
REMARK    6  A    between atoms: P_8  and  O_9 
REMARK    7  A    between atoms: P_8  and  O_10 
ROOT
HETATM    1  P   UNK N   1      34.182  17.744   8.289  0.00  0.00     0.401 P 
HETATM    2  O   UNK N   1      35.061  19.028   8.292  0.00  0.00    -0.631 OA
ENDROOT
BRANCH   1   3
HETATM    3  O   UNK N   1      34.233  18.189   6.606  0.00  0.00    -0.297 OA
BRANCH   3   4
HETATM    4  C   UNK N   1      33.620  17.131   5.924  0.00  0.00     0.176 C 
HETATM    5  C   UNK N   1      33.036  17.636   4.618  0.00  0.00     0.034 C 
ENDBRANCH   3   4
ENDBRANCH   1   3
BRANCH   1   6
HETATM    6  O   UNK N   1      34.955  16.487   7.371  0.00  0.00    -0.307 OA
HETATM    7  H   UNK N   1      34.542  15.846   6.770  0.00  0.00     0.222 HD
ENDBRANCH   1   6
BRANCH   1   8
HETATM    8  O   UNK N   1      35.636  17.232   9.103  0.00  0.00    -0.195 OA
BRANCH   8   9
HETATM    9  P   UNK N   1      35.089  16.475  10.575  0.00  0.00     0.399 P 
HETATM   10  O   UNK N   1      35.654  15.267   9.776  0.00  0.00    -0.631 OA
BRANCH   9  11
HETATM   11  O   UNK N   1      33.757  15.360  10.543  0.00  0.00    -0.307 OA
HETATM   12  H   UNK N   1      33.366  14.994  11.351  0.00  0.00     0.222 HD
ENDBRANCH   9  11
BRANCH   9  13
HETATM   13  O   UNK N   1      33.737  17.158   9.725  0.00  0.00    -0.307 OA
HETATM   14  H   UNK N   1      33.650  17.339   8.776  0.00  0.00     0.222 HD
ENDBRANCH   9  13
ENDBRANCH   8   9
ENDBRANCH   1   8
TORSDOF 7
ENDMDL
MODEL 2
REMARK VINA RESULT:      -4.2      3.394      4.804
REMARK  7 active torsions:
REMARK  status: ('A' for Active; 'I' for Inactive)
REMARK    1  A    between atoms: C_2  and  O_3 
REMARK    2  A    between atoms: P_4  and  O_3 
REMARK    3  A    between atoms: P_4  and  O_5 
REMARK    4  A    between atoms: P_4  and  O_7 
REMARK    5  A    between atoms: O_7  and  P_8 
REMARK    6  A    between atoms: P_8  and  O_9 
REMARK    7  A    between atoms: P_8  and  O_10 
ROOT
HETATM    1  P   UNK N   1      35.431  15.790   9.855  0.00  0.00     0.401 P 
HETATM    2  O   UNK N   1      36.475  16.427  10.816  0.00  0.00    -0.631 OA
ENDROOT
BRANCH   1   3
HETATM    3  O   UNK N   1      34.972  15.154  11.410  0.00  0.00    -0.297 OA
BRANCH   3   4
HETATM    4  C   UNK N   1      36.042  14.343  11.808  0.00  0.00     0.176 C 
HETATM    5  C   UNK N   1      35.833  13.891  13.241  0.00  0.00     0.034 C 
ENDBRANCH   3   4
ENDBRANCH   1   3
BRANCH   1   6
HETATM    6  O   UNK N   1      33.829  16.329  10.262  0.00  0.00    -0.307 OA
HETATM    7  H   UNK N   1      33.503  16.633  11.124  0.00  0.00     0.222 HD
ENDBRANCH   1   6
BRANCH   1   8
HETATM    8  O   UNK N   1      35.286  17.496   9.529  0.00  0.00    -0.195 OA
BRANCH   8   9
HETATM    9  P   UNK N   1      34.046  17.622   8.310  0.00  0.00     0.399 P 
HETATM   10  O   UNK N   1      34.905  16.439   7.782  0.00  0.00    -0.631 OA
BRANCH   9  11
HETATM   11  O   UNK N   1      34.454  18.115   6.695  0.00  0.00    -0.307 OA
HETATM   12  H   UNK N   1      35.067  17.611   6.137  0.00  0.00     0.222 HD
ENDBRANCH   9  11
BRANCH   9  13
HETATM   13  O   UNK N   1      35.000  19.074   8.334  0.00  0.00    -0.307 OA
HETATM   14  H   UNK N   1      35.367  19.566   7.583  0.00  0.00     0.222 HD
ENDBRANCH   9  13
ENDBRANCH   8   9
ENDBRANCH   1   8
TORSDOF 7
ENDMDL
MODEL 3
REMARK VINA RESULT:      -4.1      2.872      4.029
REMARK  7 active torsions:
REMARK  status: ('A' for Active; 'I' for Inactive)
REMARK    1  A    between atoms: C_2  and  O_3 
REMARK    2  A    between atoms: P_4  and  O_3 
REMARK    3  A    between atoms: P_4  and  O_5 
REMARK    4  A    between atoms: P_4  and  O_7 
REMARK    5  A    between atoms: O_7  and  P_8 
REMARK    6  A    between atoms: P_8  and  O_9 
REMARK    7  A    between atoms: P_8  and  O_10 
ROOT
HETATM    1  P   UNK N   1      31.789  16.222   7.846  0.00  0.00     0.401 P 
HETATM    2  O   UNK N   1      32.184  15.409   9.112  0.00  0.00    -0.631 OA
ENDROOT
BRANCH   1   3
HETATM    3  O   UNK N   1      30.690  16.822   9.056  0.00  0.00    -0.297 OA
BRANCH   3   4
HETATM    4  C   UNK N   1      29.731  17.560   8.350  0.00  0.00     0.176 C 
HETATM    5  C   UNK N   1      28.618  17.980   9.292  0.00  0.00     0.034 C 
ENDBRANCH   3   4
ENDBRANCH   1   3
BRANCH   1   6
HETATM    6  O   UNK N   1      32.071  17.917   8.107  0.00  0.00    -0.307 OA
HETATM    7  H   UNK N   1      31.712  18.480   8.812  0.00  0.00     0.222 HD
ENDBRANCH   1   6
BRANCH   1   8
HETATM    8  O   UNK N   1      33.501  16.517   7.995  0.00  0.00    -0.195 OA
BRANCH   8   9
HETATM    9  P   UNK N   1      33.655  18.250   8.098  0.00  0.00     0.399 P 
HETATM   10  O   UNK N   1      34.531  17.918   6.857  0.00  0.00    -0.631 OA
BRANCH   9  11
HETATM   11  O   UNK N   1      35.187  18.970   8.486  0.00  0.00    -0.307 OA
HETATM   12  H   UNK N   1      35.756  18.632   9.196  0.00  0.00     0.222 HD
ENDBRANCH   9  11
BRANCH   9  13
HETATM   13  O   UNK N   1      34.340  17.511   9.513  0.00  0.00    -0.307 OA
HETATM   14  H   UNK N   1      34.847  17.930  10.227  0.00  0.00     0.222 HD
ENDBRANCH   9  13
ENDBRANCH   8   9
ENDBRANCH   1   8
TORSDOF 7
ENDMDL
MODEL 4
REMARK VINA RESULT:      -4.1      4.567      6.118
REMARK  7 active torsions:
REMARK  status: ('A' for Active; 'I' for Inactive)
REMARK    1  A    between atoms: C_2  and  O_3 
REMARK    2  A    between atoms: P_4  and  O_3 
REMARK    3  A    between atoms: P_4  and  O_5 
REMARK    4  A    between atoms: P_4  and  O_7 
REMARK    5  A    between atoms: O_7  and  P_8 
REMARK    6  A    between atoms: P_8  and  O_9 
REMARK    7  A    between atoms: P_8  and  O_10 
ROOT
HETATM    1  P   UNK N   1      35.268  13.385  11.508  0.00  0.00     0.401 P 
HETATM    2  O   UNK N   1      36.748  13.606  11.936  0.00  0.00    -0.631 OA
ENDROOT
BRANCH   1   3
HETATM    3  O   UNK N   1      35.129  13.836  13.185  0.00  0.00    -0.297 OA
BRANCH   3   4
HETATM    4  C   UNK N   1      36.407  13.650  13.725  0.00  0.00     0.176 C 
HETATM    5  C   UNK N   1      36.322  13.634  15.240  0.00  0.00     0.034 C 
ENDBRANCH   3   4
ENDBRANCH   1   3
BRANCH   1   6
HETATM    6  O   UNK N   1      34.374  14.869  11.646  0.00  0.00    -0.307 OA
HETATM    7  H   UNK N   1      34.690  15.773  11.488  0.00  0.00     0.222 HD
ENDBRANCH   1   6
BRANCH   1   8
HETATM    8  O   UNK N   1      35.857  14.536  10.338  0.00  0.00    -0.195 OA
BRANCH   8   9
HETATM    9  P   UNK N   1      35.056  16.034  10.733  0.00  0.00     0.399 P 
HETATM   10  O   UNK N   1      34.808  15.924   9.203  0.00  0.00    -0.631 OA
BRANCH   9  11
HETATM   11  O   UNK N   1      35.667  17.540  10.121  0.00  0.00    -0.307 OA
HETATM   12  H   UNK N   1      36.456  17.969  10.488  0.00  0.00     0.222 HD
ENDBRANCH   9  11
BRANCH   9  13
HETATM   13  O   UNK N   1      36.760  16.176  11.042  0.00  0.00    -0.307 OA
HETATM   14  H   UNK N   1      37.410  15.468  11.172  0.00  0.00     0.222 HD
ENDBRANCH   9  13
ENDBRANCH   8   9
ENDBRANCH   1   8
TORSDOF 7
ENDMDL
MODEL 5
REMARK VINA RESULT:      -4.1      5.744      6.928
REMARK  7 active torsions:
REMARK  status: ('A' for Active; 'I' for Inactive)
REMARK    1  A    between atoms: C_2  and  O_3 
REMARK    2  A    between atoms: P_4  and  O_3 
REMARK    3  A    between atoms: P_4  and  O_5 
REMARK    4  A    between atoms: P_4  and  O_7 
REMARK    5  A    between atoms: O_7  and  P_8 
REMARK    6  A    between atoms: P_8  and  O_9 
REMARK    7  A    between atoms: P_8  and  O_10 
ROOT
HETATM    1  P   UNK N   1      35.988  13.671  12.717  0.00  0.00     0.401 P 
HETATM    2  O   UNK N   1      36.293  14.948  13.553  0.00  0.00    -0.631 OA
ENDROOT
BRANCH   1   3
HETATM    3  O   UNK N   1      35.001  13.457  14.136  0.00  0.00    -0.297 OA
BRANCH   3   4
HETATM    4  C   UNK N   1      35.897  13.448  15.212  0.00  0.00     0.176 C 
HETATM    5  C   UNK N   1      35.156  13.095  16.488  0.00  0.00     0.034 C 
ENDBRANCH   3   4
ENDBRANCH   1   3
BRANCH   1   6
HETATM    6  O   UNK N   1      34.309  13.635  12.266  0.00  0.00    -0.307 OA
HETATM    7  H   UNK N   1      33.791  14.335  11.838  0.00  0.00     0.222 HD
ENDBRANCH   1   6
BRANCH   1   8
HETATM    8  O   UNK N   1      35.650  14.970  11.604  0.00  0.00    -0.195 OA
BRANCH   8   9
HETATM    9  P   UNK N   1      36.540  14.572  10.159  0.00  0.00     0.399 P 
HETATM   10  O   UNK N   1      36.882  13.377  11.092  0.00  0.00    -0.631 OA
BRANCH   9  11
HETATM   11  O   UNK N   1      38.277  14.563  10.175  0.00  0.00    -0.307 OA
HETATM   12  H   UNK N   1      38.803  14.477   9.365  0.00  0.00     0.222 HD
ENDBRANCH   9  11
BRANCH   9  13
HETATM   13  O   UNK N   1      37.155  16.045  10.843  0.00  0.00    -0.307 OA
HETATM   14  H   UNK N   1      36.707  16.901  10.934  0.00  0.00     0.222 HD
ENDBRANCH   9  13
ENDBRANCH   8   9
ENDBRANCH   1   8
TORSDOF 7
ENDMDL
MODEL 6
REMARK VINA RESULT:      -4.0      5.833      7.231
REMARK  7 active torsions:
REMARK  status: ('A' for Active; 'I' for Inactive)
REMARK    1  A    between atoms: C_2  and  O_3 
REMARK    2  A    between atoms: P_4  and  O_3 
REMARK    3  A    between atoms: P_4  and  O_5 
REMARK    4  A    between atoms: P_4  and  O_7 
REMARK    5  A    between atoms: O_7  and  P_8 
REMARK    6  A    between atoms: P_8  and  O_9 
REMARK    7  A    between atoms: P_8  and  O_10 
ROOT
HETATM    1  P   UNK N   1      35.736  13.569  13.403  0.00  0.00     0.401 P 
HETATM    2  O   UNK N   1      36.804  12.482  13.088  0.00  0.00    -0.631 OA
ENDROOT
BRANCH   1   3
HETATM    3  O   UNK N   1      36.786  13.636  14.791  0.00  0.00    -0.297 OA
BRANCH   3   4
HETATM    4  C   UNK N   1      36.293  12.668  15.675  0.00  0.00     0.176 C 
HETATM    5  C   UNK N   1      34.875  13.025  16.081  0.00  0.00     0.034 C 
ENDBRANCH   3   4
ENDBRANCH   1   3
BRANCH   1   6
HETATM    6  O   UNK N   1      36.482  15.136  13.501  0.00  0.00    -0.307 OA
HETATM    7  H   UNK N   1      36.701  15.739  12.773  0.00  0.00     0.222 HD
ENDBRANCH   1   6
BRANCH   1   8
HETATM    8  O   UNK N   1      36.331  14.035  11.832  0.00  0.00    -0.195 OA
BRANCH   8   9
HETATM    9  P   UNK N   1      34.924  14.063  10.804  0.00  0.00     0.399 P 
HETATM   10  O   UNK N   1      35.396  15.543  10.751  0.00  0.00    -0.631 OA
BRANCH   9  11
HETATM   11  O   UNK N   1      33.509  14.951  11.281  0.00  0.00    -0.307 OA
HETATM   12  H   UNK N   1      33.505  15.917  11.363  0.00  0.00     0.222 HD
ENDBRANCH   9  11
BRANCH   9  13
HETATM   13  O   UNK N   1      34.460  13.654  12.427  0.00  0.00    -0.307 OA
HETATM   14  H   UNK N   1      34.853  13.957  13.261  0.00  0.00     0.222 HD
ENDBRANCH   9  13
ENDBRANCH   8   9
ENDBRANCH   1   8
TORSDOF 7
ENDMDL
MODEL 7
REMARK VINA RESULT:      -4.0     12.360     13.354
REMARK  7 active torsions:
REMARK  status: ('A' for Active; 'I' for Inactive)
REMARK    1  A    between atoms: C_2  and  O_3 
REMARK    2  A    between atoms: P_4  and  O_3 
REMARK    3  A    between atoms: P_4  and  O_5 
REMARK    4  A    between atoms: P_4  and  O_7 
REMARK    5  A    between atoms: O_7  and  P_8 
REMARK    6  A    between atoms: P_8  and  O_9 
REMARK    7  A    between atoms: P_8  and  O_10 
ROOT
HETATM    1  P   UNK N   1      30.194  22.935  -2.840  0.00  0.00     0.401 P 
HETATM    2  O   UNK N   1      30.220  23.177  -1.303  0.00  0.00    -0.631 OA
ENDROOT
BRANCH   1   3
HETATM    3  O   UNK N   1      30.618  24.620  -2.715  0.00  0.00    -0.297 OA
BRANCH   3   4
HETATM    4  C   UNK N   1      30.204  25.196  -3.922  0.00  0.00     0.176 C 
HETATM    5  C   UNK N   1      30.679  26.635  -3.988  0.00  0.00     0.034 C 
ENDBRANCH   3   4
ENDBRANCH   1   3
BRANCH   1   6
HETATM    6  O   UNK N   1      31.773  23.196  -3.517  0.00  0.00    -0.307 OA
HETATM    7  H   UNK N   1      32.605  22.754  -3.281  0.00  0.00     0.222 HD
ENDBRANCH   1   6
BRANCH   1   8
HETATM    8  O   UNK N   1      31.292  21.711  -2.260  0.00  0.00    -0.195 OA
BRANCH   8   9
HETATM    9  P   UNK N   1      32.420  21.459  -3.564  0.00  0.00     0.399 P 
HETATM   10  O   UNK N   1      31.272  20.477  -3.931  0.00  0.00    -0.631 OA
BRANCH   9  11
HETATM   11  O   UNK N   1      33.237  19.935  -3.732  0.00  0.00    -0.307 OA
HETATM   12  H   UNK N   1      32.774  19.086  -3.657  0.00  0.00     0.222 HD
ENDBRANCH   9  11
BRANCH   9  13
HETATM   13  O   UNK N   1      33.142  20.980  -2.059  0.00  0.00    -0.307 OA
HETATM   14  H   UNK N   1      33.367  21.535  -1.295  0.00  0.00     0.222 HD
ENDBRANCH   9  13
ENDBRANCH   8   9
ENDBRANCH   1   8
TORSDOF 7
ENDMDL
MODEL 8
REMARK VINA RESULT:      -4.0      1.878      2.218
REMARK  7 active torsions:
REMARK  status: ('A' for Active; 'I' for Inactive)
REMARK    1  A    between atoms: C_2  and  O_3 
REMARK    2  A    between atoms: P_4  and  O_3 
REMARK    3  A    between atoms: P_4  and  O_5 
REMARK    4  A    between atoms: P_4  and  O_7 
REMARK    5  A    between atoms: O_7  and  P_8 
REMARK    6  A    between atoms: P_8  and  O_9 
REMARK    7  A    between atoms: P_8  and  O_10 
ROOT
HETATM    1  P   UNK N   1      34.705  16.485   9.721  0.00  0.00     0.401 P 
HETATM    2  O   UNK N   1      35.556  17.785   9.810  0.00  0.00    -0.631 OA
ENDROOT
BRANCH   1   3
HETATM    3  O   UNK N   1      34.721  17.058   8.076  0.00  0.00    -0.297 OA
BRANCH   3   4
HETATM    4  C   UNK N   1      33.995  18.254   8.094  0.00  0.00     0.176 C 
HETATM    5  C   UNK N   1      32.510  17.948   8.150  0.00  0.00     0.034 C 
ENDBRANCH   3   4
ENDBRANCH   1   3
BRANCH   1   6
HETATM    6  O   UNK N   1      35.493  15.320   8.700  0.00  0.00    -0.307 OA
HETATM    7  H   UNK N   1      35.084  14.607   8.183  0.00  0.00     0.222 HD
ENDBRANCH   1   6
BRANCH   1   8
HETATM    8  O   UNK N   1      36.183  15.947  10.475  0.00  0.00    -0.195 OA
BRANCH   8   9
HETATM    9  P   UNK N   1      35.681  15.158  11.946  0.00  0.00     0.399 P 
HETATM   10  O   UNK N   1      36.305  13.984  11.142  0.00  0.00    -0.631 OA
BRANCH   9  11
HETATM   11  O   UNK N   1      34.408  13.977  11.914  0.00  0.00    -0.307 OA
HETATM   12  H   UNK N   1      34.584  13.023  11.921  0.00  0.00     0.222 HD
ENDBRANCH   9  11
BRANCH   9  13
HETATM   13  O   UNK N   1      34.292  15.773  11.103  0.00  0.00    -0.307 OA
HETATM   14  H   UNK N   1      33.356  15.694  11.344  0.00  0.00     0.222 HD
ENDBRANCH   9  13
ENDBRANCH   8   9
ENDBRANCH   1   8
TORSDOF 7
ENDMDL
MODEL 9
REMARK VINA RESULT:      -4.0     13.401     14.257
REMARK  7 active torsions:
REMARK  status: ('A' for Active; 'I' for Inactive)
REMARK    1  A    between atoms: C_2  and  O_3 
REMARK    2  A    between atoms: P_4  and  O_3 
REMARK    3  A    between atoms: P_4  and  O_5 
REMARK    4  A    between atoms: P_4  and  O_7 
REMARK    5  A    between atoms: O_7  and  P_8 
REMARK    6  A    between atoms: P_8  and  O_9 
REMARK    7  A    between atoms: P_8  and  O_10 
ROOT
HETATM    1  P   UNK N   1      20.802  14.369   8.962  0.00  0.00     0.401 P 
HETATM    2  O   UNK N   1      20.249  13.935   7.574  0.00  0.00    -0.631 OA
ENDROOT
BRANCH   1   3
HETATM    3  O   UNK N   1      19.236  15.128   8.909  0.00  0.00    -0.297 OA
BRANCH   3   4
HETATM    4  C   UNK N   1      19.493  16.497   8.765  0.00  0.00     0.176 C 
HETATM    5  C   UNK N   1      18.277  17.292   9.204  0.00  0.00     0.034 C 
ENDBRANCH   3   4
ENDBRANCH   1   3
BRANCH   1   6
HETATM    6  O   UNK N   1      19.800  13.738  10.233  0.00  0.00    -0.307 OA
HETATM    7  H   UNK N   1      19.289  12.912  10.237  0.00  0.00     0.222 HD
ENDBRANCH   1   6
BRANCH   1   8
HETATM    8  O   UNK N   1      20.932  12.631   9.004  0.00  0.00    -0.195 OA
BRANCH   8   9
HETATM    9  P   UNK N   1      22.608  12.309   9.356  0.00  0.00     0.399 P 
HETATM   10  O   UNK N   1      21.893  11.715  10.602  0.00  0.00    -0.631 OA
BRANCH   9  11
HETATM   11  O   UNK N   1      23.393  13.108  10.683  0.00  0.00    -0.307 OA
HETATM   12  H   UNK N   1      23.791  13.988  10.598  0.00  0.00     0.222 HD
ENDBRANCH   9  11
BRANCH   9  13
HETATM   13  O   UNK N   1      22.339  14.023   9.286  0.00  0.00    -0.307 OA
HETATM   14  H   UNK N   1      22.312  14.598   8.505  0.00  0.00     0.222 HD
ENDBRANCH   9  13
ENDBRANCH   8   9
ENDBRANCH   1   8
TORSDOF 7
ENDMDL
