REMARK  1 active torsions:
REMARK  status: ('A' for Active; 'I' for Inactive)
REMARK       I    between atoms: C_4  and  N_5 
REMARK    1  A    between atoms: C_8  and  O_9 
ROOT
HETATM    1  C   UNK N   1      -0.647   0.805  -0.000  0.00  0.00     0.166 A 
HETATM    2  N   UNK N   1       0.491   1.534  -0.000  0.00  0.00    -0.173 N 
ATOM      3  HN  UNK N   1       0.464   2.554  -0.000  1.00  0.00     0.186 HD
HETATM    4  C   UNK N   1       1.680   0.856   0.000  0.00  0.00     0.679 A 
HETATM    5  N   UNK N   1       2.891   1.574   0.000  0.00  0.00    -0.234 N 
HETATM    6  N   UNK N   1       1.699  -0.522   0.000  0.00  0.00    -0.168 N 
ATOM      7  HN  UNK N   1       2.593  -1.013   0.000  1.00  0.00     0.186 HD
HETATM    8  C   UNK N   1       0.535  -1.241  -0.000  0.00  0.00     0.187 A 
HETATM    9  C   UNK N   1      -0.653  -0.537  -0.000  0.00  0.00     0.143 A 
HETATM   10  N   UNK N   1      -1.928  -0.951   0.000  0.00  0.00    -0.277 N 
HETATM   11  N   UNK N   1      -2.674   0.154   0.000  0.00  0.00    -0.020 NA
HETATM   12  N   UNK N   1      -1.909   1.247  -0.000  0.00  0.00    -0.267 N 
ATOM     13  HN  UNK N   1      -2.221   2.217  -0.000  1.00  0.00     0.186 HD
HETATM   14  H   UNK N   1       3.749   1.092   0.000  0.00  0.00     0.174 HD
HETATM   15  H   UNK N   1       2.879   2.558   0.000  0.00  0.00     0.174 HD
HETATM   16  H   UNK N   1      -2.248  -1.882   0.000  0.00  0.00     0.184 HD
ENDROOT
BRANCH   8  17
HETATM   17  O   UNK N   1       0.554  -2.585   0.000  0.00  0.00    -0.344 OA
HETATM   18  H   UNK N   1      -0.251  -3.065   0.000  0.00  0.00     0.219 HD
ENDBRANCH   8  17
TORSDOF 1
