MODEL 1
REMARK VINA RESULT:      -4.7      0.000      0.000
REMARK  0 active torsions:
REMARK  status: ('A' for Active; 'I' for Inactive)
REMARK       I    between atoms: N_1  and  C_2 
ROOT
HETATM    1  N   UNK N   1      34.870  17.208  10.278  0.00  0.00    -0.395 N 
HETATM    2  C   UNK N   1      34.073  17.222   9.066  0.00  0.00     0.282 A 
HETATM    3  N   UNK N   1      32.651  17.049   8.984  0.00  0.00    -0.351 N 
ATOM      4  HN  UNK N   1      31.997  16.894   9.751  1.00  0.00     0.163 HD
HETATM    5  C   UNK N   1      32.384  17.133   7.737  0.00  0.00     0.057 A 
HETATM    6  C   UNK N   1      31.129  17.029   7.150  0.00  0.00     0.031 A 
HETATM    7  C   UNK N   1      31.055  17.152   5.750  0.00  0.00     0.002 A 
HETATM    8  C   UNK N   1      32.224  17.372   4.983  0.00  0.00     0.002 A 
HETATM    9  C   UNK N   1      33.482  17.473   5.607  0.00  0.00     0.031 A 
HETATM   10  C   UNK N   1      33.524  17.348   6.989  0.00  0.00     0.057 A 
HETATM   11  N   UNK N   1      34.563  17.410   7.729  0.00  0.00    -0.351 N 
ATOM     12  HN  UNK N   1      35.529  17.560   7.435  1.00  0.00     0.163 HD
HETATM   13  H   UNK N   1      34.419  17.066  11.182  0.00  0.00     0.153 HD
HETATM   14  H   UNK N   1      35.879  17.341  10.226  0.00  0.00     0.153 HD
ENDROOT
TORSDOF 0
ENDMDL
MODEL 2
REMARK VINA RESULT:      -4.6     15.610     16.948
REMARK  0 active torsions:
REMARK  status: ('A' for Active; 'I' for Inactive)
REMARK       I    between atoms: N_1  and  C_2 
ROOT
HETATM    1  N   UNK N   1      25.916  22.541  -6.669  0.00  0.00    -0.395 N 
HETATM    2  C   UNK N   1      25.879  23.821  -5.988  0.00  0.00     0.282 A 
HETATM    3  N   UNK N   1      26.405  24.103  -4.683  0.00  0.00    -0.351 N 
ATOM      4  HN  UNK N   1      26.877  23.458  -4.049  1.00  0.00     0.163 HD
HETATM    5  C   UNK N   1      26.154  25.341  -4.491  0.00  0.00     0.057 A 
HETATM    6  C   UNK N   1      26.472  26.086  -3.362  0.00  0.00     0.031 A 
HETATM    7  C   UNK N   1      26.103  27.443  -3.354  0.00  0.00     0.002 A 
HETATM    8  C   UNK N   1      25.433  28.014  -4.462  0.00  0.00     0.002 A 
HETATM    9  C   UNK N   1      25.124  27.235  -5.593  0.00  0.00     0.031 A 
HETATM   10  C   UNK N   1      25.501  25.898  -5.573  0.00  0.00     0.057 A 
HETATM   11  N   UNK N   1      25.310  25.037  -6.496  0.00  0.00    -0.351 N 
ATOM     12  HN  UNK N   1      24.853  25.183  -7.397  1.00  0.00     0.163 HD
HETATM   13  H   UNK N   1      26.347  21.735  -6.215  0.00  0.00     0.153 HD
HETATM   14  H   UNK N   1      25.511  22.447  -7.600  0.00  0.00     0.153 HD
ENDROOT
TORSDOF 0
ENDMDL
MODEL 3
REMARK VINA RESULT:      -4.6      9.704     10.993
REMARK  0 active torsions:
REMARK  status: ('A' for Active; 'I' for Inactive)
REMARK       I    between atoms: N_1  and  C_2 
ROOT
HETATM    1  N   UNK N   1      22.905  11.563  13.161  0.00  0.00    -0.395 N 
HETATM    2  C   UNK N   1      23.246  11.832  11.777  0.00  0.00     0.282 A 
HETATM    3  N   UNK N   1      22.589  11.294  10.620  0.00  0.00    -0.351 N 
ATOM      4  HN  UNK N   1      21.796  10.652  10.597  1.00  0.00     0.163 HD
HETATM    5  C   UNK N   1      23.215  11.795   9.626  0.00  0.00     0.057 A 
HETATM    6  C   UNK N   1      22.948  11.572   8.281  0.00  0.00     0.031 A 
HETATM    7  C   UNK N   1      23.763  12.228   7.340  0.00  0.00     0.002 A 
HETATM    8  C   UNK N   1      24.812  13.079   7.764  0.00  0.00     0.002 A 
HETATM    9  C   UNK N   1      25.058  13.286   9.134  0.00  0.00     0.031 A 
HETATM   10  C   UNK N   1      24.237  12.626  10.040  0.00  0.00     0.057 A 
HETATM   11  N   UNK N   1      24.304  12.686  11.314  0.00  0.00    -0.351 N 
ATOM     12  HN  UNK N   1      24.963  13.223  11.878  1.00  0.00     0.163 HD
HETATM   13  H   UNK N   1      22.130  10.936  13.381  0.00  0.00     0.153 HD
HETATM   14  H   UNK N   1      23.438  11.999  13.912  0.00  0.00     0.153 HD
ENDROOT
TORSDOF 0
ENDMDL
MODEL 4
REMARK VINA RESULT:      -4.5      4.946      5.684
REMARK  0 active torsions:
REMARK  status: ('A' for Active; 'I' for Inactive)
REMARK       I    between atoms: N_1  and  C_2 
ROOT
HETATM    1  N   UNK N   1      28.572  17.447   9.627  0.00  0.00    -0.395 N 
HETATM    2  C   UNK N   1      28.273  18.169   8.406  0.00  0.00     0.282 A 
HETATM    3  N   UNK N   1      27.531  19.394   8.304  0.00  0.00    -0.351 N 
ATOM      4  HN  UNK N   1      27.110  19.931   9.063  1.00  0.00     0.163 HD
HETATM    5  C   UNK N   1      27.514  19.663   7.056  0.00  0.00     0.057 A 
HETATM    6  C   UNK N   1      26.911  20.760   6.452  0.00  0.00     0.031 A 
HETATM    7  C   UNK N   1      27.011  20.867   5.053  0.00  0.00     0.002 A 
HETATM    8  C   UNK N   1      27.704  19.888   4.302  0.00  0.00     0.002 A 
HETATM    9  C   UNK N   1      28.305  18.787   4.942  0.00  0.00     0.031 A 
HETATM   10  C   UNK N   1      28.190  18.707   6.324  0.00  0.00     0.057 A 
HETATM   11  N   UNK N   1      28.664  17.791   7.077  0.00  0.00    -0.351 N 
ATOM     12  HN  UNK N   1      29.202  16.971   6.795  1.00  0.00     0.163 HD
HETATM   13  H   UNK N   1      28.244  17.805  10.524  0.00  0.00     0.153 HD
HETATM   14  H   UNK N   1      29.109  16.581   9.588  0.00  0.00     0.153 HD
ENDROOT
TORSDOF 0
ENDMDL
MODEL 5
REMARK VINA RESULT:      -4.5      2.072      2.986
REMARK  0 active torsions:
REMARK  status: ('A' for Active; 'I' for Inactive)
REMARK       I    between atoms: N_1  and  C_2 
ROOT
HETATM    1  N   UNK N   1      36.129  15.581  11.971  0.00  0.00    -0.395 N 
HETATM    2  C   UNK N   1      35.591  15.962  10.680  0.00  0.00     0.282 A 
HETATM    3  N   UNK N   1      35.596  15.161   9.488  0.00  0.00    -0.351 N 
ATOM      4  HN  UNK N   1      35.973  14.220   9.373  1.00  0.00     0.163 HD
HETATM    5  C   UNK N   1      35.026  15.886   8.605  0.00  0.00     0.057 A 
HETATM    6  C   UNK N   1      34.791  15.545   7.278  0.00  0.00     0.031 A 
HETATM    7  C   UNK N   1      34.144  16.497   6.469  0.00  0.00     0.002 A 
HETATM    8  C   UNK N   1      33.752  17.748   7.000  0.00  0.00     0.002 A 
HETATM    9  C   UNK N   1      34.003  18.065   8.348  0.00  0.00     0.031 A 
HETATM   10  C   UNK N   1      34.643  17.107   9.124  0.00  0.00     0.057 A 
HETATM   11  N   UNK N   1      34.955  17.209  10.357  0.00  0.00    -0.351 N 
ATOM     12  HN  UNK N   1      34.789  18.002  10.978  1.00  0.00     0.163 HD
HETATM   13  H   UNK N   1      36.563  14.666  12.092  0.00  0.00     0.153 HD
HETATM   14  H   UNK N   1      36.074  16.228  12.757  0.00  0.00     0.153 HD
ENDROOT
TORSDOF 0
ENDMDL
MODEL 6
REMARK VINA RESULT:      -4.3     12.683     13.683
REMARK  0 active torsions:
REMARK  status: ('A' for Active; 'I' for Inactive)
REMARK       I    between atoms: N_1  and  C_2 
ROOT
HETATM    1  N   UNK N   1      20.480  21.217   0.299  0.00  0.00    -0.395 N 
HETATM    2  C   UNK N   1      20.590  20.226   1.352  0.00  0.00     0.282 A 
HETATM    3  N   UNK N   1      20.243  18.837   1.249  0.00  0.00    -0.351 N 
ATOM      4  HN  UNK N   1      19.873  18.346   0.434  1.00  0.00     0.163 HD
HETATM    5  C   UNK N   1      20.499  18.350   2.402  0.00  0.00     0.057 A 
HETATM    6  C   UNK N   1      20.327  17.030   2.801  0.00  0.00     0.031 A 
HETATM    7  C   UNK N   1      20.673  16.702   4.125  0.00  0.00     0.002 A 
HETATM    8  C   UNK N   1      21.176  17.690   5.005  0.00  0.00     0.002 A 
HETATM    9  C   UNK N   1      21.340  19.020   4.571  0.00  0.00     0.031 A 
HETATM   10  C   UNK N   1      20.990  19.315   3.260  0.00  0.00     0.057 A 
HETATM   11  N   UNK N   1      21.066  20.453   2.688  0.00  0.00    -0.351 N 
ATOM     12  HN  UNK N   1      21.393  21.332   3.091  1.00  0.00     0.163 HD
HETATM   13  H   UNK N   1      20.127  20.947  -0.620  0.00  0.00     0.153 HD
HETATM   14  H   UNK N   1      20.755  22.182   0.477  0.00  0.00     0.153 HD
ENDROOT
TORSDOF 0
ENDMDL
MODEL 7
REMARK VINA RESULT:      -4.3     15.578     16.819
REMARK  0 active torsions:
REMARK  status: ('A' for Active; 'I' for Inactive)
REMARK       I    between atoms: N_1  and  C_2 
ROOT
HETATM    1  N   UNK N   1      25.964  29.597  -3.324  0.00  0.00    -0.395 N 
HETATM    2  C   UNK N   1      25.996  28.248  -3.855  0.00  0.00     0.282 A 
HETATM    3  N   UNK N   1      26.467  27.077  -3.171  0.00  0.00    -0.351 N 
ATOM      4  HN  UNK N   1      26.844  27.019  -2.224  1.00  0.00     0.163 HD
HETATM    5  C   UNK N   1      26.311  26.125  -4.007  0.00  0.00     0.057 A 
HETATM    6  C   UNK N   1      26.625  24.786  -3.807  0.00  0.00     0.031 A 
HETATM    7  C   UNK N   1      26.371  23.895  -4.866  0.00  0.00     0.002 A 
HETATM    8  C   UNK N   1      25.818  24.360  -6.083  0.00  0.00     0.002 A 
HETATM    9  C   UNK N   1      25.511  25.722  -6.257  0.00  0.00     0.031 A 
HETATM   10  C   UNK N   1      25.771  26.579  -5.195  0.00  0.00     0.057 A 
HETATM   11  N   UNK N   1      25.562  27.838  -5.161  0.00  0.00    -0.351 N 
ATOM     12  HN  UNK N   1      25.172  28.424  -5.901  1.00  0.00     0.163 HD
HETATM   13  H   UNK N   1      26.299  29.780  -2.378  0.00  0.00     0.153 HD
HETATM   14  H   UNK N   1      25.608  30.361  -3.896  0.00  0.00     0.153 HD
ENDROOT
TORSDOF 0
ENDMDL
MODEL 8
REMARK VINA RESULT:      -4.3     10.556     12.072
REMARK  0 active torsions:
REMARK  status: ('A' for Active; 'I' for Inactive)
REMARK       I    between atoms: N_1  and  C_2 
ROOT
HETATM    1  N   UNK N   1      20.501  14.441   7.506  0.00  0.00    -0.395 N 
HETATM    2  C   UNK N   1      21.367  13.831   8.496  0.00  0.00     0.282 A 
HETATM    3  N   UNK N   1      20.953  13.230   9.732  0.00  0.00    -0.351 N 
ATOM      4  HN  UNK N   1      20.003  13.143  10.094  1.00  0.00     0.163 HD
HETATM    5  C   UNK N   1      22.035  12.828  10.279  0.00  0.00     0.057 A 
HETATM    6  C   UNK N   1      22.155  12.177  11.500  0.00  0.00     0.031 A 
HETATM    7  C   UNK N   1      23.448  11.819  11.921  0.00  0.00     0.002 A 
HETATM    8  C   UNK N   1      24.576  12.116  11.119  0.00  0.00     0.002 A 
HETATM    9  C   UNK N   1      24.424  12.777   9.885  0.00  0.00     0.031 A 
HETATM   10  C   UNK N   1      23.135  13.119   9.495  0.00  0.00     0.057 A 
HETATM   11  N   UNK N   1      22.797  13.717   8.420  0.00  0.00    -0.351 N 
ATOM     12  HN  UNK N   1      23.409  14.043   7.670  1.00  0.00     0.163 HD
HETATM   13  H   UNK N   1      19.492  14.469   7.660  0.00  0.00     0.153 HD
HETATM   14  H   UNK N   1      20.899  14.841   6.657  0.00  0.00     0.153 HD
ENDROOT
TORSDOF 0
ENDMDL
MODEL 9
REMARK VINA RESULT:      -4.2      9.936     11.406
REMARK  0 active torsions:
REMARK  status: ('A' for Active; 'I' for Inactive)
REMARK       I    between atoms: N_1  and  C_2 
ROOT
HETATM    1  N   UNK N   1      35.562  12.803  20.316  0.00  0.00    -0.395 N 
HETATM    2  C   UNK N   1      35.291  12.358  18.963  0.00  0.00     0.282 A 
HETATM    3  N   UNK N   1      35.209  10.995  18.518  0.00  0.00    -0.351 N 
ATOM      4  HN  UNK N   1      35.328  10.150  19.077  1.00  0.00     0.163 HD
HETATM    5  C   UNK N   1      34.956  11.074  17.269  0.00  0.00     0.057 A 
HETATM    6  C   UNK N   1      34.784  10.013  16.389  0.00  0.00     0.031 A 
HETATM    7  C   UNK N   1      34.510  10.322  15.044  0.00  0.00     0.002 A 
HETATM    8  C   UNK N   1      34.415  11.668  14.619  0.00  0.00     0.002 A 
HETATM    9  C   UNK N   1      34.593  12.723  15.533  0.00  0.00     0.031 A 
HETATM   10  C   UNK N   1      34.863  12.388  16.854  0.00  0.00     0.057 A 
HETATM   11  N   UNK N   1      35.054  13.198  17.822  0.00  0.00    -0.351 N 
ATOM     12  HN  UNK N   1      35.041  14.218  17.792  1.00  0.00     0.163 HD
HETATM   13  H   UNK N   1      35.716  12.119  21.056  0.00  0.00     0.153 HD
HETATM   14  H   UNK N   1      35.598  13.800  20.526  0.00  0.00     0.153 HD
ENDROOT
TORSDOF 0
ENDMDL
