MODEL 1
REMARK VINA RESULT:      -4.5      0.000      0.000
REMARK  1 active torsions:
REMARK  status: ('A' for Active; 'I' for Inactive)
REMARK    1  A    between atoms: C_6  and  O_7 
ROOT
HETATM    1  C   UNK N   1      20.329  12.051  11.716  0.00  0.00     0.048 C 
HETATM    2  C   UNK N   1      21.619  12.354  11.044  0.00  0.00    -0.059 A 
HETATM    3  C   UNK N   1      21.628  13.021   9.816  0.00  0.00     0.007 A 
HETATM    4  C   UNK N   1      22.842  13.307   9.184  0.00  0.00     0.003 A 
HETATM    5  C   UNK N   1      24.047  12.924   9.782  0.00  0.00     0.036 A 
HETATM    6  C   UNK N   1      24.038  12.256  11.011  0.00  0.00     0.066 A 
HETATM    7  C   UNK N   1      22.824  11.971  11.643  0.00  0.00     0.043 A 
ENDROOT
BRANCH   6   8
HETATM    8  O   UNK N   1      25.194  11.889  11.585  0.00  0.00    -0.361 OA
HETATM    9  H   UNK N   1      25.996  11.947  11.104  0.00  0.00     0.217 HD
ENDBRANCH   6   8
TORSDOF 1
ENDMDL
MODEL 2
REMARK VINA RESULT:      -4.4     19.448     20.855
REMARK  1 active torsions:
REMARK  status: ('A' for Active; 'I' for Inactive)
REMARK    1  A    between atoms: C_6  and  O_7 
ROOT
HETATM    1  C   UNK N   1      27.149  24.212  -3.292  0.00  0.00     0.048 C 
HETATM    2  C   UNK N   1      26.426  25.329  -3.953  0.00  0.00    -0.059 A 
HETATM    3  C   UNK N   1      25.843  25.138  -5.208  0.00  0.00     0.007 A 
HETATM    4  C   UNK N   1      25.162  26.189  -5.831  0.00  0.00     0.003 A 
HETATM    5  C   UNK N   1      25.067  27.432  -5.195  0.00  0.00     0.036 A 
HETATM    6  C   UNK N   1      25.651  27.623  -3.939  0.00  0.00     0.066 A 
HETATM    7  C   UNK N   1      26.330  26.572  -3.317  0.00  0.00     0.043 A 
ENDROOT
BRANCH   6   8
HETATM    8  O   UNK N   1      25.559  28.815  -3.329  0.00  0.00    -0.361 OA
HETATM    9  H   UNK N   1      26.335  29.261  -3.051  0.00  0.00     0.217 HD
ENDBRANCH   6   8
TORSDOF 1
ENDMDL
MODEL 3
REMARK VINA RESULT:      -4.4      2.005      2.792
REMARK  1 active torsions:
REMARK  status: ('A' for Active; 'I' for Inactive)
REMARK    1  A    between atoms: C_6  and  O_7 
ROOT
HETATM    1  C   UNK N   1      23.200  11.842  13.125  0.00  0.00     0.048 C 
HETATM    2  C   UNK N   1      23.198  12.085  11.660  0.00  0.00    -0.059 A 
HETATM    3  C   UNK N   1      24.404  12.107  10.953  0.00  0.00     0.007 A 
HETATM    4  C   UNK N   1      24.402  12.335   9.573  0.00  0.00     0.003 A 
HETATM    5  C   UNK N   1      23.192  12.541   8.902  0.00  0.00     0.036 A 
HETATM    6  C   UNK N   1      21.986  12.519   9.609  0.00  0.00     0.066 A 
HETATM    7  C   UNK N   1      21.988  12.291  10.988  0.00  0.00     0.043 A 
ENDROOT
BRANCH   6   8
HETATM    8  O   UNK N   1      20.825  12.717   8.965  0.00  0.00    -0.361 OA
HETATM    9  H   UNK N   1      20.157  12.060   8.990  0.00  0.00     0.217 HD
ENDBRANCH   6   8
TORSDOF 1
ENDMDL
MODEL 4
REMARK VINA RESULT:      -4.3      0.763      2.232
REMARK  1 active torsions:
REMARK  status: ('A' for Active; 'I' for Inactive)
REMARK    1  A    between atoms: C_6  and  O_7 
ROOT
HETATM    1  C   UNK N   1      21.470  13.200   8.487  0.00  0.00     0.048 C 
HETATM    2  C   UNK N   1      22.035  12.757   9.788  0.00  0.00    -0.059 A 
HETATM    3  C   UNK N   1      21.182  12.349  10.818  0.00  0.00     0.007 A 
HETATM    4  C   UNK N   1      21.714  11.932  12.042  0.00  0.00     0.003 A 
HETATM    5  C   UNK N   1      23.099  11.924  12.235  0.00  0.00     0.036 A 
HETATM    6  C   UNK N   1      23.952  12.332  11.204  0.00  0.00     0.066 A 
HETATM    7  C   UNK N   1      23.420  12.749   9.981  0.00  0.00     0.043 A 
ENDROOT
BRANCH   6   8
HETATM    8  O   UNK N   1      25.281  12.325  11.389  0.00  0.00    -0.361 OA
HETATM    9  H   UNK N   1      25.837  11.883  10.778  0.00  0.00     0.217 HD
ENDBRANCH   6   8
TORSDOF 1
ENDMDL
MODEL 5
REMARK VINA RESULT:      -4.2      1.236      2.780
REMARK  1 active torsions:
REMARK  status: ('A' for Active; 'I' for Inactive)
REMARK    1  A    between atoms: C_6  and  O_7 
ROOT
HETATM    1  C   UNK N   1      24.744  13.164   9.169  0.00  0.00     0.048 C 
HETATM    2  C   UNK N   1      23.525  12.845   9.957  0.00  0.00    -0.059 A 
HETATM    3  C   UNK N   1      22.264  13.198   9.467  0.00  0.00     0.007 A 
HETATM    4  C   UNK N   1      21.117  12.898  10.208  0.00  0.00     0.003 A 
HETATM    5  C   UNK N   1      21.233  12.245  11.440  0.00  0.00     0.036 A 
HETATM    6  C   UNK N   1      22.495  11.892  11.930  0.00  0.00     0.066 A 
HETATM    7  C   UNK N   1      23.641  12.192  11.188  0.00  0.00     0.043 A 
ENDROOT
BRANCH   6   8
HETATM    8  O   UNK N   1      22.606  11.266  13.111  0.00  0.00    -0.361 OA
HETATM    9  H   UNK N   1      22.805  11.755  13.885  0.00  0.00     0.217 HD
ENDBRANCH   6   8
TORSDOF 1
ENDMDL
MODEL 6
REMARK VINA RESULT:      -4.2     14.011     14.618
REMARK  1 active torsions:
REMARK  status: ('A' for Active; 'I' for Inactive)
REMARK    1  A    between atoms: C_6  and  O_7 
ROOT
HETATM    1  C   UNK N   1      35.303   9.585  17.006  0.00  0.00     0.048 C 
HETATM    2  C   UNK N   1      35.261  11.005  17.442  0.00  0.00    -0.059 A 
HETATM    3  C   UNK N   1      35.132  12.023  16.494  0.00  0.00     0.007 A 
HETATM    4  C   UNK N   1      35.093  13.360  16.904  0.00  0.00     0.003 A 
HETATM    5  C   UNK N   1      35.183  13.675  18.264  0.00  0.00     0.036 A 
HETATM    6  C   UNK N   1      35.313  12.656  19.212  0.00  0.00     0.066 A 
HETATM    7  C   UNK N   1      35.352  11.320  18.802  0.00  0.00     0.043 A 
ENDROOT
BRANCH   6   8
HETATM    8  O   UNK N   1      35.400  12.958  20.517  0.00  0.00    -0.361 OA
HETATM    9  H   UNK N   1      34.782  12.601  21.124  0.00  0.00     0.217 HD
ENDBRANCH   6   8
TORSDOF 1
ENDMDL
MODEL 7
REMARK VINA RESULT:      -4.2     21.707     22.981
REMARK  1 active torsions:
REMARK  status: ('A' for Active; 'I' for Inactive)
REMARK    1  A    between atoms: C_6  and  O_7 
ROOT
HETATM    1  C   UNK N   1      28.444  28.909  -7.090  0.00  0.00     0.048 C 
HETATM    2  C   UNK N   1      27.290  28.238  -6.437  0.00  0.00    -0.059 A 
HETATM    3  C   UNK N   1      26.634  27.188  -7.085  0.00  0.00     0.007 A 
HETATM    4  C   UNK N   1      25.548  26.557  -6.470  0.00  0.00     0.003 A 
HETATM    5  C   UNK N   1      25.119  26.978  -5.207  0.00  0.00     0.036 A 
HETATM    6  C   UNK N   1      25.776  28.029  -4.559  0.00  0.00     0.066 A 
HETATM    7  C   UNK N   1      26.861  28.659  -5.174  0.00  0.00     0.043 A 
ENDROOT
BRANCH   6   8
HETATM    8  O   UNK N   1      25.364  28.433  -3.348  0.00  0.00    -0.361 OA
HETATM    9  H   UNK N   1      25.665  29.249  -2.997  0.00  0.00     0.217 HD
ENDBRANCH   6   8
TORSDOF 1
ENDMDL
MODEL 8
REMARK VINA RESULT:      -4.2      1.300      2.145
REMARK  1 active torsions:
REMARK  status: ('A' for Active; 'I' for Inactive)
REMARK    1  A    between atoms: C_6  and  O_7 
ROOT
HETATM    1  C   UNK N   1      21.122  13.761   9.015  0.00  0.00     0.048 C 
HETATM    2  C   UNK N   1      22.211  13.149   9.819  0.00  0.00    -0.059 A 
HETATM    3  C   UNK N   1      23.531  13.203   9.362  0.00  0.00     0.007 A 
HETATM    4  C   UNK N   1      24.557  12.628  10.119  0.00  0.00     0.003 A 
HETATM    5  C   UNK N   1      24.261  11.998  11.332  0.00  0.00     0.036 A 
HETATM    6  C   UNK N   1      22.940  11.944  11.788  0.00  0.00     0.066 A 
HETATM    7  C   UNK N   1      21.915  12.520  11.032  0.00  0.00     0.043 A 
ENDROOT
BRANCH   6   8
HETATM    8  O   UNK N   1      22.655  11.340  12.952  0.00  0.00    -0.361 OA
HETATM    9  H   UNK N   1      23.073  11.623  13.742  0.00  0.00     0.217 HD
ENDBRANCH   6   8
TORSDOF 1
ENDMDL
MODEL 9
REMARK VINA RESULT:      -4.1     12.512     13.567
REMARK  1 active torsions:
REMARK  status: ('A' for Active; 'I' for Inactive)
REMARK    1  A    between atoms: C_6  and  O_7 
ROOT
HETATM    1  C   UNK N   1      35.272  13.847  18.219  0.00  0.00     0.048 C 
HETATM    2  C   UNK N   1      35.045  12.717  17.282  0.00  0.00    -0.059 A 
HETATM    3  C   UNK N   1      35.200  11.400  17.725  0.00  0.00     0.007 A 
HETATM    4  C   UNK N   1      34.987  10.336  16.843  0.00  0.00     0.003 A 
HETATM    5  C   UNK N   1      34.618  10.591  15.518  0.00  0.00     0.036 A 
HETATM    6  C   UNK N   1      34.463  11.909  15.076  0.00  0.00     0.066 A 
HETATM    7  C   UNK N   1      34.676  12.972  15.957  0.00  0.00     0.043 A 
ENDROOT
BRANCH   6   8
HETATM    8  O   UNK N   1      34.109  12.153  13.805  0.00  0.00    -0.361 OA
HETATM    9  H   UNK N   1      34.663  11.877  13.101  0.00  0.00     0.217 HD
ENDBRANCH   6   8
TORSDOF 1
ENDMDL
