MODEL 1
REMARK VINA RESULT:      -7.5      0.000      0.000
REMARK  1 active torsions:
REMARK  status: ('A' for Active; 'I' for Inactive)
REMARK    1  A    between atoms: C_20  and  O_2 
ROOT
HETATM    1  O   UNK N   1      32.387  21.315  -2.186  0.00  0.00    -0.395 OA
HETATM    2  C   UNK N   1      31.550  23.475  -3.950  0.00  0.00     0.001 C 
HETATM    3  C   UNK N   1      30.867  22.121  -3.879  0.00  0.00    -0.014 C 
HETATM    4  C   UNK N   1      30.630  24.633  -4.430  0.00  0.00    -0.002 C 
HETATM    5  C   UNK N   1      29.136  24.318  -4.119  0.00  0.00    -0.002 C 
HETATM    6  C   UNK N   1      29.731  22.199  -2.821  0.00  0.00     0.012 C 
HETATM    7  C   UNK N   1      32.036  21.200  -3.536  0.00  0.00     0.126 C 
HETATM    8  C   UNK N   1      29.033  23.599  -2.758  0.00  0.00     0.006 C 
HETATM    9  C   UNK N   1      32.828  23.228  -4.724  0.00  0.00     0.008 C 
HETATM   10  C   UNK N   1      28.221  25.551  -4.334  0.00  0.00     0.019 C 
HETATM   11  C   UNK N   1      33.190  21.771  -4.383  0.00  0.00     0.033 C 
HETATM   12  C   UNK N   1      31.103  25.889  -3.672  0.00  0.00     0.033 C 
HETATM   13  C   UNK N   1      30.309  21.665  -5.233  0.00  0.00     0.018 C 
HETATM   14  C   UNK N   1      28.829  26.880  -3.936  0.00  0.00    -0.077 C 
HETATM   15  C   UNK N   1      26.866  25.363  -3.631  0.00  0.00     0.012 C 
HETATM   16  C   UNK N   1      30.123  27.024  -3.644  0.00  0.00    -0.023 C 
HETATM   17  C   UNK N   1      27.957  28.095  -4.006  0.00  0.00     0.065 C 
HETATM   18  C   UNK N   1      25.968  26.590  -3.800  0.00  0.00     0.032 C 
HETATM   19  C   UNK N   1      26.658  27.839  -3.251  0.00  0.00     0.122 C 
HETATM   20  H   UNK N   1      32.687  21.522  -1.288  0.00  0.00     0.210 HD
ENDROOT
BRANCH  19  21
HETATM   21  O   UNK N   1      25.816  28.939  -3.401  0.00  0.00    -0.395 OA
HETATM   22  H   UNK N   1      25.536  29.217  -4.287  0.00  0.00     0.210 HD
ENDBRANCH  19  21
TORSDOF 1
ENDMDL
MODEL 2
REMARK VINA RESULT:      -7.2     13.039     15.651
REMARK  1 active torsions:
REMARK  status: ('A' for Active; 'I' for Inactive)
REMARK    1  A    between atoms: C_20  and  O_2 
ROOT
HETATM    1  O   UNK N   1      34.116  13.784  11.848  0.00  0.00    -0.395 OA
HETATM    2  C   UNK N   1      34.768  15.802   9.852  0.00  0.00     0.001 C 
HETATM    3  C   UNK N   1      35.320  14.387   9.845  0.00  0.00    -0.014 C 
HETATM    4  C   UNK N   1      34.713  16.476   8.453  0.00  0.00    -0.002 C 
HETATM    5  C   UNK N   1      34.613  15.405   7.326  0.00  0.00    -0.002 C 
HETATM    6  C   UNK N   1      34.367  13.493   9.003  0.00  0.00     0.012 C 
HETATM    7  C   UNK N   1      35.387  14.071  11.338  0.00  0.00     0.126 C 
HETATM    8  C   UNK N   1      33.712  14.244   7.796  0.00  0.00     0.006 C 
HETATM    9  C   UNK N   1      35.538  16.515  10.945  0.00  0.00     0.008 C 
HETATM   10  C   UNK N   1      34.286  16.034   5.947  0.00  0.00     0.019 C 
HETATM   11  C   UNK N   1      35.865  15.400  11.954  0.00  0.00     0.033 C 
HETATM   12  C   UNK N   1      33.467  17.383   8.470  0.00  0.00     0.033 C 
HETATM   13  C   UNK N   1      36.750  14.309   9.297  0.00  0.00     0.018 C 
HETATM   14  C   UNK N   1      33.327  17.205   5.986  0.00  0.00    -0.077 C 
HETATM   15  C   UNK N   1      33.774  14.970   4.962  0.00  0.00     0.012 C 
HETATM   16  C   UNK N   1      32.968  17.807   7.122  0.00  0.00    -0.023 C 
HETATM   17  C   UNK N   1      32.878  17.783   4.680  0.00  0.00     0.065 C 
HETATM   18  C   UNK N   1      33.409  15.584   3.608  0.00  0.00     0.032 C 
HETATM   19  C   UNK N   1      32.347  16.671   3.783  0.00  0.00     0.122 C 
HETATM   20  H   UNK N   1      33.211  13.727  12.191  0.00  0.00     0.210 HD
ENDROOT
BRANCH  19  21
HETATM   21  O   UNK N   1      32.020  17.204   2.537  0.00  0.00    -0.395 OA
HETATM   22  H   UNK N   1      31.113  17.128   2.200  0.00  0.00     0.210 HD
ENDBRANCH  19  21
TORSDOF 1
ENDMDL
MODEL 3
REMARK VINA RESULT:      -7.1      2.111      6.844
REMARK  1 active torsions:
REMARK  status: ('A' for Active; 'I' for Inactive)
REMARK    1  A    between atoms: C_20  and  O_2 
ROOT
HETATM    1  O   UNK N   1      26.376  23.836  -3.161  0.00  0.00    -0.395 OA
HETATM    2  C   UNK N   1      28.658  23.382  -4.911  0.00  0.00     0.001 C 
HETATM    3  C   UNK N   1      28.692  24.270  -3.681  0.00  0.00    -0.014 C 
HETATM    4  C   UNK N   1      30.037  22.786  -5.311  0.00  0.00    -0.002 C 
HETATM    5  C   UNK N   1      30.977  22.686  -4.073  0.00  0.00    -0.002 C 
HETATM    6  C   UNK N   1      29.127  23.407  -2.464  0.00  0.00     0.012 C 
HETATM    7  C   UNK N   1      27.263  24.806  -3.643  0.00  0.00     0.126 C 
HETATM    8  C   UNK N   1      30.154  22.284  -2.831  0.00  0.00     0.006 C 
HETATM    9  C   UNK N   1      27.913  24.189  -5.955  0.00  0.00     0.008 C 
HETATM   10  C   UNK N   1      32.252  21.856  -4.370  0.00  0.00     0.019 C 
HETATM   11  C   UNK N   1      26.944  25.054  -5.129  0.00  0.00     0.033 C 
HETATM   12  C   UNK N   1      29.740  21.392  -5.897  0.00  0.00     0.033 C 
HETATM   13  C   UNK N   1      29.627  25.475  -3.844  0.00  0.00     0.018 C 
HETATM   14  C   UNK N   1      32.044  20.663  -5.280  0.00  0.00    -0.077 C 
HETATM   15  C   UNK N   1      32.937  21.410  -3.068  0.00  0.00     0.012 C 
HETATM   16  C   UNK N   1      30.916  20.464  -5.964  0.00  0.00    -0.023 C 
HETATM   17  C   UNK N   1      33.208  19.751  -5.511  0.00  0.00     0.065 C 
HETATM   18  C   UNK N   1      34.175  20.554  -3.347  0.00  0.00     0.032 C 
HETATM   19  C   UNK N   1      33.800  19.323  -4.174  0.00  0.00     0.122 C 
HETATM   20  H   UNK N   1      25.778  23.101  -2.956  0.00  0.00     0.210 HD
ENDROOT
BRANCH  19  21
HETATM   21  O   UNK N   1      34.939  18.553  -4.401  0.00  0.00    -0.395 OA
HETATM   22  H   UNK N   1      34.924  17.600  -4.220  0.00  0.00     0.210 HD
ENDBRANCH  19  21
TORSDOF 1
ENDMDL
MODEL 4
REMARK VINA RESULT:      -7.0     21.473     24.119
REMARK  1 active torsions:
REMARK  status: ('A' for Active; 'I' for Inactive)
REMARK    1  A    between atoms: C_20  and  O_2 
ROOT
HETATM    1  O   UNK N   1      38.339  13.053  11.663  0.00  0.00    -0.395 OA
HETATM    2  C   UNK N   1      36.233  13.496  13.624  0.00  0.00     0.001 C 
HETATM    3  C   UNK N   1      36.346  12.251  12.763  0.00  0.00    -0.014 C 
HETATM    4  C   UNK N   1      35.485  13.279  14.970  0.00  0.00    -0.002 C 
HETATM    5  C   UNK N   1      35.588  11.793  15.427  0.00  0.00    -0.002 C 
HETATM    6  C   UNK N   1      37.194  11.198  13.530  0.00  0.00     0.012 C 
HETATM    7  C   UNK N   1      36.972  12.810  11.487  0.00  0.00     0.126 C 
HETATM    8  C   UNK N   1      36.987  11.242  15.081  0.00  0.00     0.006 C 
HETATM    9  C   UNK N   1      35.705  14.568  12.693  0.00  0.00     0.008 C 
HETATM   10  C   UNK N   1      35.093  11.593  16.882  0.00  0.00     0.019 C 
HETATM   11  C   UNK N   1      36.261  14.166  11.315  0.00  0.00     0.033 C 
HETATM   12  C   UNK N   1      36.163  14.220  15.985  0.00  0.00     0.033 C 
HETATM   13  C   UNK N   1      34.981  11.665  12.382  0.00  0.00     0.018 C 
HETATM   14  C   UNK N   1      35.431  12.719  17.837  0.00  0.00    -0.077 C 
HETATM   15  C   UNK N   1      35.588  10.254  17.454  0.00  0.00     0.012 C 
HETATM   16  C   UNK N   1      35.907  13.896  17.426  0.00  0.00    -0.023 C 
HETATM   17  C   UNK N   1      35.087  12.535  19.282  0.00  0.00     0.065 C 
HETATM   18  C   UNK N   1      35.141  10.061  18.906  0.00  0.00     0.032 C 
HETATM   19  C   UNK N   1      35.650  11.209  19.779  0.00  0.00     0.122 C 
HETATM   20  H   UNK N   1      39.245  13.335  11.863  0.00  0.00     0.210 HD
ENDROOT
BRANCH  19  21
HETATM   21  O   UNK N   1      35.244  11.003  21.097  0.00  0.00    -0.395 OA
HETATM   22  H   UNK N   1      35.815  11.284  21.829  0.00  0.00     0.210 HD
ENDBRANCH  19  21
TORSDOF 1
ENDMDL
MODEL 5
REMARK VINA RESULT:      -6.8     10.124     11.865
REMARK  1 active torsions:
REMARK  status: ('A' for Active; 'I' for Inactive)
REMARK    1  A    between atoms: C_20  and  O_2 
ROOT
HETATM    1  O   UNK N   1      28.790  18.534   3.805  0.00  0.00    -0.395 OA
HETATM    2  C   UNK N   1      26.174  17.920   4.924  0.00  0.00     0.001 C 
HETATM    3  C   UNK N   1      26.757  19.319   4.841  0.00  0.00    -0.014 C 
HETATM    4  C   UNK N   1      24.620  17.874   4.944  0.00  0.00    -0.002 C 
HETATM    5  C   UNK N   1      24.019  19.132   4.250  0.00  0.00    -0.002 C 
HETATM    6  C   UNK N   1      26.317  19.956   3.493  0.00  0.00     0.012 C 
HETATM    7  C   UNK N   1      28.252  19.043   4.992  0.00  0.00     0.126 C 
HETATM    8  C   UNK N   1      24.888  19.514   3.033  0.00  0.00     0.006 C 
HETATM    9  C   UNK N   1      26.911  17.257   6.070  0.00  0.00     0.008 C 
HETATM   10  C   UNK N   1      22.494  18.996   4.010  0.00  0.00     0.019 C 
HETATM   11  C   UNK N   1      28.295  17.931   6.056  0.00  0.00     0.033 C 
HETATM   12  C   UNK N   1      24.227  16.585   4.196  0.00  0.00     0.033 C 
HETATM   13  C   UNK N   1      26.337  20.210   6.017  0.00  0.00     0.018 C 
HETATM   14  C   UNK N   1      22.023  17.607   3.632  0.00  0.00    -0.077 C 
HETATM   15  C   UNK N   1      22.005  20.017   2.969  0.00  0.00     0.012 C 
HETATM   16  C   UNK N   1      22.806  16.530   3.721  0.00  0.00    -0.023 C 
HETATM   17  C   UNK N   1      20.581  17.433   3.271  0.00  0.00     0.065 C 
HETATM   18  C   UNK N   1      20.507  19.868   2.693  0.00  0.00     0.032 C 
HETATM   19  C   UNK N   1      20.191  18.452   2.206  0.00  0.00     0.122 C 
HETATM   20  H   UNK N   1      29.097  18.059   3.017  0.00  0.00     0.210 HD
ENDROOT
BRANCH  19  21
HETATM   21  O   UNK N   1      18.827  18.345   1.947  0.00  0.00    -0.395 OA
HETATM   22  H   UNK N   1      18.521  18.012   1.088  0.00  0.00     0.210 HD
ENDBRANCH  19  21
TORSDOF 1
ENDMDL
MODEL 6
REMARK VINA RESULT:      -6.6     14.157     17.355
REMARK  1 active torsions:
REMARK  status: ('A' for Active; 'I' for Inactive)
REMARK    1  A    between atoms: C_20  and  O_2 
ROOT
HETATM    1  O   UNK N   1      30.832  15.873   6.095  0.00  0.00    -0.395 OA
HETATM    2  C   UNK N   1      33.609  16.106   6.937  0.00  0.00     0.001 C 
HETATM    3  C   UNK N   1      32.454  16.831   7.603  0.00  0.00    -0.014 C 
HETATM    4  C   UNK N   1      34.831  15.857   7.865  0.00  0.00    -0.002 C 
HETATM    5  C   UNK N   1      34.391  15.807   9.359  0.00  0.00    -0.002 C 
HETATM    6  C   UNK N   1      31.911  15.937   8.754  0.00  0.00     0.012 C 
HETATM    7  C   UNK N   1      31.506  17.054   6.427  0.00  0.00     0.126 C 
HETATM    8  C   UNK N   1      33.023  15.100   9.470  0.00  0.00     0.006 C 
HETATM    9  C   UNK N   1      33.851  16.861   5.646  0.00  0.00     0.008 C 
HETATM   10  C   UNK N   1      35.523  15.296  10.286  0.00  0.00     0.019 C 
HETATM   11  C   UNK N   1      32.461  17.405   5.271  0.00  0.00     0.033 C 
HETATM   12  C   UNK N   1      35.434  14.511   7.418  0.00  0.00     0.033 C 
HETATM   13  C   UNK N   1      32.848  18.213   8.140  0.00  0.00     0.018 C 
HETATM   14  C   UNK N   1      36.390  14.203   9.700  0.00  0.00    -0.077 C 
HETATM   15  C   UNK N   1      34.963  14.849  11.647  0.00  0.00     0.012 C 
HETATM   16  C   UNK N   1      36.347  13.859   8.412  0.00  0.00    -0.023 C 
HETATM   17  C   UNK N   1      37.426  13.583  10.586  0.00  0.00     0.065 C 
HETATM   18  C   UNK N   1      36.065  14.305  12.559  0.00  0.00     0.032 C 
HETATM   19  C   UNK N   1      36.781  13.130  11.891  0.00  0.00     0.122 C 
HETATM   20  H   UNK N   1      30.491  15.012   5.807  0.00  0.00     0.210 HD
ENDROOT
BRANCH  19  21
HETATM   21  O   UNK N   1      37.768  12.642  12.745  0.00  0.00    -0.395 OA
HETATM   22  H   UNK N   1      37.521  12.108  13.516  0.00  0.00     0.210 HD
ENDBRANCH  19  21
TORSDOF 1
ENDMDL
MODEL 7
REMARK VINA RESULT:      -6.6     22.410     24.765
REMARK  1 active torsions:
REMARK  status: ('A' for Active; 'I' for Inactive)
REMARK    1  A    between atoms: C_20  and  O_2 
ROOT
HETATM    1  O   UNK N   1      33.810   8.820  11.699  0.00  0.00    -0.395 OA
HETATM    2  C   UNK N   1      35.559   9.167  14.001  0.00  0.00     0.001 C 
HETATM    3  C   UNK N   1      35.465  10.149  12.847  0.00  0.00    -0.014 C 
HETATM    4  C   UNK N   1      36.019   9.798  15.345  0.00  0.00    -0.002 C 
HETATM    5  C   UNK N   1      35.667  11.315  15.393  0.00  0.00    -0.002 C 
HETATM    6  C   UNK N   1      34.377  11.206  13.190  0.00  0.00     0.012 C 
HETATM    7  C   UNK N   1      35.150   9.224  11.674  0.00  0.00     0.126 C 
HETATM    8  C   UNK N   1      34.301  11.549  14.715  0.00  0.00     0.006 C 
HETATM    9  C   UNK N   1      36.366   8.005  13.458  0.00  0.00     0.008 C 
HETATM   10  C   UNK N   1      35.861  11.916  16.809  0.00  0.00     0.019 C 
HETATM   11  C   UNK N   1      36.030   7.991  11.957  0.00  0.00     0.033 C 
HETATM   12  C   UNK N   1      35.279   9.020  16.451  0.00  0.00     0.033 C 
HETATM   13  C   UNK N   1      36.801  10.837  12.541  0.00  0.00     0.018 C 
HETATM   14  C   UNK N   1      35.485  11.000  17.954  0.00  0.00    -0.077 C 
HETATM   15  C   UNK N   1      35.122  13.258  16.946  0.00  0.00     0.012 C 
HETATM   16  C   UNK N   1      35.229   9.701  17.786  0.00  0.00    -0.023 C 
HETATM   17  C   UNK N   1      35.536  11.559  19.342  0.00  0.00     0.065 C 
HETATM   18  C   UNK N   1      35.272  13.843  18.352  0.00  0.00     0.032 C 
HETATM   19  C   UNK N   1      34.746  12.861  19.400  0.00  0.00     0.122 C 
HETATM   20  H   UNK N   1      32.921   8.455  11.825  0.00  0.00     0.210 HD
ENDROOT
BRANCH  19  21
HETATM   21  O   UNK N   1      34.878  13.422  20.669  0.00  0.00    -0.395 OA
HETATM   22  H   UNK N   1      35.000  14.379  20.765  0.00  0.00     0.210 HD
ENDBRANCH  19  21
TORSDOF 1
ENDMDL
MODEL 8
REMARK VINA RESULT:      -6.5      1.777      2.867
REMARK  1 active torsions:
REMARK  status: ('A' for Active; 'I' for Inactive)
REMARK    1  A    between atoms: C_20  and  O_2 
ROOT
HETATM    1  O   UNK N   1      33.154  22.903  -5.232  0.00  0.00    -0.395 OA
HETATM    2  C   UNK N   1      30.286  22.542  -4.882  0.00  0.00     0.001 C 
HETATM    3  C   UNK N   1      31.202  23.150  -3.835  0.00  0.00    -0.014 C 
HETATM    4  C   UNK N   1      28.805  23.002  -4.783  0.00  0.00    -0.002 C 
HETATM    5  C   UNK N   1      28.703  24.401  -4.105  0.00  0.00    -0.002 C 
HETATM    6  C   UNK N   1      31.242  24.689  -4.051  0.00  0.00     0.012 C 
HETATM    7  C   UNK N   1      32.510  22.405  -4.094  0.00  0.00     0.126 C 
HETATM    8  C   UNK N   1      29.886  25.282  -4.561  0.00  0.00     0.006 C 
HETATM    9  C   UNK N   1      30.564  21.054  -4.826  0.00  0.00     0.008 C 
HETATM   10  C   UNK N   1      27.284  25.012  -4.230  0.00  0.00     0.019 C 
HETATM   11  C   UNK N   1      32.039  20.970  -4.396  0.00  0.00     0.033 C 
HETATM   12  C   UNK N   1      28.279  23.047  -6.231  0.00  0.00     0.033 C 
HETATM   13  C   UNK N   1      30.766  22.823  -2.401  0.00  0.00     0.018 C 
HETATM   14  C   UNK N   1      26.579  24.737  -5.542  0.00  0.00    -0.077 C 
HETATM   15  C   UNK N   1      27.306  26.524  -3.954  0.00  0.00     0.012 C 
HETATM   16  C   UNK N   1      27.030  23.851  -6.433  0.00  0.00    -0.023 C 
HETATM   17  C   UNK N   1      25.255  25.396  -5.775  0.00  0.00     0.065 C 
HETATM   18  C   UNK N   1      25.917  27.147  -4.114  0.00  0.00     0.032 C 
HETATM   19  C   UNK N   1      25.376  26.894  -5.521  0.00  0.00     0.122 C 
HETATM   20  H   UNK N   1      33.498  23.178  -6.096  0.00  0.00     0.210 HD
ENDROOT
BRANCH  19  21
HETATM   21  O   UNK N   1      24.119  27.483  -5.648  0.00  0.00    -0.395 OA
HETATM   22  H   UNK N   1      23.517  27.508  -4.888  0.00  0.00     0.210 HD
ENDBRANCH  19  21
TORSDOF 1
ENDMDL
MODEL 9
REMARK VINA RESULT:      -6.5     23.971     26.630
REMARK  1 active torsions:
REMARK  status: ('A' for Active; 'I' for Inactive)
REMARK    1  A    between atoms: C_20  and  O_2 
ROOT
HETATM    1  O   UNK N   1      38.256  11.938  14.326  0.00  0.00    -0.395 OA
HETATM    2  C   UNK N   1      35.973  12.018  16.131  0.00  0.00     0.001 C 
HETATM    3  C   UNK N   1      36.070  11.107  14.920  0.00  0.00    -0.014 C 
HETATM    4  C   UNK N   1      35.043  11.489  17.258  0.00  0.00    -0.002 C 
HETATM    5  C   UNK N   1      34.938   9.936  17.207  0.00  0.00    -0.002 C 
HETATM    6  C   UNK N   1      36.704   9.760  15.368  0.00  0.00     0.012 C 
HETATM    7  C   UNK N   1      36.906  11.951  13.960  0.00  0.00     0.126 C 
HETATM    8  C   UNK N   1      36.308   9.338  16.823  0.00  0.00     0.006 C 
HETATM    9  C   UNK N   1      35.678  13.391  15.563  0.00  0.00     0.008 C 
HETATM   10  C   UNK N   1      34.245   9.353  18.465  0.00  0.00     0.019 C 
HETATM   11  C   UNK N   1      36.361  13.375  14.184  0.00  0.00     0.033 C 
HETATM   12  C   UNK N   1      35.676  11.960  18.583  0.00  0.00     0.033 C 
HETATM   13  C   UNK N   1      34.713  10.863  14.250  0.00  0.00     0.018 C 
HETATM   14  C   UNK N   1      34.569  10.062  19.763  0.00  0.00    -0.077 C 
HETATM   15  C   UNK N   1      34.527   7.848  18.604  0.00  0.00     0.012 C 
HETATM   16  C   UNK N   1      35.208  11.233  19.807  0.00  0.00    -0.023 C 
HETATM   17  C   UNK N   1      34.027   9.478  21.031  0.00  0.00     0.065 C 
HETATM   18  C   UNK N   1      33.882   7.268  19.866  0.00  0.00     0.032 C 
HETATM   19  C   UNK N   1      34.387   8.000  21.110  0.00  0.00     0.122 C 
HETATM   20  H   UNK N   1      39.153  12.016  14.686  0.00  0.00     0.210 HD
ENDROOT
BRANCH  19  21
HETATM   21  O   UNK N   1      33.799   7.444  22.245  0.00  0.00    -0.395 OA
HETATM   22  H   UNK N   1      33.836   7.918  23.091  0.00  0.00     0.210 HD
ENDBRANCH  19  21
TORSDOF 1
ENDMDL
