MODEL 1
REMARK VINA RESULT:      -7.2      0.000      0.000
REMARK  14 active torsions:
REMARK  status: ('A' for Active; 'I' for Inactive)
REMARK    1  A    between atoms: C_5  and  C_2 
REMARK    2  A    between atoms: O_27  and  C_2 
REMARK    3  A    between atoms: C_6  and  O_19 
REMARK    4  A    between atoms: N_11  and  C_8 
REMARK    5  A    between atoms: C_10  and  N_18 
REMARK    6  A    between atoms: P_31  and  O_20 
REMARK    7  A    between atoms: P_31  and  O_21 
REMARK    8  A    between atoms: P_32  and  O_23 
REMARK    9  A    between atoms: P_33  and  O_25 
REMARK   10  A    between atoms: P_32  and  O_27 
REMARK   11  A    between atoms: P_31  and  O_29 
REMARK   12  A    between atoms: P_33  and  O_29 
REMARK   13  A    between atoms: P_32  and  O_30 
REMARK   14  A    between atoms: P_33  and  O_30 
ROOT
HETATM    1  C   UNK N   1      35.823  13.373   8.750  0.00  0.00     0.070 C 
HETATM    2  C   UNK N   1      34.663  14.312   8.482  0.00  0.00     0.151 C 
HETATM    3  C   UNK N   1      35.098  12.348   9.548  0.00  0.00     0.169 C 
HETATM    4  C   UNK N   1      34.271  13.259  10.448  0.00  0.00     0.259 C 
HETATM    5  O   UNK N   1      33.806  14.299   9.611  0.00  0.00    -0.356 OA
ENDROOT
BRANCH   2   6
HETATM    6  C   UNK N   1      35.167  15.719   8.187  0.00  0.00     0.212 C 
BRANCH   6   7
HETATM    7  O   UNK N   1      34.546  16.656   9.022  0.00  0.00    -0.294 OA
BRANCH   7   8
HETATM    8  P   UNK N   1      34.083  17.979   7.987  0.00  0.00     0.401 P 
HETATM    9  O   UNK N   1      34.932  19.200   8.425  0.00  0.00    -0.631 OA
BRANCH   8  10
HETATM   10  O   UNK N   1      34.498  17.625   6.334  0.00  0.00    -0.307 OA
HETATM   11  H   UNK N   1      34.560  17.484   5.377  0.00  0.00     0.222 HD
ENDBRANCH   8  10
BRANCH   8  12
HETATM   12  O   UNK N   1      32.402  18.389   8.254  0.00  0.00    -0.195 OA
BRANCH  12  13
HETATM   13  P   UNK N   1      31.409  16.956   8.091  0.00  0.00     0.410 P 
HETATM   14  O   UNK N   1      31.953  16.068   6.934  0.00  0.00    -0.631 OA
BRANCH  13  15
HETATM   15  O   UNK N   1      31.460  16.011   9.548  0.00  0.00    -0.307 OA
HETATM   16  H   UNK N   1      32.263  15.650   9.954  0.00  0.00     0.222 HD
ENDBRANCH  13  15
BRANCH  13  17
HETATM   17  O   UNK N   1      29.760  17.434   7.734  0.00  0.00    -0.195 OA
BRANCH  17  18
HETATM   18  P   UNK N   1      29.168  18.377   9.079  0.00  0.00     0.399 P 
HETATM   19  O   UNK N   1      28.804  16.925   9.496  0.00  0.00    -0.631 OA
BRANCH  18  20
HETATM   20  O   UNK N   1      27.467  18.481   9.399  0.00  0.00    -0.307 OA
HETATM   21  H   UNK N   1      27.018  18.348  10.249  0.00  0.00     0.222 HD
ENDBRANCH  18  20
BRANCH  18  22
HETATM   22  O   UNK N   1      28.312  18.808   7.631  0.00  0.00    -0.307 OA
HETATM   23  H   UNK N   1      28.662  19.375   6.927  0.00  0.00     0.222 HD
ENDBRANCH  18  22
ENDBRANCH  17  18
ENDBRANCH  13  17
ENDBRANCH  12  13
ENDBRANCH   8  12
ENDBRANCH   7   8
ENDBRANCH   6   7
ENDBRANCH   2   6
BRANCH   3  24
HETATM   24  O   UNK N   1      35.957  11.490  10.236  0.00  0.00    -0.391 OA
HETATM   25  H   UNK N   1      35.666  10.737  10.774  0.00  0.00     0.210 HD
ENDBRANCH   3  24
BRANCH   4  26
HETATM   26  N   UNK N   1      35.074  13.811  11.556  0.00  0.00    -0.297 N 
HETATM   27  C   UNK N   1      35.689  15.024  11.557  0.00  0.00     0.188 A 
HETATM   28  N   UNK N   1      36.340  15.255  12.731  0.00  0.00    -0.346 N 
HETATM   29  C   UNK N   1      36.119  14.147  13.457  0.00  0.00     0.122 A 
ATOM     30  HN  UNK N   1      36.876  16.081  12.997  1.00  0.00     0.167 HD
HETATM   31  C   UNK N   1      36.531  13.832  14.742  0.00  0.00     0.131 A 
HETATM   32  C   UNK N   1      35.369  13.277  12.753  0.00  0.00     0.142 A 
HETATM   33  N   UNK N   1      36.158  12.623  15.256  0.00  0.00    -0.337 N 
HETATM   34  C   UNK N   1      35.400  11.745  14.518  0.00  0.00     0.183 A 
ATOM     35  HN  UNK N   1      36.447  12.367  16.200  1.00  0.00     0.168 HD
HETATM   36  N   UNK N   1      34.999  12.073  13.251  0.00  0.00    -0.336 N 
ATOM     37  HN  UNK N   1      34.435  11.428  12.696  1.00  0.00     0.168 HD
BRANCH  31  38
HETATM   38  N   UNK N   1      37.303  14.731  15.504  0.00  0.00    -0.383 N 
HETATM   39  H   UNK N   1      38.215  14.493  15.790  0.00  0.00     0.157 HD
HETATM   40  H   UNK N   1      36.926  15.606  15.755  0.00  0.00     0.157 HD
ENDBRANCH  31  38
ENDBRANCH   4  26
TORSDOF 14
ENDMDL
MODEL 2
REMARK VINA RESULT:      -6.9      5.311      8.133
REMARK  14 active torsions:
REMARK  status: ('A' for Active; 'I' for Inactive)
REMARK    1  A    between atoms: C_5  and  C_2 
REMARK    2  A    between atoms: O_27  and  C_2 
REMARK    3  A    between atoms: C_6  and  O_19 
REMARK    4  A    between atoms: N_11  and  C_8 
REMARK    5  A    between atoms: C_10  and  N_18 
REMARK    6  A    between atoms: P_31  and  O_20 
REMARK    7  A    between atoms: P_31  and  O_21 
REMARK    8  A    between atoms: P_32  and  O_23 
REMARK    9  A    between atoms: P_33  and  O_25 
REMARK   10  A    between atoms: P_32  and  O_27 
REMARK   11  A    between atoms: P_31  and  O_29 
REMARK   12  A    between atoms: P_33  and  O_29 
REMARK   13  A    between atoms: P_32  and  O_30 
REMARK   14  A    between atoms: P_33  and  O_30 
ROOT
HETATM    1  C   UNK N   1      33.300  15.104   6.463  0.00  0.00     0.070 C 
HETATM    2  C   UNK N   1      34.364  16.181   6.560  0.00  0.00     0.151 C 
HETATM    3  C   UNK N   1      32.515  15.670   5.333  0.00  0.00     0.169 C 
HETATM    4  C   UNK N   1      32.473  17.134   5.755  0.00  0.00     0.259 C 
HETATM    5  O   UNK N   1      33.770  17.427   6.238  0.00  0.00    -0.356 OA
ENDROOT
BRANCH   2   6
HETATM    6  C   UNK N   1      34.978  16.206   7.954  0.00  0.00     0.212 C 
BRANCH   6   7
HETATM    7  O   UNK N   1      34.603  15.071   8.684  0.00  0.00    -0.294 OA
BRANCH   7   8
HETATM    8  P   UNK N   1      34.799  15.501  10.361  0.00  0.00     0.401 P 
HETATM    9  O   UNK N   1      34.826  17.050  10.419  0.00  0.00    -0.631 OA
BRANCH   8  10
HETATM   10  O   UNK N   1      33.422  14.972  11.285  0.00  0.00    -0.307 OA
HETATM   11  H   UNK N   1      32.766  14.695  11.943  0.00  0.00     0.222 HD
ENDBRANCH   8  10
BRANCH   8  12
HETATM   12  O   UNK N   1      36.347  14.929  10.948  0.00  0.00    -0.195 OA
BRANCH  12  13
HETATM   13  P   UNK N   1      36.133  13.420  11.809  0.00  0.00     0.410 P 
HETATM   14  O   UNK N   1      35.317  12.425  10.932  0.00  0.00    -0.631 OA
BRANCH  13  15
HETATM   15  O   UNK N   1      37.671  12.687  12.145  0.00  0.00    -0.307 OA
HETATM   16  H   UNK N   1      38.506  12.910  11.705  0.00  0.00     0.222 HD
ENDBRANCH  13  15
BRANCH  13  17
HETATM   17  O   UNK N   1      35.266  13.725  13.303  0.00  0.00    -0.195 OA
BRANCH  17  18
HETATM   18  P   UNK N   1      36.297  13.256  14.631  0.00  0.00     0.399 P 
HETATM   19  O   UNK N   1      34.913  13.415  15.317  0.00  0.00    -0.631 OA
BRANCH  18  20
HETATM   20  O   UNK N   1      36.630  14.365  15.921  0.00  0.00    -0.307 OA
HETATM   21  H   UNK N   1      36.038  14.621  16.647  0.00  0.00     0.222 HD
ENDBRANCH  18  20
BRANCH  18  22
HETATM   22  O   UNK N   1      36.819  14.781  13.988  0.00  0.00    -0.307 OA
HETATM   23  H   UNK N   1      37.472  15.365  14.403  0.00  0.00     0.222 HD
ENDBRANCH  18  22
ENDBRANCH  17  18
ENDBRANCH  13  17
ENDBRANCH  12  13
ENDBRANCH   8  12
ENDBRANCH   7   8
ENDBRANCH   6   7
ENDBRANCH   2   6
BRANCH   3  24
HETATM   24  O   UNK N   1      31.258  15.078   5.196  0.00  0.00    -0.391 OA
HETATM   25  H   UNK N   1      30.657  14.890   5.933  0.00  0.00     0.210 HD
ENDBRANCH   3  24
BRANCH   4  26
HETATM   26  N   UNK N   1      31.467  17.373   6.808  0.00  0.00    -0.297 N 
HETATM   27  C   UNK N   1      31.733  17.542   8.131  0.00  0.00     0.188 A 
HETATM   28  N   UNK N   1      30.596  17.761   8.847  0.00  0.00    -0.346 N 
HETATM   29  C   UNK N   1      29.614  17.716   7.933  0.00  0.00     0.122 A 
ATOM     30  HN  UNK N   1      30.510  17.921   9.851  1.00  0.00     0.167 HD
HETATM   31  C   UNK N   1      28.247  17.885   8.090  0.00  0.00     0.131 A 
HETATM   32  C   UNK N   1      30.131  17.475   6.713  0.00  0.00     0.142 A 
HETATM   33  N   UNK N   1      27.458  17.794   6.979  0.00  0.00    -0.337 N 
HETATM   34  C   UNK N   1      28.005  17.539   5.744  0.00  0.00     0.183 A 
ATOM     35  HN  UNK N   1      26.450  17.917   7.067  1.00  0.00     0.168 HD
HETATM   36  N   UNK N   1      29.357  17.377   5.605  0.00  0.00    -0.336 N 
ATOM     37  HN  UNK N   1      29.771  17.188   4.692  1.00  0.00     0.168 HD
BRANCH  31  38
HETATM   38  N   UNK N   1      27.683  18.153   9.353  0.00  0.00    -0.383 N 
HETATM   39  H   UNK N   1      28.258  18.329  10.133  0.00  0.00     0.157 HD
HETATM   40  H   UNK N   1      26.704  18.163   9.457  0.00  0.00     0.157 HD
ENDBRANCH  31  38
ENDBRANCH   4  26
TORSDOF 14
ENDMDL
MODEL 3
REMARK VINA RESULT:      -6.8      3.076      4.583
REMARK  14 active torsions:
REMARK  status: ('A' for Active; 'I' for Inactive)
REMARK    1  A    between atoms: C_5  and  C_2 
REMARK    2  A    between atoms: O_27  and  C_2 
REMARK    3  A    between atoms: C_6  and  O_19 
REMARK    4  A    between atoms: N_11  and  C_8 
REMARK    5  A    between atoms: C_10  and  N_18 
REMARK    6  A    between atoms: P_31  and  O_20 
REMARK    7  A    between atoms: P_31  and  O_21 
REMARK    8  A    between atoms: P_32  and  O_23 
REMARK    9  A    between atoms: P_33  and  O_25 
REMARK   10  A    between atoms: P_32  and  O_27 
REMARK   11  A    between atoms: P_31  and  O_29 
REMARK   12  A    between atoms: P_33  and  O_29 
REMARK   13  A    between atoms: P_32  and  O_30 
REMARK   14  A    between atoms: P_33  and  O_30 
ROOT
HETATM    1  C   UNK N   1      36.852  12.169  13.374  0.00  0.00     0.070 C 
HETATM    2  C   UNK N   1      35.666  12.835  12.704  0.00  0.00     0.151 C 
HETATM    3  C   UNK N   1      36.190  10.902  13.786  0.00  0.00     0.169 C 
HETATM    4  C   UNK N   1      34.875  11.459  14.319  0.00  0.00     0.259 C 
HETATM    5  O   UNK N   1      34.490  12.465  13.402  0.00  0.00    -0.356 OA
ENDROOT
BRANCH   2   6
HETATM    6  C   UNK N   1      35.842  14.348  12.680  0.00  0.00     0.212 C 
BRANCH   6   7
HETATM    7  O   UNK N   1      34.784  14.962  11.997  0.00  0.00    -0.294 OA
BRANCH   7   8
HETATM    8  P   UNK N   1      35.498  15.709  10.595  0.00  0.00     0.401 P 
HETATM    9  O   UNK N   1      34.983  17.171  10.563  0.00  0.00    -0.631 OA
BRANCH   8  10
HETATM   10  O   UNK N   1      37.230  15.774  10.760  0.00  0.00    -0.307 OA
HETATM   11  H   UNK N   1      38.187  15.923  10.711  0.00  0.00     0.222 HD
ENDBRANCH   8  10
BRANCH   8  12
HETATM   12  O   UNK N   1      34.925  14.922   9.139  0.00  0.00    -0.195 OA
BRANCH  12  13
HETATM   13  P   UNK N   1      33.237  15.310   8.881  0.00  0.00     0.410 P 
HETATM   14  O   UNK N   1      32.582  14.227   7.975  0.00  0.00    -0.631 OA
BRANCH  13  15
HETATM   15  O   UNK N   1      32.378  15.323  10.391  0.00  0.00    -0.307 OA
HETATM   16  H   UNK N   1      31.759  14.640  10.689  0.00  0.00     0.222 HD
ENDBRANCH  13  15
BRANCH  13  17
HETATM   17  O   UNK N   1      33.117  16.875   8.100  0.00  0.00    -0.195 OA
BRANCH  17  18
HETATM   18  P   UNK N   1      33.947  16.779   6.568  0.00  0.00     0.399 P 
HETATM   19  O   UNK N   1      34.453  18.130   7.143  0.00  0.00    -0.631 OA
BRANCH  18  20
HETATM   20  O   UNK N   1      33.582  17.901   5.297  0.00  0.00    -0.307 OA
HETATM   21  H   UNK N   1      33.850  17.846   4.366  0.00  0.00     0.222 HD
ENDBRANCH  18  20
BRANCH  18  22
HETATM   22  O   UNK N   1      32.232  16.851   6.308  0.00  0.00    -0.307 OA
HETATM   23  H   UNK N   1      31.733  16.258   5.725  0.00  0.00     0.222 HD
ENDBRANCH  18  22
ENDBRANCH  17  18
ENDBRANCH  13  17
ENDBRANCH  12  13
ENDBRANCH   8  12
ENDBRANCH   7   8
ENDBRANCH   6   7
ENDBRANCH   2   6
BRANCH   3  24
HETATM   24  O   UNK N   1      36.931  10.184  14.727  0.00  0.00    -0.391 OA
HETATM   25  H   UNK N   1      37.787   9.766  14.548  0.00  0.00     0.210 HD
ENDBRANCH   3  24
BRANCH   4  26
HETATM   26  N   UNK N   1      35.028  12.027  15.672  0.00  0.00    -0.297 N 
HETATM   27  C   UNK N   1      35.127  13.352  15.966  0.00  0.00     0.188 A 
HETATM   28  N   UNK N   1      35.242  13.560  17.306  0.00  0.00    -0.346 N 
HETATM   29  C   UNK N   1      35.219  12.327  17.838  0.00  0.00     0.122 A 
ATOM     30  HN  UNK N   1      35.327  14.451  17.796  1.00  0.00     0.167 HD
HETATM   31  C   UNK N   1      35.288  11.932  19.164  0.00  0.00     0.131 A 
HETATM   32  C   UNK N   1      35.101  11.407  16.862  0.00  0.00     0.142 A 
HETATM   33  N   UNK N   1      35.237  10.594  19.438  0.00  0.00    -0.337 N 
HETATM   34  C   UNK N   1      35.125   9.671  18.426  0.00  0.00     0.183 A 
ATOM     35  HN  UNK N   1      35.284  10.277  20.406  1.00  0.00     0.168 HD
HETATM   36  N   UNK N   1      35.055  10.078  17.121  0.00  0.00    -0.336 N 
ATOM     37  HN  UNK N   1      34.971   9.399  16.364  1.00  0.00     0.168 HD
BRANCH  31  38
HETATM   38  N   UNK N   1      35.398  12.875  20.205  0.00  0.00    -0.383 N 
HETATM   39  H   UNK N   1      34.603  13.354  20.535  0.00  0.00     0.157 HD
HETATM   40  H   UNK N   1      36.279  13.058  20.606  0.00  0.00     0.157 HD
ENDBRANCH  31  38
ENDBRANCH   4  26
TORSDOF 14
ENDMDL
MODEL 4
REMARK VINA RESULT:      -6.7      2.720      4.504
REMARK  14 active torsions:
REMARK  status: ('A' for Active; 'I' for Inactive)
REMARK    1  A    between atoms: C_5  and  C_2 
REMARK    2  A    between atoms: O_27  and  C_2 
REMARK    3  A    between atoms: C_6  and  O_19 
REMARK    4  A    between atoms: N_11  and  C_8 
REMARK    5  A    between atoms: C_10  and  N_18 
REMARK    6  A    between atoms: P_31  and  O_20 
REMARK    7  A    between atoms: P_31  and  O_21 
REMARK    8  A    between atoms: P_32  and  O_23 
REMARK    9  A    between atoms: P_33  and  O_25 
REMARK   10  A    between atoms: P_32  and  O_27 
REMARK   11  A    between atoms: P_31  and  O_29 
REMARK   12  A    between atoms: P_33  and  O_29 
REMARK   13  A    between atoms: P_32  and  O_30 
REMARK   14  A    between atoms: P_33  and  O_30 
ROOT
HETATM    1  C   UNK N   1      36.838  12.410  13.486  0.00  0.00     0.070 C 
HETATM    2  C   UNK N   1      35.561  12.856  12.800  0.00  0.00     0.151 C 
HETATM    3  C   UNK N   1      36.402  11.051  13.904  0.00  0.00     0.169 C 
HETATM    4  C   UNK N   1      35.006  11.376  14.422  0.00  0.00     0.259 C 
HETATM    5  O   UNK N   1      34.461  12.293  13.493  0.00  0.00    -0.356 OA
ENDROOT
BRANCH   2   6
HETATM    6  C   UNK N   1      35.473  14.377  12.765  0.00  0.00     0.212 C 
BRANCH   6   7
HETATM    7  O   UNK N   1      36.230  14.895  11.707  0.00  0.00    -0.294 OA
BRANCH   7   8
HETATM    8  P   UNK N   1      35.074  15.476  10.540  0.00  0.00     0.401 P 
HETATM    9  O   UNK N   1      35.259  14.611   9.266  0.00  0.00    -0.631 OA
BRANCH   8  10
HETATM   10  O   UNK N   1      33.452  15.212  11.113  0.00  0.00    -0.307 OA
HETATM   11  H   UNK N   1      32.549  15.244  11.464  0.00  0.00     0.222 HD
ENDBRANCH   8  10
BRANCH   8  12
HETATM   12  O   UNK N   1      35.443  17.132  10.105  0.00  0.00    -0.195 OA
BRANCH  12  13
HETATM   13  P   UNK N   1      34.549  17.580   8.668  0.00  0.00     0.410 P 
HETATM   14  O   UNK N   1      34.877  19.053   8.283  0.00  0.00    -0.631 OA
BRANCH  13  15
HETATM   15  O   UNK N   1      35.005  16.573   7.329  0.00  0.00    -0.307 OA
HETATM   16  H   UNK N   1      34.516  16.493   6.495  0.00  0.00     0.222 HD
ENDBRANCH  13  15
BRANCH  13  17
HETATM   17  O   UNK N   1      32.831  17.429   8.985  0.00  0.00    -0.195 OA
BRANCH  17  18
HETATM   18  P   UNK N   1      32.174  16.265   7.862  0.00  0.00     0.399 P 
HETATM   19  O   UNK N   1      32.101  17.592   7.058  0.00  0.00    -0.631 OA
BRANCH  18  20
HETATM   20  O   UNK N   1      30.507  16.341   7.391  0.00  0.00    -0.307 OA
HETATM   21  H   UNK N   1      30.149  16.346   6.489  0.00  0.00     0.222 HD
ENDBRANCH  18  20
BRANCH  18  22
HETATM   22  O   UNK N   1      31.160  16.369   9.267  0.00  0.00    -0.307 OA
HETATM   23  H   UNK N   1      30.246  16.050   9.317  0.00  0.00     0.222 HD
ENDBRANCH  18  22
ENDBRANCH  17  18
ENDBRANCH  13  17
ENDBRANCH  12  13
ENDBRANCH   8  12
ENDBRANCH   7   8
ENDBRANCH   6   7
ENDBRANCH   2   6
BRANCH   3  24
HETATM   24  O   UNK N   1      37.247  10.479  14.857  0.00  0.00    -0.391 OA
HETATM   25  H   UNK N   1      37.135  10.573  15.816  0.00  0.00     0.210 HD
ENDBRANCH   3  24
BRANCH   4  26
HETATM   26  N   UNK N   1      35.045  11.972  15.771  0.00  0.00    -0.297 N 
HETATM   27  C   UNK N   1      34.828  13.283  16.062  0.00  0.00     0.188 A 
HETATM   28  N   UNK N   1      34.918  13.522  17.399  0.00  0.00    -0.346 N 
HETATM   29  C   UNK N   1      35.205  12.322  17.932  0.00  0.00     0.122 A 
ATOM     30  HN  UNK N   1      34.796  14.410  17.886  1.00  0.00     0.167 HD
HETATM   31  C   UNK N   1      35.394  11.963  19.257  0.00  0.00     0.131 A 
HETATM   32  C   UNK N   1      35.291  11.395  16.959  0.00  0.00     0.142 A 
HETATM   33  N   UNK N   1      35.674  10.655  19.532  0.00  0.00    -0.337 N 
HETATM   34  C   UNK N   1      35.766   9.725  18.524  0.00  0.00     0.183 A 
ATOM     35  HN  UNK N   1      35.816  10.364  20.499  1.00  0.00     0.168 HD
HETATM   36  N   UNK N   1      35.572  10.096  17.221  0.00  0.00    -0.336 N 
ATOM     37  HN  UNK N   1      35.638   9.412  16.466  1.00  0.00     0.168 HD
BRANCH  31  38
HETATM   38  N   UNK N   1      35.295  12.911  20.294  0.00  0.00    -0.383 N 
HETATM   39  H   UNK N   1      35.142  13.863  20.092  0.00  0.00     0.157 HD
HETATM   40  H   UNK N   1      35.380  12.619  21.231  0.00  0.00     0.157 HD
ENDBRANCH  31  38
ENDBRANCH   4  26
TORSDOF 14
ENDMDL
MODEL 5
REMARK VINA RESULT:      -6.7      2.696      5.041
REMARK  14 active torsions:
REMARK  status: ('A' for Active; 'I' for Inactive)
REMARK    1  A    between atoms: C_5  and  C_2 
REMARK    2  A    between atoms: O_27  and  C_2 
REMARK    3  A    between atoms: C_6  and  O_19 
REMARK    4  A    between atoms: N_11  and  C_8 
REMARK    5  A    between atoms: C_10  and  N_18 
REMARK    6  A    between atoms: P_31  and  O_20 
REMARK    7  A    between atoms: P_31  and  O_21 
REMARK    8  A    between atoms: P_32  and  O_23 
REMARK    9  A    between atoms: P_33  and  O_25 
REMARK   10  A    between atoms: P_32  and  O_27 
REMARK   11  A    between atoms: P_31  and  O_29 
REMARK   12  A    between atoms: P_33  and  O_29 
REMARK   13  A    between atoms: P_32  and  O_30 
REMARK   14  A    between atoms: P_33  and  O_30 
ROOT
HETATM    1  C   UNK N   1      34.668  14.847  11.473  0.00  0.00     0.070 C 
HETATM    2  C   UNK N   1      35.729  15.619  10.713  0.00  0.00     0.151 C 
HETATM    3  C   UNK N   1      35.352  13.526  11.529  0.00  0.00     0.169 C 
HETATM    4  C   UNK N   1      35.870  13.443  10.097  0.00  0.00     0.259 C 
HETATM    5  O   UNK N   1      36.350  14.738   9.791  0.00  0.00    -0.356 OA
ENDROOT
BRANCH   2   6
HETATM    6  C   UNK N   1      35.115  16.819  10.002  0.00  0.00     0.212 C 
BRANCH   6   7
HETATM    7  O   UNK N   1      35.071  16.609   8.618  0.00  0.00    -0.294 OA
BRANCH   7   8
HETATM    8  P   UNK N   1      34.217  17.978   7.960  0.00  0.00     0.401 P 
HETATM    9  O   UNK N   1      34.998  19.241   8.407  0.00  0.00    -0.631 OA
BRANCH   8  10
HETATM   10  O   UNK N   1      34.257  17.934   6.220  0.00  0.00    -0.307 OA
HETATM   11  H   UNK N   1      34.150  17.781   5.269  0.00  0.00     0.222 HD
ENDBRANCH   8  10
BRANCH   8  12
HETATM   12  O   UNK N   1      32.616  18.078   8.660  0.00  0.00    -0.195 OA
BRANCH  12  13
HETATM   13  P   UNK N   1      31.673  16.681   8.186  0.00  0.00     0.410 P 
HETATM   14  O   UNK N   1      31.927  15.512   9.183  0.00  0.00    -0.631 OA
BRANCH  13  15
HETATM   15  O   UNK N   1      29.976  17.049   8.228  0.00  0.00    -0.307 OA
HETATM   16  H   UNK N   1      29.567  17.851   7.868  0.00  0.00     0.222 HD
ENDBRANCH  13  15
BRANCH  13  17
HETATM   17  O   UNK N   1      32.148  16.185   6.572  0.00  0.00    -0.195 OA
BRANCH  17  18
HETATM   18  P   UNK N   1      30.818  16.518   5.492  0.00  0.00     0.399 P 
HETATM   19  O   UNK N   1      30.441  15.129   6.076  0.00  0.00    -0.631 OA
BRANCH  18  20
HETATM   20  O   UNK N   1      30.576  15.554   4.071  0.00  0.00    -0.307 OA
HETATM   21  H   UNK N   1      31.192  15.428   3.332  0.00  0.00     0.222 HD
ENDBRANCH  18  20
BRANCH  18  22
HETATM   22  O   UNK N   1      32.297  16.400   4.591  0.00  0.00    -0.307 OA
HETATM   23  H   UNK N   1      32.537  16.965   3.841  0.00  0.00     0.222 HD
ENDBRANCH  18  22
ENDBRANCH  17  18
ENDBRANCH  13  17
ENDBRANCH  12  13
ENDBRANCH   8  12
ENDBRANCH   7   8
ENDBRANCH   6   7
ENDBRANCH   2   6
BRANCH   3  24
HETATM   24  O   UNK N   1      34.495  12.486  11.888  0.00  0.00    -0.391 OA
HETATM   25  H   UNK N   1      34.745  11.549  11.905  0.00  0.00     0.210 HD
ENDBRANCH   3  24
BRANCH   4  26
HETATM   26  N   UNK N   1      34.806  13.053   9.151  0.00  0.00    -0.297 N 
HETATM   27  C   UNK N   1      33.762  12.228   9.433  0.00  0.00     0.188 A 
HETATM   28  N   UNK N   1      32.941  12.073   8.358  0.00  0.00    -0.346 N 
HETATM   29  C   UNK N   1      33.509  12.820   7.396  0.00  0.00     0.122 A 
ATOM     30  HN  UNK N   1      32.090  11.516   8.296  1.00  0.00     0.167 HD
HETATM   31  C   UNK N   1      33.098  13.049   6.093  0.00  0.00     0.131 A 
HETATM   32  C   UNK N   1      34.630  13.401   7.865  0.00  0.00     0.142 A 
HETATM   33  N   UNK N   1      33.866  13.867   5.313  0.00  0.00    -0.337 N 
HETATM   34  C   UNK N   1      35.011  14.443   5.808  0.00  0.00     0.183 A 
ATOM     35  HN  UNK N   1      33.585  14.053   4.351  1.00  0.00     0.168 HD
HETATM   36  N   UNK N   1      35.401  14.209   7.100  0.00  0.00    -0.336 N 
ATOM     37  HN  UNK N   1      36.250  14.633   7.475  1.00  0.00     0.168 HD
BRANCH  31  38
HETATM   38  N   UNK N   1      31.922  12.465   5.583  0.00  0.00    -0.383 N 
HETATM   39  H   UNK N   1      31.955  11.867   4.801  0.00  0.00     0.157 HD
HETATM   40  H   UNK N   1      31.057  12.658   6.012  0.00  0.00     0.157 HD
ENDBRANCH  31  38
ENDBRANCH   4  26
TORSDOF 14
ENDMDL
MODEL 6
REMARK VINA RESULT:      -6.6      6.482      9.323
REMARK  14 active torsions:
REMARK  status: ('A' for Active; 'I' for Inactive)
REMARK    1  A    between atoms: C_5  and  C_2 
REMARK    2  A    between atoms: O_27  and  C_2 
REMARK    3  A    between atoms: C_6  and  O_19 
REMARK    4  A    between atoms: N_11  and  C_8 
REMARK    5  A    between atoms: C_10  and  N_18 
REMARK    6  A    between atoms: P_31  and  O_20 
REMARK    7  A    between atoms: P_31  and  O_21 
REMARK    8  A    between atoms: P_32  and  O_23 
REMARK    9  A    between atoms: P_33  and  O_25 
REMARK   10  A    between atoms: P_32  and  O_27 
REMARK   11  A    between atoms: P_31  and  O_29 
REMARK   12  A    between atoms: P_33  and  O_29 
REMARK   13  A    between atoms: P_32  and  O_30 
REMARK   14  A    between atoms: P_33  and  O_30 
ROOT
HETATM    1  C   UNK N   1      30.247  15.136   5.477  0.00  0.00     0.070 C 
HETATM    2  C   UNK N   1      31.580  15.832   5.284  0.00  0.00     0.151 C 
HETATM    3  C   UNK N   1      29.548  15.655   4.270  0.00  0.00     0.169 C 
HETATM    4  C   UNK N   1      29.974  17.118   4.336  0.00  0.00     0.259 C 
HETATM    5  O   UNK N   1      31.342  17.099   4.695  0.00  0.00    -0.356 OA
ENDROOT
BRANCH   2   6
HETATM    6  C   UNK N   1      32.312  15.969   6.613  0.00  0.00     0.212 C 
BRANCH   6   7
HETATM    7  O   UNK N   1      33.454  16.767   6.472  0.00  0.00    -0.294 OA
BRANCH   7   8
HETATM    8  P   UNK N   1      33.994  17.109   8.092  0.00  0.00     0.401 P 
HETATM    9  O   UNK N   1      34.922  18.348   7.996  0.00  0.00    -0.631 OA
BRANCH   8  10
HETATM   10  O   UNK N   1      32.644  17.552   9.098  0.00  0.00    -0.307 OA
HETATM   11  H   UNK N   1      31.836  17.892   9.513  0.00  0.00     0.222 HD
ENDBRANCH   8  10
BRANCH   8  12
HETATM   12  O   UNK N   1      34.960  15.779   8.696  0.00  0.00    -0.195 OA
BRANCH  12  13
HETATM   13  P   UNK N   1      34.789  15.664  10.435  0.00  0.00     0.410 P 
HETATM   14  O   UNK N   1      35.082  17.048  11.084  0.00  0.00    -0.631 OA
BRANCH  13  15
HETATM   15  O   UNK N   1      33.166  15.216  10.859  0.00  0.00    -0.307 OA
HETATM   16  H   UNK N   1      32.410  15.822  10.901  0.00  0.00     0.222 HD
ENDBRANCH  13  15
BRANCH  13  17
HETATM   17  O   UNK N   1      35.927  14.479  11.049  0.00  0.00    -0.195 OA
BRANCH  17  18
HETATM   18  P   UNK N   1      37.112  14.172   9.805  0.00  0.00     0.399 P 
HETATM   19  O   UNK N   1      37.382  13.028  10.819  0.00  0.00    -0.631 OA
BRANCH  18  20
HETATM   20  O   UNK N   1      38.804  14.344  10.140  0.00  0.00    -0.307 OA
HETATM   21  H   UNK N   1      39.526  14.444   9.498  0.00  0.00     0.222 HD
ENDBRANCH  18  20
BRANCH  18  22
HETATM   22  O   UNK N   1      37.421  15.709  10.550  0.00  0.00    -0.307 OA
HETATM   23  H   UNK N   1      38.251  15.960  10.983  0.00  0.00     0.222 HD
ENDBRANCH  18  22
ENDBRANCH  17  18
ENDBRANCH  13  17
ENDBRANCH  12  13
ENDBRANCH   8  12
ENDBRANCH   7   8
ENDBRANCH   6   7
ENDBRANCH   2   6
BRANCH   3  24
HETATM   24  O   UNK N   1      28.167  15.459   4.316  0.00  0.00    -0.391 OA
HETATM   25  H   UNK N   1      27.553  16.000   4.836  0.00  0.00     0.210 HD
ENDBRANCH   3  24
BRANCH   4  26
HETATM   26  N   UNK N   1      29.191  17.873   5.333  0.00  0.00    -0.297 N 
HETATM   27  C   UNK N   1      29.278  17.724   6.683  0.00  0.00     0.188 A 
HETATM   28  N   UNK N   1      28.439  18.575   7.335  0.00  0.00    -0.346 N 
HETATM   29  C   UNK N   1      27.823  19.253   6.353  0.00  0.00     0.122 A 
ATOM     30  HN  UNK N   1      28.308  18.675   8.342  1.00  0.00     0.167 HD
HETATM   31  C   UNK N   1      26.874  20.261   6.431  0.00  0.00     0.131 A 
HETATM   32  C   UNK N   1      28.264  18.829   5.153  0.00  0.00     0.142 A 
HETATM   33  N   UNK N   1      26.408  20.793   5.262  0.00  0.00    -0.337 N 
HETATM   34  C   UNK N   1      26.865  20.339   4.048  0.00  0.00     0.183 A 
ATOM     35  HN  UNK N   1      25.711  21.536   5.292  1.00  0.00     0.168 HD
HETATM   36  N   UNK N   1      27.805  19.346   3.989  0.00  0.00    -0.336 N 
ATOM     37  HN  UNK N   1      28.149  19.004   3.091  1.00  0.00     0.168 HD
BRANCH  31  38
HETATM   38  N   UNK N   1      26.408  20.732   7.673  0.00  0.00    -0.383 N 
HETATM   39  H   UNK N   1      25.649  21.358   7.721  0.00  0.00     0.157 HD
HETATM   40  H   UNK N   1      26.845  20.433   8.504  0.00  0.00     0.157 HD
ENDBRANCH  31  38
ENDBRANCH   4  26
TORSDOF 14
ENDMDL
MODEL 7
REMARK VINA RESULT:      -6.5      6.527      8.662
REMARK  14 active torsions:
REMARK  status: ('A' for Active; 'I' for Inactive)
REMARK    1  A    between atoms: C_5  and  C_2 
REMARK    2  A    between atoms: O_27  and  C_2 
REMARK    3  A    between atoms: C_6  and  O_19 
REMARK    4  A    between atoms: N_11  and  C_8 
REMARK    5  A    between atoms: C_10  and  N_18 
REMARK    6  A    between atoms: P_31  and  O_20 
REMARK    7  A    between atoms: P_31  and  O_21 
REMARK    8  A    between atoms: P_32  and  O_23 
REMARK    9  A    between atoms: P_33  and  O_25 
REMARK   10  A    between atoms: P_32  and  O_27 
REMARK   11  A    between atoms: P_31  and  O_29 
REMARK   12  A    between atoms: P_33  and  O_29 
REMARK   13  A    between atoms: P_32  and  O_30 
REMARK   14  A    between atoms: P_33  and  O_30 
ROOT
HETATM    1  C   UNK N   1      30.608  14.323   3.855  0.00  0.00     0.070 C 
HETATM    2  C   UNK N   1      31.818  15.068   3.324  0.00  0.00     0.151 C 
HETATM    3  C   UNK N   1      29.559  14.999   3.045  0.00  0.00     0.169 C 
HETATM    4  C   UNK N   1      30.025  16.444   3.173  0.00  0.00     0.259 C 
HETATM    5  O   UNK N   1      31.433  16.402   3.040  0.00  0.00    -0.356 OA
ENDROOT
BRANCH   2   6
HETATM    6  C   UNK N   1      32.960  15.025   4.331  0.00  0.00     0.212 C 
BRANCH   6   7
HETATM    7  O   UNK N   1      33.539  16.291   4.481  0.00  0.00    -0.294 OA
BRANCH   7   8
HETATM    8  P   UNK N   1      34.177  16.330   6.102  0.00  0.00     0.401 P 
HETATM    9  O   UNK N   1      35.547  15.605   6.055  0.00  0.00    -0.631 OA
BRANCH   8  10
HETATM   10  O   UNK N   1      34.478  17.973   6.594  0.00  0.00    -0.307 OA
HETATM   11  H   UNK N   1      34.465  18.896   6.887  0.00  0.00     0.222 HD
ENDBRANCH   8  10
BRANCH   8  12
HETATM   12  O   UNK N   1      33.139  15.416   7.177  0.00  0.00    -0.195 OA
BRANCH  12  13
HETATM   13  P   UNK N   1      33.036  16.221   8.728  0.00  0.00     0.410 P 
HETATM   14  O   UNK N   1      32.141  17.489   8.605  0.00  0.00    -0.631 OA
BRANCH  13  15
HETATM   15  O   UNK N   1      32.310  15.176   9.909  0.00  0.00    -0.307 OA
HETATM   16  H   UNK N   1      31.774  14.393   9.711  0.00  0.00     0.222 HD
ENDBRANCH  13  15
BRANCH  13  17
HETATM   17  O   UNK N   1      34.646  16.692   9.242  0.00  0.00    -0.195 OA
BRANCH  17  18
HETATM   18  P   UNK N   1      35.097  15.687  10.595  0.00  0.00     0.399 P 
HETATM   19  O   UNK N   1      36.185  16.795  10.618  0.00  0.00    -0.631 OA
BRANCH  18  20
HETATM   20  O   UNK N   1      36.574  14.779  10.563  0.00  0.00    -0.307 OA
HETATM   21  H   UNK N   1      36.752  13.960  10.074  0.00  0.00     0.222 HD
ENDBRANCH  18  20
BRANCH  18  22
HETATM   22  O   UNK N   1      35.208  14.778   9.120  0.00  0.00    -0.307 OA
HETATM   23  H   UNK N   1      35.546  13.872   9.050  0.00  0.00     0.222 HD
ENDBRANCH  18  22
ENDBRANCH  17  18
ENDBRANCH  13  17
ENDBRANCH  12  13
ENDBRANCH   8  12
ENDBRANCH   7   8
ENDBRANCH   6   7
ENDBRANCH   2   6
BRANCH   3  24
HETATM   24  O   UNK N   1      28.269  14.769   3.527  0.00  0.00    -0.391 OA
HETATM   25  H   UNK N   1      27.561  15.431   3.538  0.00  0.00     0.210 HD
ENDBRANCH   3  24
BRANCH   4  26
HETATM   26  N   UNK N   1      29.649  17.029   4.475  0.00  0.00    -0.297 N 
HETATM   27  C   UNK N   1      30.419  17.022   5.596  0.00  0.00     0.188 A 
HETATM   28  N   UNK N   1      29.802  17.655   6.632  0.00  0.00    -0.346 N 
HETATM   29  C   UNK N   1      28.622  18.050   6.125  0.00  0.00     0.122 A 
ATOM     30  HN  UNK N   1      30.155  17.796   7.578  1.00  0.00     0.167 HD
HETATM   31  C   UNK N   1      27.590  18.753   6.724  0.00  0.00     0.131 A 
HETATM   32  C   UNK N   1      28.524  17.669   4.837  0.00  0.00     0.142 A 
HETATM   33  N   UNK N   1      26.485  19.035   5.973  0.00  0.00    -0.337 N 
HETATM   34  C   UNK N   1      26.401  18.630   4.662  0.00  0.00     0.183 A 
ATOM     35  HN  UNK N   1      25.712  19.553   6.389  1.00  0.00     0.168 HD
HETATM   36  N   UNK N   1      27.431  17.938   4.084  0.00  0.00    -0.336 N 
ATOM     37  HN  UNK N   1      27.376  17.634   3.111  1.00  0.00     0.168 HD
BRANCH  31  38
HETATM   38  N   UNK N   1      27.675  19.176   8.066  0.00  0.00    -0.383 N 
HETATM   39  H   UNK N   1      28.544  19.402   8.467  0.00  0.00     0.157 HD
HETATM   40  H   UNK N   1      26.855  19.245   8.607  0.00  0.00     0.157 HD
ENDBRANCH  31  38
ENDBRANCH   4  26
TORSDOF 14
ENDMDL
MODEL 8
REMARK VINA RESULT:      -6.4      5.119      8.199
REMARK  14 active torsions:
REMARK  status: ('A' for Active; 'I' for Inactive)
REMARK    1  A    between atoms: C_5  and  C_2 
REMARK    2  A    between atoms: O_27  and  C_2 
REMARK    3  A    between atoms: C_6  and  O_19 
REMARK    4  A    between atoms: N_11  and  C_8 
REMARK    5  A    between atoms: C_10  and  N_18 
REMARK    6  A    between atoms: P_31  and  O_20 
REMARK    7  A    between atoms: P_31  and  O_21 
REMARK    8  A    between atoms: P_32  and  O_23 
REMARK    9  A    between atoms: P_33  and  O_25 
REMARK   10  A    between atoms: P_32  and  O_27 
REMARK   11  A    between atoms: P_31  and  O_29 
REMARK   12  A    between atoms: P_33  and  O_29 
REMARK   13  A    between atoms: P_32  and  O_30 
REMARK   14  A    between atoms: P_33  and  O_30 
ROOT
HETATM    1  C   UNK N   1      33.311  14.977   6.297  0.00  0.00     0.070 C 
HETATM    2  C   UNK N   1      34.462  15.941   6.511  0.00  0.00     0.151 C 
HETATM    3  C   UNK N   1      32.620  15.698   5.194  0.00  0.00     0.169 C 
HETATM    4  C   UNK N   1      32.694  17.123   5.732  0.00  0.00     0.259 C 
HETATM    5  O   UNK N   1      33.993  17.258   6.274  0.00  0.00    -0.356 OA
ENDROOT
BRANCH   2   6
HETATM    6  C   UNK N   1      35.025  15.801   7.920  0.00  0.00     0.212 C 
BRANCH   6   7
HETATM    7  O   UNK N   1      34.370  14.779   8.619  0.00  0.00    -0.294 OA
BRANCH   7   8
HETATM    8  P   UNK N   1      34.258  15.331  10.267  0.00  0.00     0.401 P 
HETATM    9  O   UNK N   1      34.526  16.858  10.241  0.00  0.00    -0.631 OA
BRANCH   8  10
HETATM   10  O   UNK N   1      32.642  15.101  10.873  0.00  0.00    -0.307 OA
HETATM   11  H   UNK N   1      31.693  14.984  11.035  0.00  0.00     0.222 HD
ENDBRANCH   8  10
BRANCH   8  12
HETATM   12  O   UNK N   1      35.520  14.596  11.233  0.00  0.00    -0.195 OA
BRANCH  12  13
HETATM   13  P   UNK N   1      35.248  12.870  11.348  0.00  0.00     0.410 P 
HETATM   14  O   UNK N   1      34.983  12.477  12.831  0.00  0.00    -0.631 OA
BRANCH  13  15
HETATM   15  O   UNK N   1      33.850  12.411  10.425  0.00  0.00    -0.307 OA
HETATM   16  H   UNK N   1      33.218  11.719  10.671  0.00  0.00     0.222 HD
ENDBRANCH  13  15
BRANCH  13  17
HETATM   17  O   UNK N   1      36.667  12.021  10.765  0.00  0.00    -0.195 OA
BRANCH  17  18
HETATM   18  P   UNK N   1      37.783  13.206  10.133  0.00  0.00     0.399 P 
HETATM   19  O   UNK N   1      38.401  11.866   9.649  0.00  0.00    -0.631 OA
BRANCH  18  20
HETATM   20  O   UNK N   1      39.408  13.291  10.731  0.00  0.00    -0.307 OA
HETATM   21  H   UNK N   1      39.693  13.461  11.643  0.00  0.00     0.222 HD
ENDBRANCH  18  20
BRANCH  18  22
HETATM   22  O   UNK N   1      37.779  13.264  11.868  0.00  0.00    -0.307 OA
HETATM   23  H   UNK N   1      38.411  13.761  12.409  0.00  0.00     0.222 HD
ENDBRANCH  18  22
ENDBRANCH  17  18
ENDBRANCH  13  17
ENDBRANCH  12  13
ENDBRANCH   8  12
ENDBRANCH   7   8
ENDBRANCH   6   7
ENDBRANCH   2   6
BRANCH   3  24
HETATM   24  O   UNK N   1      31.322  15.236   4.974  0.00  0.00    -0.391 OA
HETATM   25  H   UNK N   1      30.574  15.800   4.720  0.00  0.00     0.210 HD
ENDBRANCH   3  24
BRANCH   4  26
HETATM   26  N   UNK N   1      31.676  17.370   6.771  0.00  0.00    -0.297 N 
HETATM   27  C   UNK N   1      31.925  17.532   8.099  0.00  0.00     0.188 A 
HETATM   28  N   UNK N   1      30.780  17.761   8.800  0.00  0.00    -0.346 N 
HETATM   29  C   UNK N   1      29.810  17.730   7.871  0.00  0.00     0.122 A 
ATOM     30  HN  UNK N   1      30.681  17.918   9.802  1.00  0.00     0.167 HD
HETATM   31  C   UNK N   1      28.444  17.914   8.009  0.00  0.00     0.131 A 
HETATM   32  C   UNK N   1      30.342  17.487   6.657  0.00  0.00     0.142 A 
HETATM   33  N   UNK N   1      27.670  17.836   6.887  0.00  0.00    -0.337 N 
HETATM   34  C   UNK N   1      28.231  17.579   5.659  0.00  0.00     0.183 A 
ATOM     35  HN  UNK N   1      26.662  17.970   6.961  1.00  0.00     0.168 HD
HETATM   36  N   UNK N   1      29.583  17.402   5.539  0.00  0.00    -0.336 N 
ATOM     37  HN  UNK N   1      30.008  17.211   4.631  1.00  0.00     0.168 HD
BRANCH  31  38
HETATM   38  N   UNK N   1      27.865  18.184   9.265  0.00  0.00    -0.383 N 
HETATM   39  H   UNK N   1      28.422  18.235  10.075  0.00  0.00     0.157 HD
HETATM   40  H   UNK N   1      26.892  18.323   9.333  0.00  0.00     0.157 HD
ENDBRANCH  31  38
ENDBRANCH   4  26
TORSDOF 14
ENDMDL
MODEL 9
REMARK VINA RESULT:      -6.4      7.375      9.892
REMARK  14 active torsions:
REMARK  status: ('A' for Active; 'I' for Inactive)
REMARK    1  A    between atoms: C_5  and  C_2 
REMARK    2  A    between atoms: O_27  and  C_2 
REMARK    3  A    between atoms: C_6  and  O_19 
REMARK    4  A    between atoms: N_11  and  C_8 
REMARK    5  A    between atoms: C_10  and  N_18 
REMARK    6  A    between atoms: P_31  and  O_20 
REMARK    7  A    between atoms: P_31  and  O_21 
REMARK    8  A    between atoms: P_32  and  O_23 
REMARK    9  A    between atoms: P_33  and  O_25 
REMARK   10  A    between atoms: P_32  and  O_27 
REMARK   11  A    between atoms: P_31  and  O_29 
REMARK   12  A    between atoms: P_33  and  O_29 
REMARK   13  A    between atoms: P_32  and  O_30 
REMARK   14  A    between atoms: P_33  and  O_30 
ROOT
HETATM    1  C   UNK N   1      27.911  16.873   3.555  0.00  0.00     0.070 C 
HETATM    2  C   UNK N   1      27.325  15.489   3.759  0.00  0.00     0.151 C 
HETATM    3  C   UNK N   1      29.352  16.523   3.681  0.00  0.00     0.169 C 
HETATM    4  C   UNK N   1      29.287  15.592   4.886  0.00  0.00     0.259 C 
HETATM    5  O   UNK N   1      28.139  14.790   4.684  0.00  0.00    -0.356 OA
ENDROOT
BRANCH   2   6
HETATM    6  C   UNK N   1      25.885  15.583   4.251  0.00  0.00     0.212 C 
BRANCH   6   7
HETATM    7  O   UNK N   1      25.163  16.521   3.503  0.00  0.00    -0.294 OA
BRANCH   7   8
HETATM    8  P   UNK N   1      23.792  16.955   4.486  0.00  0.00     0.401 P 
HETATM    9  O   UNK N   1      23.696  15.886   5.606  0.00  0.00    -0.631 OA
BRANCH   8  10
HETATM   10  O   UNK N   1      24.065  18.491   5.259  0.00  0.00    -0.307 OA
HETATM   11  H   UNK N   1      24.393  19.304   5.672  0.00  0.00     0.222 HD
ENDBRANCH   8  10
BRANCH   8  12
HETATM   12  O   UNK N   1      22.322  16.854   3.541  0.00  0.00    -0.195 OA
BRANCH  12  13
HETATM   13  P   UNK N   1      21.035  17.721   4.353  0.00  0.00     0.410 P 
HETATM   14  O   UNK N   1      19.704  17.548   3.564  0.00  0.00    -0.631 OA
BRANCH  13  15
HETATM   15  O   UNK N   1      20.787  17.086   5.950  0.00  0.00    -0.307 OA
HETATM   16  H   UNK N   1      21.480  16.951   6.614  0.00  0.00     0.222 HD
ENDBRANCH  13  15
BRANCH  13  17
HETATM   17  O   UNK N   1      21.447  19.424   4.433  0.00  0.00    -0.195 OA
BRANCH  17  18
HETATM   18  P   UNK N   1      21.443  20.058   2.807  0.00  0.00     0.399 P 
HETATM   19  O   UNK N   1      22.846  20.472   3.329  0.00  0.00    -0.631 OA
BRANCH  18  20
HETATM   20  O   UNK N   1      21.469  21.770   2.530  0.00  0.00    -0.307 OA
HETATM   21  H   UNK N   1      21.455  22.475   3.197  0.00  0.00     0.222 HD
ENDBRANCH  18  20
BRANCH  18  22
HETATM   22  O   UNK N   1      20.209  20.835   3.748  0.00  0.00    -0.307 OA
HETATM   23  H   UNK N   1      19.875  20.514   4.600  0.00  0.00     0.222 HD
ENDBRANCH  18  22
ENDBRANCH  17  18
ENDBRANCH  13  17
ENDBRANCH  12  13
ENDBRANCH   8  12
ENDBRANCH   7   8
ENDBRANCH   6   7
ENDBRANCH   2   6
BRANCH   3  24
HETATM   24  O   UNK N   1      30.167  17.641   3.865  0.00  0.00    -0.391 OA
HETATM   25  H   UNK N   1      30.943  17.851   3.323  0.00  0.00     0.210 HD
ENDBRANCH   3  24
BRANCH   4  26
HETATM   26  N   UNK N   1      29.174  16.340   6.153  0.00  0.00    -0.297 N 
HETATM   27  C   UNK N   1      28.012  16.625   6.801  0.00  0.00     0.188 A 
HETATM   28  N   UNK N   1      28.238  17.315   7.953  0.00  0.00    -0.346 N 
HETATM   29  C   UNK N   1      29.573  17.458   7.999  0.00  0.00     0.122 A 
ATOM     30  HN  UNK N   1      27.549  17.649   8.627  1.00  0.00     0.167 HD
HETATM   31  C   UNK N   1      30.366  18.069   8.957  0.00  0.00     0.131 A 
HETATM   32  C   UNK N   1      30.135  16.884   6.918  0.00  0.00     0.142 A 
HETATM   33  N   UNK N   1      31.718  18.071   8.762  0.00  0.00    -0.337 N 
HETATM   34  C   UNK N   1      32.272  17.486   7.648  0.00  0.00     0.183 A 
ATOM     35  HN  UNK N   1      32.325  18.511   9.453  1.00  0.00     0.168 HD
HETATM   36  N   UNK N   1      31.474  16.885   6.713  0.00  0.00    -0.336 N 
ATOM     37  HN  UNK N   1      31.876  16.448   5.883  1.00  0.00     0.168 HD
BRANCH  31  38
HETATM   38  N   UNK N   1      29.804  18.664  10.103  0.00  0.00    -0.383 N 
HETATM   39  H   UNK N   1      30.349  19.232  10.694  0.00  0.00     0.157 HD
HETATM   40  H   UNK N   1      28.854  18.509  10.316  0.00  0.00     0.157 HD
ENDBRANCH  31  38
ENDBRANCH   4  26
TORSDOF 14
ENDMDL
