MODEL 1
REMARK VINA RESULT:      -5.2      0.000      0.000
REMARK  2 active torsions:
REMARK  status: ('A' for Active; 'I' for Inactive)
REMARK    1  A    between atoms: O_13  and  C_3 
REMARK    2  A    between atoms: O_14  and  C_4 
ROOT
HETATM    1  C   UNK N   1      20.720  20.038   2.575  0.00  0.00     0.142 A 
HETATM    2  C   UNK N   1      20.407  19.557   1.362  0.00  0.00     0.154 A 
HETATM    3  C   UNK N   1      20.706  19.209   3.680  0.00  0.00     0.175 A 
HETATM    4  C   UNK N   1      20.046  17.427   2.230  0.00  0.00     0.224 A 
HETATM    5  N   UNK N   1      20.067  18.267   1.149  0.00  0.00    -0.305 N 
ATOM      6  HN  UNK N   1      19.834  17.929   0.214  1.00  0.00     0.171 HD
HETATM    7  N   UNK N   1      20.364  17.897   3.486  0.00  0.00    -0.301 N 
ATOM      8  HN  UNK N   1      20.344  17.260   4.282  1.00  0.00     0.171 HD
HETATM    9  N   UNK N   1      21.007  21.340   2.450  0.00  0.00    -0.277 N 
ATOM     10  HN  UNK N   1      21.281  21.982   3.194  1.00  0.00     0.184 HD
HETATM   11  N   UNK N   1      20.493  20.546   0.467  0.00  0.00    -0.267 N 
HETATM   12  N   UNK N   1      20.862  21.627   1.155  0.00  0.00    -0.020 NA
HETATM   13  H   UNK N   1      20.321  20.489  -0.501  0.00  0.00     0.186 HD
ENDROOT
BRANCH   3  14
HETATM   14  O   UNK N   1      21.015  19.667   4.905  0.00  0.00    -0.344 OA
HETATM   15  H   UNK N   1      21.761  19.327   5.358  0.00  0.00     0.219 HD
ENDBRANCH   3  14
BRANCH   4  16
HETATM   16  O   UNK N   1      19.714  16.137   2.064  0.00  0.00    -0.332 OA
HETATM   17  H   UNK N   1      20.313  15.463   2.321  0.00  0.00     0.221 HD
ENDBRANCH   4  16
TORSDOF 2
ENDMDL
MODEL 2
REMARK VINA RESULT:      -5.1     10.182     11.422
REMARK  2 active torsions:
REMARK  status: ('A' for Active; 'I' for Inactive)
REMARK    1  A    between atoms: O_13  and  C_3 
REMARK    2  A    between atoms: O_14  and  C_4 
ROOT
HETATM    1  C   UNK N   1      21.822  12.400  11.287  0.00  0.00     0.142 A 
HETATM    2  C   UNK N   1      22.151  13.149  10.223  0.00  0.00     0.154 A 
HETATM    3  C   UNK N   1      22.805  11.872  12.100  0.00  0.00     0.175 A 
HETATM    4  C   UNK N   1      24.422  12.914  10.681  0.00  0.00     0.224 A 
HETATM    5  N   UNK N   1      23.431  13.427   9.888  0.00  0.00    -0.305 N 
ATOM      6  HN  UNK N   1      23.651  14.000   9.073  1.00  0.00     0.171 HD
HETATM    7  N   UNK N   1      24.109  12.142  11.779  0.00  0.00    -0.301 N 
ATOM      8  HN  UNK N   1      24.858  11.766  12.361  1.00  0.00     0.171 HD
HETATM    9  N   UNK N   1      20.487  12.313  11.342  0.00  0.00    -0.277 N 
ATOM     10  HN  UNK N   1      19.933  11.812  12.037  1.00  0.00     0.184 HD
HETATM   11  N   UNK N   1      21.033  13.538   9.602  0.00  0.00    -0.267 N 
HETATM   12  N   UNK N   1      20.028  13.015  10.305  0.00  0.00    -0.020 NA
HETATM   13  H   UNK N   1      20.965  14.095   8.793  0.00  0.00     0.186 HD
ENDROOT
BRANCH   3  14
HETATM   14  O   UNK N   1      22.500  11.120  13.171  0.00  0.00    -0.344 OA
HETATM   15  H   UNK N   1      23.181  10.799  13.728  0.00  0.00     0.219 HD
ENDBRANCH   3  14
BRANCH   4  16
HETATM   16  O   UNK N   1      25.707  13.165  10.386  0.00  0.00    -0.332 OA
HETATM   17  H   UNK N   1      26.279  13.512  11.042  0.00  0.00     0.221 HD
ENDBRANCH   4  16
TORSDOF 2
ENDMDL
MODEL 3
REMARK VINA RESULT:      -5.1      1.866      3.385
REMARK  2 active torsions:
REMARK  status: ('A' for Active; 'I' for Inactive)
REMARK    1  A    between atoms: O_13  and  C_3 
REMARK    2  A    between atoms: O_14  and  C_4 
ROOT
HETATM    1  C   UNK N   1      20.287  18.130   3.082  0.00  0.00     0.142 A 
HETATM    2  C   UNK N   1      20.091  17.700   1.826  0.00  0.00     0.154 A 
HETATM    3  C   UNK N   1      20.627  19.446   3.325  0.00  0.00     0.175 A 
HETATM    4  C   UNK N   1      20.546  19.816   0.965  0.00  0.00     0.224 A 
HETATM    5  N   UNK N   1      20.210  18.506   0.747  0.00  0.00    -0.305 N 
ATOM      6  HN  UNK N   1      20.054  18.151  -0.197  1.00  0.00     0.171 HD
HETATM    7  N   UNK N   1      20.752  20.280   2.246  0.00  0.00    -0.301 N 
ATOM      8  HN  UNK N   1      21.002  21.258   2.392  1.00  0.00     0.171 HD
HETATM    9  N   UNK N   1      20.095  17.098   3.914  0.00  0.00    -0.277 N 
ATOM     10  HN  UNK N   1      20.171  17.108   4.931  1.00  0.00     0.184 HD
HETATM   11  N   UNK N   1      19.775  16.401   1.854  0.00  0.00    -0.267 N 
HETATM   12  N   UNK N   1      19.784  16.055   3.142  0.00  0.00    -0.020 NA
HETATM   13  H   UNK N   1      19.578  15.821   1.084  0.00  0.00     0.186 HD
ENDROOT
BRANCH   3  14
HETATM   14  O   UNK N   1      20.828  19.900   4.574  0.00  0.00    -0.344 OA
HETATM   15  H   UNK N   1      20.178  19.763   5.233  0.00  0.00     0.219 HD
ENDBRANCH   3  14
BRANCH   4  16
HETATM   16  O   UNK N   1      20.675  20.651  -0.078  0.00  0.00    -0.332 OA
HETATM   17  H   UNK N   1      19.964  20.763  -0.678  0.00  0.00     0.221 HD
ENDBRANCH   4  16
TORSDOF 2
ENDMDL
MODEL 4
REMARK VINA RESULT:      -5.0     23.062     23.543
REMARK  2 active torsions:
REMARK  status: ('A' for Active; 'I' for Inactive)
REMARK    1  A    between atoms: O_13  and  C_3 
REMARK    2  A    between atoms: O_14  and  C_4 
ROOT
HETATM    1  C   UNK N   1      44.558  21.924   3.325  0.00  0.00     0.142 A 
HETATM    2  C   UNK N   1      43.261  22.249   3.212  0.00  0.00     0.154 A 
HETATM    3  C   UNK N   1      44.945  20.599   3.376  0.00  0.00     0.175 A 
HETATM    4  C   UNK N   1      42.637  20.005   3.191  0.00  0.00     0.224 A 
HETATM    5  N   UNK N   1      42.276  21.325   3.143  0.00  0.00    -0.305 N 
ATOM      6  HN  UNK N   1      41.298  21.602   3.057  1.00  0.00     0.171 HD
HETATM    7  N   UNK N   1      43.963  19.647   3.307  0.00  0.00    -0.301 N 
ATOM      8  HN  UNK N   1      44.217  18.660   3.342  1.00  0.00     0.171 HD
HETATM    9  N   UNK N   1      45.272  23.056   3.369  0.00  0.00    -0.277 N 
ATOM     10  HN  UNK N   1      46.285  23.139   3.452  1.00  0.00     0.184 HD
HETATM   11  N   UNK N   1      43.146  23.580   3.184  0.00  0.00    -0.267 N 
HETATM   12  N   UNK N   1      44.389  24.052   3.281  0.00  0.00    -0.020 NA
HETATM   13  H   UNK N   1      42.316  24.104   3.107  0.00  0.00     0.186 HD
ENDROOT
BRANCH   3  14
HETATM   14  O   UNK N   1      46.238  20.249   3.489  0.00  0.00    -0.344 OA
HETATM   15  H   UNK N   1      46.910  20.866   3.278  0.00  0.00     0.219 HD
ENDBRANCH   3  14
BRANCH   4  16
HETATM   16  O   UNK N   1      41.692  19.054   3.126  0.00  0.00    -0.332 OA
HETATM   17  H   UNK N   1      41.722  18.411   2.445  0.00  0.00     0.221 HD
ENDBRANCH   4  16
TORSDOF 2
ENDMDL
MODEL 5
REMARK VINA RESULT:      -4.9     22.092     22.722
REMARK  2 active torsions:
REMARK  status: ('A' for Active; 'I' for Inactive)
REMARK    1  A    between atoms: O_13  and  C_3 
REMARK    2  A    between atoms: O_14  and  C_4 
ROOT
HETATM    1  C   UNK N   1      42.071  21.771   2.724  0.00  0.00     0.142 A 
HETATM    2  C   UNK N   1      42.698  22.955   2.651  0.00  0.00     0.154 A 
HETATM    3  C   UNK N   1      42.693  20.686   3.310  0.00  0.00     0.175 A 
HETATM    4  C   UNK N   1      44.580  22.095   3.719  0.00  0.00     0.224 A 
HETATM    5  N   UNK N   1      43.944  23.158   3.133  0.00  0.00    -0.305 N 
ATOM      6  HN  UNK N   1      44.396  24.070   3.063  1.00  0.00     0.171 HD
HETATM    7  N   UNK N   1      43.956  20.869   3.806  0.00  0.00    -0.301 N 
ATOM      8  HN  UNK N   1      44.443  20.088   4.245  1.00  0.00     0.171 HD
HETATM    9  N   UNK N   1      40.863  21.900   2.161  0.00  0.00    -0.277 N 
ATOM     10  HN  UNK N   1      40.151  21.175   2.063  1.00  0.00     0.184 HD
HETATM   11  N   UNK N   1      41.895  23.836   2.045  0.00  0.00    -0.267 N 
HETATM   12  N   UNK N   1      40.778  23.168   1.755  0.00  0.00    -0.020 NA
HETATM   13  H   UNK N   1      42.088  24.782   1.853  0.00  0.00     0.186 HD
ENDROOT
BRANCH   3  14
HETATM   14  O   UNK N   1      42.086  19.491   3.395  0.00  0.00    -0.344 OA
HETATM   15  H   UNK N   1      42.088  18.911   2.660  0.00  0.00     0.219 HD
ENDBRANCH   3  14
BRANCH   4  16
HETATM   16  O   UNK N   1      45.819  22.251   4.212  0.00  0.00    -0.332 OA
HETATM   17  H   UNK N   1      46.528  22.461   3.636  0.00  0.00     0.221 HD
ENDBRANCH   4  16
TORSDOF 2
ENDMDL
MODEL 6
REMARK VINA RESULT:      -4.9     14.527     15.419
REMARK  2 active torsions:
REMARK  status: ('A' for Active; 'I' for Inactive)
REMARK    1  A    between atoms: O_13  and  C_3 
REMARK    2  A    between atoms: O_14  and  C_4 
ROOT
HETATM    1  C   UNK N   1      34.551  17.225   9.352  0.00  0.00     0.142 A 
HETATM    2  C   UNK N   1      33.730  16.168   9.253  0.00  0.00     0.154 A 
HETATM    3  C   UNK N   1      34.549  18.206   8.380  0.00  0.00     0.175 A 
HETATM    4  C   UNK N   1      32.852  16.961   7.247  0.00  0.00     0.224 A 
HETATM    5  N   UNK N   1      32.871  16.000   8.223  0.00  0.00    -0.305 N 
ATOM      6  HN  UNK N   1      32.258  15.186   8.173  1.00  0.00     0.171 HD
HETATM    7  N   UNK N   1      33.686  18.056   7.328  0.00  0.00    -0.301 N 
ATOM      8  HN  UNK N   1      33.660  18.763   6.594  1.00  0.00     0.171 HD
HETATM    9  N   UNK N   1      35.267  17.095  10.477  0.00  0.00    -0.277 N 
ATOM     10  HN  UNK N   1      35.977  17.738  10.830  1.00  0.00     0.184 HD
HETATM   11  N   UNK N   1      33.920  15.368  10.307  0.00  0.00    -0.267 N 
HETATM   12  N   UNK N   1      34.865  15.956  11.041  0.00  0.00    -0.020 NA
HETATM   13  H   UNK N   1      33.458  14.520  10.500  0.00  0.00     0.186 HD
ENDROOT
BRANCH   3  14
HETATM   14  O   UNK N   1      35.362  19.273   8.459  0.00  0.00    -0.344 OA
HETATM   15  H   UNK N   1      35.051  20.073   8.834  0.00  0.00     0.219 HD
ENDBRANCH   3  14
BRANCH   4  16
HETATM   16  O   UNK N   1      32.014  16.835   6.206  0.00  0.00    -0.332 OA
HETATM   17  H   UNK N   1      32.244  17.200   5.374  0.00  0.00     0.221 HD
ENDBRANCH   4  16
TORSDOF 2
ENDMDL
MODEL 7
REMARK VINA RESULT:      -4.9     10.012     11.243
REMARK  2 active torsions:
REMARK  status: ('A' for Active; 'I' for Inactive)
REMARK    1  A    between atoms: O_13  and  C_3 
REMARK    2  A    between atoms: O_14  and  C_4 
ROOT
HETATM    1  C   UNK N   1      23.410  12.332  11.145  0.00  0.00     0.142 A 
HETATM    2  C   UNK N   1      23.167  13.082  10.059  0.00  0.00     0.154 A 
HETATM    3  C   UNK N   1      22.368  11.886  11.934  0.00  0.00     0.175 A 
HETATM    4  C   UNK N   1      20.872  13.008  10.445  0.00  0.00     0.224 A 
HETATM    5  N   UNK N   1      21.921  13.439   9.677  0.00  0.00    -0.305 N 
ATOM      6  HN  UNK N   1      21.766  14.010   8.846  1.00  0.00     0.171 HD
HETATM    7  N   UNK N   1      21.097  12.237  11.565  0.00  0.00    -0.301 N 
ATOM      8  HN  UNK N   1      20.306  11.923  12.127  1.00  0.00     0.171 HD
HETATM    9  N   UNK N   1      24.735  12.157  11.246  0.00  0.00    -0.277 N 
ATOM     10  HN  UNK N   1      25.230  11.632  11.967  1.00  0.00     0.184 HD
HETATM   11  N   UNK N   1      24.329  13.384   9.470  0.00  0.00    -0.267 N 
HETATM   12  N   UNK N   1      25.273  12.808  10.214  0.00  0.00    -0.020 NA
HETATM   13  H   UNK N   1      24.460  13.921   8.655  0.00  0.00     0.186 HD
ENDROOT
BRANCH   3  14
HETATM   14  O   UNK N   1      22.587  11.134  13.026  0.00  0.00    -0.344 OA
HETATM   15  H   UNK N   1      23.077  11.482  13.744  0.00  0.00     0.219 HD
ENDBRANCH   3  14
BRANCH   4  16
HETATM   16  O   UNK N   1      19.617  13.339  10.103  0.00  0.00    -0.332 OA
HETATM   17  H   UNK N   1      19.259  14.161  10.376  0.00  0.00     0.221 HD
ENDBRANCH   4  16
TORSDOF 2
ENDMDL
MODEL 8
REMARK VINA RESULT:      -4.9      2.011      4.104
REMARK  2 active torsions:
REMARK  status: ('A' for Active; 'I' for Inactive)
REMARK    1  A    between atoms: O_13  and  C_3 
REMARK    2  A    between atoms: O_14  and  C_4 
ROOT
HETATM    1  C   UNK N   1      20.079  17.936   3.228  0.00  0.00     0.142 A 
HETATM    2  C   UNK N   1      21.353  18.102   3.616  0.00  0.00     0.154 A 
HETATM    3  C   UNK N   1      19.376  18.987   2.672  0.00  0.00     0.175 A 
HETATM    4  C   UNK N   1      21.333  20.331   2.943  0.00  0.00     0.224 A 
HETATM    5  N   UNK N   1      22.011  19.275   3.492  0.00  0.00    -0.305 N 
ATOM      6  HN  UNK N   1      22.981  19.372   3.796  1.00  0.00     0.171 HD
HETATM    7  N   UNK N   1      20.024  20.185   2.537  0.00  0.00    -0.301 N 
ATOM      8  HN  UNK N   1      19.532  20.980   2.130  1.00  0.00     0.171 HD
HETATM    9  N   UNK N   1      19.723  16.670   3.484  0.00  0.00    -0.277 N 
ATOM     10  HN  UNK N   1      18.817  16.239   3.302  1.00  0.00     0.184 HD
HETATM   11  N   UNK N   1      21.808  16.949   4.117  0.00  0.00    -0.267 N 
HETATM   12  N   UNK N   1      20.794  16.089   4.026  0.00  0.00    -0.020 NA
HETATM   13  H   UNK N   1      22.707  16.773   4.479  0.00  0.00     0.186 HD
ENDROOT
BRANCH   3  14
HETATM   14  O   UNK N   1      18.099  18.845   2.276  0.00  0.00    -0.344 OA
HETATM   15  H   UNK N   1      17.680  19.527   1.791  0.00  0.00     0.219 HD
ENDBRANCH   3  14
BRANCH   4  16
HETATM   16  O   UNK N   1      21.948  21.515   2.800  0.00  0.00    -0.332 OA
HETATM   17  H   UNK N   1      21.475  22.310   2.951  0.00  0.00     0.221 HD
ENDBRANCH   4  16
TORSDOF 2
ENDMDL
MODEL 9
REMARK VINA RESULT:      -4.9      2.253      3.201
REMARK  2 active torsions:
REMARK  status: ('A' for Active; 'I' for Inactive)
REMARK    1  A    between atoms: O_13  and  C_3 
REMARK    2  A    between atoms: O_14  and  C_4 
ROOT
HETATM    1  C   UNK N   1      22.166  19.353   3.351  0.00  0.00     0.142 A 
HETATM    2  C   UNK N   1      21.634  18.129   3.489  0.00  0.00     0.154 A 
HETATM    3  C   UNK N   1      21.399  20.398   2.872  0.00  0.00     0.175 A 
HETATM    4  C   UNK N   1      19.571  18.868   2.702  0.00  0.00     0.224 A 
HETATM    5  N   UNK N   1      20.350  17.847   3.178  0.00  0.00    -0.305 N 
ATOM      6  HN  UNK N   1      19.973  16.906   3.294  1.00  0.00     0.171 HD
HETATM    7  N   UNK N   1      20.095  20.134   2.551  0.00  0.00    -0.301 N 
ATOM      8  HN  UNK N   1      19.503  20.884   2.195  1.00  0.00     0.171 HD
HETATM    9  N   UNK N   1      23.446  19.302   3.741  0.00  0.00    -0.277 N 
ATOM     10  HN  UNK N   1      24.115  20.072   3.753  1.00  0.00     0.184 HD
HETATM   11  N   UNK N   1      22.569  17.300   3.965  0.00  0.00    -0.267 N 
HETATM   12  N   UNK N   1      23.668  18.040   4.111  0.00  0.00    -0.020 NA
HETATM   13  H   UNK N   1      22.467  16.342   4.166  0.00  0.00     0.186 HD
ENDROOT
BRANCH   3  14
HETATM   14  O   UNK N   1      21.910  21.632   2.725  0.00  0.00    -0.344 OA
HETATM   15  H   UNK N   1      22.125  21.952   1.872  0.00  0.00     0.219 HD
ENDBRANCH   3  14
BRANCH   4  16
HETATM   16  O   UNK N   1      18.290  18.633   2.380  0.00  0.00    -0.332 OA
HETATM   17  H   UNK N   1      17.875  19.138   1.709  0.00  0.00     0.221 HD
ENDBRANCH   4  16
TORSDOF 2
ENDMDL
