MODEL 1
REMARK VINA RESULT:      -2.5      0.000      0.000
REMARK  3 active torsions:
REMARK  status: ('A' for Active; 'I' for Inactive)
REMARK    1  A    between atoms: N_2  and  C_5 
REMARK    2  A    between atoms: C_5  and  C_6 
REMARK    3  A    between atoms: C_6  and  S_7 
ROOT
HETATM    1  C   UNK N   1      24.796  12.789  10.109  0.00  0.00     0.271 C 
HETATM    2  N   UNK N   1      23.411  12.390   9.936  0.00  0.00    -0.078 N 
HETATM    3  C   UNK N   1      23.376  11.286   8.990  0.00  0.00     0.271 C 
HETATM    4  C   UNK N   1      22.900  11.950  11.222  0.00  0.00     0.271 C 
ENDROOT
BRANCH   2   5
HETATM    5  C   UNK N   1      22.660  13.555   9.448  0.00  0.00     0.245 C 
BRANCH   5   6
HETATM    6  C   UNK N   1      21.218  13.606   9.954  0.00  0.00     0.098 C 
BRANCH   6   7
HETATM    7  S   UNK N   1      20.312  14.928   9.098  0.00  0.00    -0.181 SA
HETATM    8  H   UNK N   1      20.963  15.746   8.227  0.00  0.00     0.101 HD
ENDBRANCH   6   7
ENDBRANCH   5   6
ENDBRANCH   2   5
TORSDOF 3
ENDMDL
MODEL 2
REMARK VINA RESULT:      -2.4     14.070     14.686
REMARK  3 active torsions:
REMARK  status: ('A' for Active; 'I' for Inactive)
REMARK    1  A    between atoms: N_2  and  C_5 
REMARK    2  A    between atoms: C_5  and  C_6 
REMARK    3  A    between atoms: C_6  and  S_7 
ROOT
HETATM    1  C   UNK N   1      36.991  12.244  14.438  0.00  0.00     0.271 C 
HETATM    2  N   UNK N   1      36.170  13.404  14.731  0.00  0.00    -0.078 N 
HETATM    3  C   UNK N   1      36.970  14.336  15.510  0.00  0.00     0.271 C 
HETATM    4  C   UNK N   1      35.788  14.021  13.473  0.00  0.00     0.271 C 
ENDROOT
BRANCH   2   5
HETATM    5  C   UNK N   1      34.985  12.949  15.469  0.00  0.00     0.245 C 
BRANCH   5   6
HETATM    6  C   UNK N   1      35.078  13.182  16.977  0.00  0.00     0.098 C 
BRANCH   6   7
HETATM    7  S   UNK N   1      35.333  11.597  17.829  0.00  0.00    -0.181 SA
HETATM    8  H   UNK N   1      35.053  11.483  19.156  0.00  0.00     0.101 HD
ENDBRANCH   6   7
ENDBRANCH   5   6
ENDBRANCH   2   5
TORSDOF 3
ENDMDL
MODEL 3
REMARK VINA RESULT:      -2.4     13.716     14.266
REMARK  3 active torsions:
REMARK  status: ('A' for Active; 'I' for Inactive)
REMARK    1  A    between atoms: N_2  and  C_5 
REMARK    2  A    between atoms: C_5  and  C_6 
REMARK    3  A    between atoms: C_6  and  S_7 
ROOT
HETATM    1  C   UNK N   1      35.958  13.885  13.527  0.00  0.00     0.271 C 
HETATM    2  N   UNK N   1      36.316  13.399  14.847  0.00  0.00    -0.078 N 
HETATM    3  C   UNK N   1      37.223  12.274  14.681  0.00  0.00     0.271 C 
HETATM    4  C   UNK N   1      36.991  14.471  15.559  0.00  0.00     0.271 C 
ENDROOT
BRANCH   2   5
HETATM    5  C   UNK N   1      35.081  13.010  15.540  0.00  0.00     0.245 C 
BRANCH   5   6
HETATM    6  C   UNK N   1      34.959  11.504  15.769  0.00  0.00     0.098 C 
BRANCH   6   7
HETATM    7  S   UNK N   1      33.750  10.802  14.608  0.00  0.00    -0.181 SA
HETATM    8  H   UNK N   1      33.554   9.456  14.558  0.00  0.00     0.101 HD
ENDBRANCH   6   7
ENDBRANCH   5   6
ENDBRANCH   2   5
TORSDOF 3
ENDMDL
MODEL 4
REMARK VINA RESULT:      -2.4     10.615     11.647
REMARK  3 active torsions:
REMARK  status: ('A' for Active; 'I' for Inactive)
REMARK    1  A    between atoms: N_2  and  C_5 
REMARK    2  A    between atoms: C_5  and  C_6 
REMARK    3  A    between atoms: C_6  and  S_7 
ROOT
HETATM    1  C   UNK N   1      34.669  16.083   7.457  0.00  0.00     0.271 C 
HETATM    2  N   UNK N   1      34.130  16.922   8.511  0.00  0.00    -0.078 N 
HETATM    3  C   UNK N   1      34.916  16.692   9.713  0.00  0.00     0.271 C 
HETATM    4  C   UNK N   1      34.260  18.309   8.100  0.00  0.00     0.271 C 
ENDROOT
BRANCH   2   5
HETATM    5  C   UNK N   1      32.719  16.565   8.701  0.00  0.00     0.245 C 
BRANCH   5   6
HETATM    6  C   UNK N   1      31.750  17.688   8.331  0.00  0.00     0.098 C 
BRANCH   6   7
HETATM    7  S   UNK N   1      30.553  17.088   7.102  0.00  0.00    -0.181 SA
HETATM    8  H   UNK N   1      29.412  17.790   6.863  0.00  0.00     0.101 HD
ENDBRANCH   6   7
ENDBRANCH   5   6
ENDBRANCH   2   5
TORSDOF 3
ENDMDL
MODEL 5
REMARK VINA RESULT:      -2.3     12.695     13.350
REMARK  3 active torsions:
REMARK  status: ('A' for Active; 'I' for Inactive)
REMARK    1  A    between atoms: N_2  and  C_5 
REMARK    2  A    between atoms: C_5  and  C_6 
REMARK    3  A    between atoms: C_6  and  S_7 
ROOT
HETATM    1  C   UNK N   1      35.055  12.589  12.650  0.00  0.00     0.271 C 
HETATM    2  N   UNK N   1      35.780  13.800  12.313  0.00  0.00    -0.078 N 
HETATM    3  C   UNK N   1      36.239  14.408  13.552  0.00  0.00     0.271 C 
HETATM    4  C   UNK N   1      36.923  13.434  11.495  0.00  0.00     0.271 C 
ENDROOT
BRANCH   2   5
HETATM    5  C   UNK N   1      34.871  14.684  11.572  0.00  0.00     0.245 C 
BRANCH   5   6
HETATM    6  C   UNK N   1      35.467  16.060  11.274  0.00  0.00     0.098 C 
BRANCH   6   7
HETATM    7  S   UNK N   1      34.847  16.666   9.678  0.00  0.00    -0.181 SA
HETATM    8  H   UNK N   1      34.983  17.979   9.346  0.00  0.00     0.101 HD
ENDBRANCH   6   7
ENDBRANCH   5   6
ENDBRANCH   2   5
TORSDOF 3
ENDMDL
MODEL 6
REMARK VINA RESULT:      -2.3     19.456     20.125
REMARK  3 active torsions:
REMARK  status: ('A' for Active; 'I' for Inactive)
REMARK    1  A    between atoms: N_2  and  C_5 
REMARK    2  A    between atoms: C_5  and  C_6 
REMARK    3  A    between atoms: C_6  and  S_7 
ROOT
HETATM    1  C   UNK N   1      26.347  24.392  -4.086  0.00  0.00     0.271 C 
HETATM    2  N   UNK N   1      26.464  25.744  -4.601  0.00  0.00    -0.078 N 
HETATM    3  C   UNK N   1      27.740  25.853  -5.289  0.00  0.00     0.271 C 
HETATM    4  C   UNK N   1      25.379  25.969  -5.540  0.00  0.00     0.271 C 
ENDROOT
BRANCH   2   5
HETATM    5  C   UNK N   1      26.371  26.672  -3.466  0.00  0.00     0.245 C 
BRANCH   5   6
HETATM    6  C   UNK N   1      25.554  27.928  -3.771  0.00  0.00     0.098 C 
BRANCH   6   7
HETATM    7  S   UNK N   1      26.635  29.388  -3.737  0.00  0.00    -0.181 SA
HETATM    8  H   UNK N   1      26.390  30.438  -4.568  0.00  0.00     0.101 HD
ENDBRANCH   6   7
ENDBRANCH   5   6
ENDBRANCH   2   5
TORSDOF 3
ENDMDL
MODEL 7
REMARK VINA RESULT:      -2.3     13.507     14.147
REMARK  3 active torsions:
REMARK  status: ('A' for Active; 'I' for Inactive)
REMARK    1  A    between atoms: N_2  and  C_5 
REMARK    2  A    between atoms: C_5  and  C_6 
REMARK    3  A    between atoms: C_6  and  S_7 
ROOT
HETATM    1  C   UNK N   1      36.862  12.003  15.009  0.00  0.00     0.271 C 
HETATM    2  N   UNK N   1      36.051  13.206  15.022  0.00  0.00    -0.078 N 
HETATM    3  C   UNK N   1      35.014  13.037  16.027  0.00  0.00     0.271 C 
HETATM    4  C   UNK N   1      36.904  14.326  15.381  0.00  0.00     0.271 C 
ENDROOT
BRANCH   2   5
HETATM    5  C   UNK N   1      35.488  13.390  13.678  0.00  0.00     0.245 C 
BRANCH   5   6
HETATM    6  C   UNK N   1      36.098  14.568  12.918  0.00  0.00     0.098 C 
BRANCH   6   7
HETATM    7  S   UNK N   1      35.082  14.951  11.460  0.00  0.00    -0.181 SA
HETATM    8  H   UNK N   1      35.317  16.083  10.743  0.00  0.00     0.101 HD
ENDBRANCH   6   7
ENDBRANCH   5   6
ENDBRANCH   2   5
TORSDOF 3
ENDMDL
MODEL 8
REMARK VINA RESULT:      -2.3      8.389      9.028
REMARK  3 active torsions:
REMARK  status: ('A' for Active; 'I' for Inactive)
REMARK    1  A    between atoms: N_2  and  C_5 
REMARK    2  A    between atoms: C_5  and  C_6 
REMARK    3  A    between atoms: C_6  and  S_7 
ROOT
HETATM    1  C   UNK N   1      21.593  17.508   3.582  0.00  0.00     0.271 C 
HETATM    2  N   UNK N   1      20.243  17.209   3.142  0.00  0.00    -0.078 N 
HETATM    3  C   UNK N   1      20.330  16.317   1.997  0.00  0.00     0.271 C 
HETATM    4  C   UNK N   1      19.547  16.542   4.230  0.00  0.00     0.271 C 
ENDROOT
BRANCH   2   5
HETATM    5  C   UNK N   1      19.583  18.476   2.802  0.00  0.00     0.245 C 
BRANCH   5   6
HETATM    6  C   UNK N   1      20.427  19.710   3.125  0.00  0.00     0.098 C 
BRANCH   6   7
HETATM    7  S   UNK N   1      20.799  20.618   1.597  0.00  0.00    -0.181 SA
HETATM    8  H   UNK N   1      21.973  21.294   1.474  0.00  0.00     0.101 HD
ENDBRANCH   6   7
ENDBRANCH   5   6
ENDBRANCH   2   5
TORSDOF 3
ENDMDL
MODEL 9
REMARK VINA RESULT:      -2.3     11.563     12.728
REMARK  3 active torsions:
REMARK  status: ('A' for Active; 'I' for Inactive)
REMARK    1  A    between atoms: N_2  and  C_5 
REMARK    2  A    between atoms: C_5  and  C_6 
REMARK    3  A    between atoms: C_6  and  S_7 
ROOT
HETATM    1  C   UNK N   1      34.709  16.059   7.559  0.00  0.00     0.271 C 
HETATM    2  N   UNK N   1      34.182  16.984   8.546  0.00  0.00    -0.078 N 
HETATM    3  C   UNK N   1      34.396  18.336   8.053  0.00  0.00     0.271 C 
HETATM    4  C   UNK N   1      32.758  16.735   8.688  0.00  0.00     0.271 C 
ENDROOT
BRANCH   2   5
HETATM    5  C   UNK N   1      34.882  16.746   9.814  0.00  0.00     0.245 C 
BRANCH   5   6
HETATM    6  C   UNK N   1      35.498  15.350   9.918  0.00  0.00     0.098 C 
BRANCH   6   7
HETATM    7  S   UNK N   1      34.773  14.461  11.327  0.00  0.00    -0.181 SA
HETATM    8  H   UNK N   1      33.771  13.563  11.125  0.00  0.00     0.101 HD
ENDBRANCH   6   7
ENDBRANCH   5   6
ENDBRANCH   2   5
TORSDOF 3
ENDMDL
