MODEL 1
REMARK VINA RESULT:      -8.0      0.000      0.000
REMARK  0 active torsions:
REMARK  status: ('A' for Active; 'I' for Inactive)
ROOT
HETATM    1  C   UNK N   1      21.921  11.938  11.394  0.00  0.00     0.034 A 
HETATM    2  C   UNK N   1      20.722  12.590  11.220  0.00  0.00     0.034 A 
HETATM    3  C   UNK N   1      23.647  11.685   7.737  0.00  0.00    -0.004 C 
HETATM    4  C   UNK N   1      24.103  12.460   6.643  0.00  0.00    -0.004 C 
HETATM    5  C   UNK N   1      19.326  16.254   8.620  0.00  0.00     0.034 A 
HETATM    6  C   UNK N   1      19.896  16.999   7.651  0.00  0.00     0.034 A 
HETATM    7  C   UNK N   1      24.820  16.127   5.079  0.00  0.00     0.034 A 
HETATM    8  C   UNK N   1      23.652  16.828   5.067  0.00  0.00     0.034 A 
HETATM    9  C   UNK N   1      24.021  11.877  10.051  0.00  0.00     0.029 C 
HETATM   10  C   UNK N   1      19.939  14.361   9.780  0.00  0.00     0.063 A 
HETATM   11  C   UNK N   1      25.629  14.266   6.520  0.00  0.00     0.029 C 
HETATM   12  C   UNK N   1      21.756  16.876   6.434  0.00  0.00     0.063 C 
HETATM   13  C   UNK N   1      22.750  12.408  10.423  0.00  0.00     0.055 A 
HETATM   14  C   UNK N   1      20.921  13.436  10.187  0.00  0.00     0.059 A 
HETATM   15  C   UNK N   1      24.437  12.061   8.805  0.00  0.00     0.123 C 
HETATM   16  C   UNK N   1      20.178  15.228   8.860  0.00  0.00     0.059 A 
HETATM   17  C   UNK N   1      25.157  13.195   7.144  0.00  0.00     0.123 C 
HETATM   18  C   UNK N   1      21.037  16.384   7.345  0.00  0.00     0.059 A 
HETATM   19  C   UNK N   1      24.721  15.259   6.131  0.00  0.00     0.055 A 
HETATM   20  C   UNK N   1      22.951  16.342   6.100  0.00  0.00     0.059 A 
HETATM   21 Fe   UNK N   1      22.972  14.321   8.261  0.00  0.00     0.000 Fe
HETATM   22  N   UNK N   1      22.171  13.352   9.731  0.00  0.00    -0.249 N 
HETATM   23  N   UNK N   1      24.813  13.248   8.399  0.00  0.00    -0.224 NA
HETATM   24  N   UNK N   1      21.277  15.323   8.120  0.00  0.00    -0.249 N 
HETATM   25  N   UNK N   1      23.595  15.398   6.758  0.00  0.00    -0.249 N 
ENDROOT
TORSDOF 0
ENDMDL
MODEL 2
REMARK VINA RESULT:      -7.8      6.665      9.195
REMARK  0 active torsions:
REMARK  status: ('A' for Active; 'I' for Inactive)
ROOT
HETATM    1  C   UNK N   1      27.648  14.686   3.939  0.00  0.00     0.034 A 
HETATM    2  C   UNK N   1      26.921  15.371   4.886  0.00  0.00     0.034 A 
HETATM    3  C   UNK N   1      31.016  16.839   3.278  0.00  0.00    -0.004 C 
HETATM    4  C   UNK N   1      32.156  17.384   3.917  0.00  0.00    -0.004 C 
HETATM    5  C   UNK N   1      28.028  17.712   8.813  0.00  0.00     0.034 A 
HETATM    6  C   UNK N   1      29.184  18.097   9.392  0.00  0.00     0.034 A 
HETATM    7  C   UNK N   1      34.384  17.734   7.282  0.00  0.00     0.034 A 
HETATM    8  C   UNK N   1      33.602  18.261   8.265  0.00  0.00     0.034 A 
HETATM    9  C   UNK N   1      30.069  14.687   3.342  0.00  0.00     0.029 C 
HETATM   10  C   UNK N   1      27.471  16.712   6.814  0.00  0.00     0.063 A 
HETATM   11  C   UNK N   1      33.835  16.392   5.260  0.00  0.00     0.029 C 
HETATM   12  C   UNK N   1      31.328  18.132   8.797  0.00  0.00     0.063 C 
HETATM   13  C   UNK N   1      28.955  14.976   4.185  0.00  0.00     0.055 A 
HETATM   14  C   UNK N   1      27.836  15.992   5.659  0.00  0.00     0.059 A 
HETATM   15  C   UNK N   1      31.136  15.471   3.423  0.00  0.00     0.123 C 
HETATM   16  C   UNK N   1      28.360  17.215   7.597  0.00  0.00     0.059 A 
HETATM   17  C   UNK N   1      32.880  16.291   4.344  0.00  0.00     0.123 C 
HETATM   18  C   UNK N   1      30.139  17.836   8.501  0.00  0.00     0.059 A 
HETATM   19  C   UNK N   1      33.534  17.047   6.460  0.00  0.00     0.055 A 
HETATM   20  C   UNK N   1      32.361  17.853   7.971  0.00  0.00     0.059 A 
HETATM   21 Fe   UNK N   1      30.744  16.358   5.994  0.00  0.00     0.000 Fe
HETATM   22  N   UNK N   1      29.076  15.715   5.254  0.00  0.00    -0.249 N 
HETATM   23  N   UNK N   1      31.917  15.424   4.473  0.00  0.00    -0.224 NA
HETATM   24  N   UNK N   1      29.675  17.227   7.407  0.00  0.00    -0.249 N 
HETATM   25  N   UNK N   1      32.310  17.107   6.884  0.00  0.00    -0.249 N 
ENDROOT
TORSDOF 0
ENDMDL
MODEL 3
REMARK VINA RESULT:      -7.7     16.124     17.606
REMARK  0 active torsions:
REMARK  status: ('A' for Active; 'I' for Inactive)
ROOT
HETATM    1  C   UNK N   1      32.275  21.313  -2.934  0.00  0.00     0.034 A 
HETATM    2  C   UNK N   1      32.519  20.598  -4.084  0.00  0.00     0.034 A 
HETATM    3  C   UNK N   1      30.267  24.652  -4.044  0.00  0.00    -0.004 C 
HETATM    4  C   UNK N   1      29.099  25.105  -4.703  0.00  0.00    -0.004 C 
HETATM    5  C   UNK N   1      30.018  19.654  -7.955  0.00  0.00     0.034 A 
HETATM    6  C   UNK N   1      28.835  20.081  -8.445  0.00  0.00     0.034 A 
HETATM    7  C   UNK N   1      25.562  24.200  -6.461  0.00  0.00     0.034 A 
HETATM    8  C   UNK N   1      25.801  23.354  -7.501  0.00  0.00     0.034 A 
HETATM    9  C   UNK N   1      30.584  23.050  -2.351  0.00  0.00     0.029 C 
HETATM   10  C   UNK N   1      31.324  20.231  -6.147  0.00  0.00     0.063 A 
HETATM   11  C   UNK N   1      26.806  24.631  -4.349  0.00  0.00     0.029 C 
HETATM   12  C   UNK N   1      27.379  21.681  -7.925  0.00  0.00     0.063 C 
HETATM   13  C   UNK N   1      31.123  22.003  -3.156  0.00  0.00     0.055 A 
HETATM   14  C   UNK N   1      31.482  20.872  -4.902  0.00  0.00     0.059 A 
HETATM   15  C   UNK N   1      29.816  23.959  -2.938  0.00  0.00     0.123 C 
HETATM   16  C   UNK N   1      30.280  20.427  -6.873  0.00  0.00     0.059 A 
HETATM   17  C   UNK N   1      28.056  24.684  -3.906  0.00  0.00     0.123 C 
HETATM   18  C   UNK N   1      28.459  21.086  -7.658  0.00  0.00     0.059 A 
HETATM   19  C   UNK N   1      26.559  23.963  -5.554  0.00  0.00     0.055 A 
HETATM   20  C   UNK N   1      26.901  22.677  -7.146  0.00  0.00     0.059 A 
HETATM   21 Fe   UNK N   1      28.973  22.417  -5.050  0.00  0.00     0.000 Fe
HETATM   22  N   UNK N   1      30.612  21.696  -4.317  0.00  0.00    -0.249 N 
HETATM   23  N   UNK N   1      28.611  23.648  -3.344  0.00  0.00    -0.224 NA
HETATM   24  N   UNK N   1      29.293  21.284  -6.635  0.00  0.00    -0.249 N 
HETATM   25  N   UNK N   1      27.362  23.031  -5.962  0.00  0.00    -0.249 N 
ENDROOT
TORSDOF 0
ENDMDL
MODEL 4
REMARK VINA RESULT:      -7.7      6.695      9.270
REMARK  0 active torsions:
REMARK  status: ('A' for Active; 'I' for Inactive)
ROOT
HETATM    1  C   UNK N   1      34.256  17.802   7.190  0.00  0.00     0.034 A 
HETATM    2  C   UNK N   1      33.542  17.853   8.365  0.00  0.00     0.034 A 
HETATM    3  C   UNK N   1      32.307  15.215   4.756  0.00  0.00    -0.004 C 
HETATM    4  C   UNK N   1      31.059  14.963   4.137  0.00  0.00    -0.004 C 
HETATM    5  C   UNK N   1      28.959  17.927   9.422  0.00  0.00     0.034 A 
HETATM    6  C   UNK N   1      27.821  17.772   8.713  0.00  0.00     0.034 A 
HETATM    7  C   UNK N   1      27.293  16.224   3.333  0.00  0.00     0.034 A 
HETATM    8  C   UNK N   1      26.646  16.432   4.514  0.00  0.00     0.034 A 
HETATM    9  C   UNK N   1      33.636  17.152   4.864  0.00  0.00     0.029 C 
HETATM   10  C   UNK N   1      31.204  17.730   8.945  0.00  0.00     0.063 A 
HETATM   11  C   UNK N   1      29.705  16.296   2.723  0.00  0.00     0.029 C 
HETATM   12  C   UNK N   1      27.308  17.132   6.645  0.00  0.00     0.063 C 
HETATM   13  C   UNK N   1      33.352  17.524   6.212  0.00  0.00     0.055 A 
HETATM   14  C   UNK N   1      32.257  17.643   8.013  0.00  0.00     0.059 A 
HETATM   15  C   UNK N   1      32.748  16.408   4.218  0.00  0.00     0.123 C 
HETATM   16  C   UNK N   1      29.975  17.626   8.578  0.00  0.00     0.059 A 
HETATM   17  C   UNK N   1      30.888  16.004   3.248  0.00  0.00     0.123 C 
HETATM   18  C   UNK N   1      28.201  17.372   7.501  0.00  0.00     0.059 A 
HETATM   19  C   UNK N   1      28.617  16.453   3.591  0.00  0.00     0.055 A 
HETATM   20  C   UNK N   1      27.612  16.772   5.378  0.00  0.00     0.059 A 
HETATM   21 Fe   UNK N   1      30.533  17.137   5.673  0.00  0.00     0.000 Fe
HETATM   22  N   UNK N   1      32.139  17.484   6.694  0.00  0.00    -0.249 N 
HETATM   23  N   UNK N   1      31.603  16.918   3.838  0.00  0.00    -0.224 NA
HETATM   24  N   UNK N   1      29.528  17.337   7.360  0.00  0.00    -0.249 N 
HETATM   25  N   UNK N   1      28.809  16.799   4.825  0.00  0.00    -0.249 N 
ENDROOT
TORSDOF 0
ENDMDL
MODEL 5
REMARK VINA RESULT:      -7.6     16.449     18.360
REMARK  0 active torsions:
REMARK  status: ('A' for Active; 'I' for Inactive)
ROOT
HETATM    1  C   UNK N   1      25.347  24.223  -8.944  0.00  0.00     0.034 A 
HETATM    2  C   UNK N   1      25.683  22.946  -9.331  0.00  0.00     0.034 A 
HETATM    3  C   UNK N   1      25.839  24.387  -4.926  0.00  0.00    -0.004 C 
HETATM    4  C   UNK N   1      26.789  24.207  -3.892  0.00  0.00    -0.004 C 
HETATM    5  C   UNK N   1      29.064  19.921  -8.086  0.00  0.00     0.034 A 
HETATM    6  C   UNK N   1      30.005  19.899  -7.119  0.00  0.00     0.034 A 
HETATM    7  C   UNK N   1      30.632  23.482  -2.831  0.00  0.00     0.034 A 
HETATM    8  C   UNK N   1      31.009  22.287  -3.364  0.00  0.00     0.034 A 
HETATM    9  C   UNK N   1      25.934  25.591  -6.944  0.00  0.00     0.029 C 
HETATM   10  C   UNK N   1      27.304  21.316  -8.600  0.00  0.00     0.063 A 
HETATM   11  C   UNK N   1      28.930  25.155  -3.538  0.00  0.00     0.029 C 
HETATM   12  C   UNK N   1      30.460  21.113  -5.311  0.00  0.00     0.063 C 
HETATM   13  C   UNK N   1      26.090  24.489  -7.835  0.00  0.00     0.055 A 
HETATM   14  C   UNK N   1      26.631  22.546  -8.459  0.00  0.00     0.059 A 
HETATM   15  C   UNK N   1      26.318  25.438  -5.683  0.00  0.00     0.123 C 
HETATM   16  C   UNK N   1      28.274  20.990  -7.821  0.00  0.00     0.059 A 
HETATM   17  C   UNK N   1      27.727  25.197  -4.096  0.00  0.00     0.123 C 
HETATM   18  C   UNK N   1      29.728  20.928  -6.321  0.00  0.00     0.059 A 
HETATM   19  C   UNK N   1      29.685  23.985  -3.681  0.00  0.00     0.055 A 
HETATM   20  C   UNK N   1      30.278  22.163  -4.480  0.00  0.00     0.059 A 
HETATM   21 Fe   UNK N   1      28.164  23.446  -6.104  0.00  0.00     0.000 Fe
HETATM   22  N   UNK N   1      26.907  23.504  -7.574  0.00  0.00    -0.249 N 
HETATM   23  N   UNK N   1      27.590  25.370  -5.380  0.00  0.00    -0.224 NA
HETATM   24  N   UNK N   1      28.706  21.665  -6.761  0.00  0.00    -0.249 N 
HETATM   25  N   UNK N   1      29.481  23.193  -4.688  0.00  0.00    -0.249 N 
ENDROOT
TORSDOF 0
ENDMDL
MODEL 6
REMARK VINA RESULT:      -7.5     15.959     18.008
REMARK  0 active torsions:
REMARK  status: ('A' for Active; 'I' for Inactive)
ROOT
HETATM    1  C   UNK N   1      25.928  26.096  -6.682  0.00  0.00     0.034 A 
HETATM    2  C   UNK N   1      25.639  25.091  -7.576  0.00  0.00     0.034 A 
HETATM    3  C   UNK N   1      27.305  24.301  -3.321  0.00  0.00    -0.004 C 
HETATM    4  C   UNK N   1      28.307  23.428  -2.831  0.00  0.00    -0.004 C 
HETATM    5  C   UNK N   1      27.728  21.045  -8.757  0.00  0.00     0.034 A 
HETATM    6  C   UNK N   1      28.769  20.339  -8.268  0.00  0.00     0.034 A 
HETATM    7  C   UNK N   1      31.678  21.301  -3.553  0.00  0.00     0.034 A 
HETATM    8  C   UNK N   1      31.426  20.419  -4.561  0.00  0.00     0.034 A 
HETATM    9  C   UNK N   1      27.428  26.207  -4.693  0.00  0.00     0.029 C 
HETATM   10  C   UNK N   1      26.598  22.937  -8.088  0.00  0.00     0.063 A 
HETATM   11  C   UNK N   1      30.669  23.502  -2.977  0.00  0.00     0.029 C 
HETATM   12  C   UNK N   1      30.049  20.440  -6.451  0.00  0.00     0.063 C 
HETATM   13  C   UNK N   1      26.938  25.625  -5.900  0.00  0.00     0.055 A 
HETATM   14  C   UNK N   1      26.515  24.103  -7.301  0.00  0.00     0.059 A 
HETATM   15  C   UNK N   1      27.984  25.407  -3.792  0.00  0.00     0.123 C 
HETATM   16  C   UNK N   1      27.504  22.049  -7.875  0.00  0.00     0.059 A 
HETATM   17  C   UNK N   1      29.491  24.111  -3.010  0.00  0.00     0.123 C 
HETATM   18  C   UNK N   1      29.103  20.932  -7.124  0.00  0.00     0.059 A 
HETATM   19  C   UNK N   1      30.848  22.365  -3.775  0.00  0.00     0.055 A 
HETATM   20  C   UNK N   1      30.483  21.012  -5.305  0.00  0.00     0.059 A 
HETATM   21 Fe   UNK N   1      28.751  23.402  -5.508  0.00  0.00     0.000 Fe
HETATM   22  N   UNK N   1      27.333  24.449  -6.306  0.00  0.00    -0.249 N 
HETATM   23  N   UNK N   1      29.158  24.872  -4.014  0.00  0.00    -0.224 NA
HETATM   24  N   UNK N   1      28.388  22.033  -6.883  0.00  0.00    -0.249 N 
HETATM   25  N   UNK N   1      30.134  22.197  -4.844  0.00  0.00    -0.249 N 
ENDROOT
TORSDOF 0
ENDMDL
MODEL 7
REMARK VINA RESULT:      -7.5     16.178     17.622
REMARK  0 active torsions:
REMARK  status: ('A' for Active; 'I' for Inactive)
ROOT
HETATM    1  C   UNK N   1      26.339  21.381  -9.263  0.00  0.00     0.034 A 
HETATM    2  C   UNK N   1      25.703  22.502  -8.782  0.00  0.00     0.034 A 
HETATM    3  C   UNK N   1      30.220  21.670  -8.136  0.00  0.00    -0.004 C 
HETATM    4  C   UNK N   1      31.066  21.799  -7.008  0.00  0.00    -0.004 C 
HETATM    5  C   UNK N   1      25.946  24.945  -4.769  0.00  0.00     0.034 A 
HETATM    6  C   UNK N   1      26.754  24.913  -3.688  0.00  0.00     0.034 A 
HETATM    7  C   UNK N   1      31.443  21.893  -2.976  0.00  0.00     0.034 A 
HETATM    8  C   UNK N   1      30.673  22.907  -2.493  0.00  0.00     0.034 A 
HETATM    9  C   UNK N   1      28.435  20.208  -8.592  0.00  0.00     0.029 C 
HETATM   10  C   UNK N   1      25.920  23.867  -6.804  0.00  0.00     0.063 A 
HETATM   11  C   UNK N   1      31.267  20.506  -5.035  0.00  0.00     0.029 C 
HETATM   12  C   UNK N   1      28.655  23.890  -3.151  0.00  0.00     0.063 C 
HETATM   13  C   UNK N   1      27.360  21.127  -8.400  0.00  0.00     0.055 A 
HETATM   14  C   UNK N   1      26.356  22.823  -7.645  0.00  0.00     0.059 A 
HETATM   15  C   UNK N   1      29.586  20.453  -7.981  0.00  0.00     0.123 C 
HETATM   16  C   UNK N   1      26.492  24.098  -5.675  0.00  0.00     0.059 A 
HETATM   17  C   UNK N   1      30.898  20.626  -6.304  0.00  0.00     0.123 C 
HETATM   18  C   UNK N   1      27.742  24.077  -4.000  0.00  0.00     0.059 A 
HETATM   19  C   UNK N   1      30.828  21.475  -4.124  0.00  0.00     0.055 A 
HETATM   20  C   UNK N   1      29.665  23.019  -3.369  0.00  0.00     0.059 A 
HETATM   21 Fe   UNK N   1      28.588  21.968  -5.916  0.00  0.00     0.000 Fe
HETATM   22  N   UNK N   1      27.339  21.959  -7.394  0.00  0.00    -0.249 N 
HETATM   23  N   UNK N   1      29.693  20.310  -6.683  0.00  0.00    -0.224 NA
HETATM   24  N   UNK N   1      27.577  23.502  -5.193  0.00  0.00    -0.249 N 
HETATM   25  N   UNK N   1      29.744  22.147  -4.356  0.00  0.00    -0.249 N 
ENDROOT
TORSDOF 0
ENDMDL
MODEL 8
REMARK VINA RESULT:      -7.4     17.394     19.207
REMARK  0 active torsions:
REMARK  status: ('A' for Active; 'I' for Inactive)
ROOT
HETATM    1  C   UNK N   1      25.397  24.465  -6.310  0.00  0.00     0.034 A 
HETATM    2  C   UNK N   1      26.296  23.555  -5.803  0.00  0.00     0.034 A 
HETATM    3  C   UNK N   1      25.501  27.689  -3.859  0.00  0.00    -0.004 C 
HETATM    4  C   UNK N   1      26.361  28.675  -3.319  0.00  0.00    -0.004 C 
HETATM    5  C   UNK N   1      30.587  23.887  -3.904  0.00  0.00     0.034 A 
HETATM    6  C   UNK N   1      31.373  24.912  -3.514  0.00  0.00     0.034 A 
HETATM    7  C   UNK N   1      30.041  30.369  -3.240  0.00  0.00     0.034 A 
HETATM    8  C   UNK N   1      30.949  29.412  -2.898  0.00  0.00     0.034 A 
HETATM    9  C   UNK N   1      25.175  26.936  -6.063  0.00  0.00     0.029 C 
HETATM   10  C   UNK N   1      28.425  23.708  -4.680  0.00  0.00     0.063 A 
HETATM   11  C   UNK N   1      27.819  30.229  -4.352  0.00  0.00     0.029 C 
HETATM   12  C   UNK N   1      31.115  27.107  -3.253  0.00  0.00     0.063 C 
HETATM   13  C   UNK N   1      25.868  25.693  -5.961  0.00  0.00     0.055 A 
HETATM   14  C   UNK N   1      27.264  24.293  -5.222  0.00  0.00     0.059 A 
HETATM   15  C   UNK N   1      25.504  27.908  -5.222  0.00  0.00     0.123 C 
HETATM   16  C   UNK N   1      29.386  24.429  -4.219  0.00  0.00     0.059 A 
HETATM   17  C   UNK N   1      26.765  29.426  -4.403  0.00  0.00     0.123 C 
HETATM   18  C   UNK N   1      30.612  26.002  -3.593  0.00  0.00     0.059 A 
HETATM   19  C   UNK N   1      29.028  29.706  -3.876  0.00  0.00     0.055 A 
HETATM   20  C   UNK N   1      30.427  28.266  -3.352  0.00  0.00     0.059 A 
HETATM   21 Fe   UNK N   1      28.071  27.082  -4.696  0.00  0.00     0.000 Fe
HETATM   22  N   UNK N   1      27.021  25.597  -5.357  0.00  0.00    -0.249 N 
HETATM   23  N   UNK N   1      26.648  28.534  -5.345  0.00  0.00    -0.224 NA
HETATM   24  N   UNK N   1      29.399  25.751  -4.090  0.00  0.00    -0.249 N 
HETATM   25  N   UNK N   1      29.266  28.435  -3.957  0.00  0.00    -0.249 N 
ENDROOT
TORSDOF 0
ENDMDL
MODEL 9
REMARK VINA RESULT:      -7.4     16.600     18.289
REMARK  0 active torsions:
REMARK  status: ('A' for Active; 'I' for Inactive)
ROOT
HETATM    1  C   UNK N   1      29.919  19.834  -8.467  0.00  0.00     0.034 A 
HETATM    2  C   UNK N   1      30.477  19.772  -7.211  0.00  0.00     0.034 A 
HETATM    3  C   UNK N   1      26.161  21.273  -7.999  0.00  0.00    -0.004 C 
HETATM    4  C   UNK N   1      25.422  22.372  -7.498  0.00  0.00    -0.004 C 
HETATM    5  C   UNK N   1      30.378  22.572  -3.432  0.00  0.00     0.034 A 
HETATM    6  C   UNK N   1      29.689  23.683  -3.094  0.00  0.00     0.034 A 
HETATM    7  C   UNK N   1      25.440  26.088  -5.884  0.00  0.00     0.034 A 
HETATM    8  C   UNK N   1      26.143  26.049  -4.717  0.00  0.00     0.034 A 
HETATM    9  C   UNK N   1      28.036  21.166  -9.415  0.00  0.00     0.029 C 
HETATM   10  C   UNK N   1      30.315  21.104  -5.206  0.00  0.00     0.063 A 
HETATM   11  C   UNK N   1      25.556  24.694  -7.942  0.00  0.00     0.029 C 
HETATM   12  C   UNK N   1      27.969  24.810  -3.944  0.00  0.00     0.063 C 
HETATM   13  C   UNK N   1      29.021  20.856  -8.430  0.00  0.00     0.055 A 
HETATM   14  C   UNK N   1      29.911  20.781  -6.517  0.00  0.00     0.059 A 
HETATM   15  C   UNK N   1      26.932  21.788  -9.023  0.00  0.00     0.123 C 
HETATM   16  C   UNK N   1      29.837  22.130  -4.593  0.00  0.00     0.059 A 
HETATM   17  C   UNK N   1      25.782  23.436  -8.298  0.00  0.00     0.123 C 
HETATM   18  C   UNK N   1      28.769  23.841  -4.044  0.00  0.00     0.059 A 
HETATM   19  C   UNK N   1      25.978  25.109  -6.673  0.00  0.00     0.055 A 
HETATM   20  C   UNK N   1      27.041  25.070  -4.891  0.00  0.00     0.059 A 
HETATM   21 Fe   UNK N   1      27.964  22.983  -6.774  0.00  0.00     0.000 Fe
HETATM   22  N   UNK N   1      29.054  21.466  -7.276  0.00  0.00    -0.249 N 
HETATM   23  N   UNK N   1      26.971  23.046  -8.662  0.00  0.00    -0.224 NA
HETATM   24  N   UNK N   1      28.875  22.939  -5.022  0.00  0.00    -0.249 N 
HETATM   25  N   UNK N   1      26.957  24.502  -6.078  0.00  0.00    -0.249 N 
ENDROOT
TORSDOF 0
ENDMDL
