REMARK  1 active torsions:
REMARK  status: ('A' for Active; 'I' for Inactive)
REMARK    1  A    between atoms: C_2  and  C_4 
ROOT
HETATM    1  C   UNK N   1       3.177  -0.887  -0.000  0.00  0.00     0.028 C 
HETATM    2  C   UNK N   1       1.666  -0.795   0.000  0.00  0.00     0.092 C 
HETATM    3 Cl   UNK N   1       0.719  -2.309  -0.000  0.00  0.00    -0.124 Cl
ENDROOT
BRANCH   2   4
HETATM    4  C   UNK N   1       1.036   0.593  -0.000  0.00  0.00     0.134 C 
HETATM    5 Cl   UNK N   1      -0.748   0.560   0.000  0.00  0.00    -0.129 Cl
ENDBRANCH   2   4
TORSDOF 1
