MODEL 1
REMARK VINA RESULT:      -7.2      0.000      0.000
REMARK  22 active torsions:
REMARK  status: ('A' for Active; 'I' for Inactive)
REMARK    1  A    between atoms: C_1  and  O_4 
REMARK    2  A    between atoms: C_2  and  N_6 
REMARK    3  A    between atoms: O_4  and  P_8 
REMARK    4  A    between atoms: C_5  and  O_10 
REMARK       I    between atoms: N_6  and  C_11 
REMARK    5  A    between atoms: C_7  and  C_12 
REMARK    6  A    between atoms: P_8  and  O_13 
REMARK    7  A    between atoms: P_8  and  O_14 
REMARK    8  A    between atoms: C_9  and  O_16 
REMARK    9  A    between atoms: O_10  and  C_17 
REMARK   10  A    between atoms: C_12  and  O_20 
REMARK   11  A    between atoms: O_13  and  P_21 
REMARK   12  A    between atoms: C_17  and  C_22 
REMARK   13  A    between atoms: P_21  and  O_24 
REMARK   14  A    between atoms: P_21  and  O_25 
REMARK       I    between atoms: C_22  and  N_27 
REMARK   15  A    between atoms: O_24  and  C_29 
REMARK   16  A    between atoms: C_30  and  N_27 
REMARK   17  A    between atoms: C_31  and  C_29 
REMARK   18  A    between atoms: C_30  and  C_32 
REMARK   19  A    between atoms: C_32  and  O_36 
REMARK   20  A    between atoms: C_35  and  O_40 
REMARK   21  A    between atoms: C_38  and  N_41 
REMARK   22  A    between atoms: C_39  and  O_42 
ROOT
HETATM    1  O   UNK N   1      23.650  16.065   3.351  0.00  0.00    -0.263 OA
ENDROOT
BRANCH   1   2
HETATM    2  C   UNK N   1      22.579  16.481   4.154  0.00  0.00     0.297 C 
HETATM    3  C   UNK N   1      21.941  15.227   4.843  0.00  0.00     0.171 C 
HETATM    4  C   UNK N   1      20.519  15.541   5.303  0.00  0.00     0.181 C 
HETATM    5  C   UNK N   1      19.719  16.154   4.168  0.00  0.00     0.180 C 
HETATM    6  C   UNK N   1      20.482  17.448   3.908  0.00  0.00     0.179 C 
HETATM    7  O   UNK N   1      21.689  17.128   3.265  0.00  0.00    -0.348 OA
BRANCH   3   8
HETATM    8  N   UNK N   1      22.726  14.853   6.000  0.00  0.00    -0.349 N 
HETATM    9  C   UNK N   1      23.599  13.819   6.004  0.00  0.00     0.214 C 
HETATM   10  C   UNK N   1      24.325  13.478   7.260  0.00  0.00     0.117 C 
HETATM   11  O   UNK N   1      23.784  13.150   4.999  0.00  0.00    -0.274 OA
HETATM   12  H   UNK N   1      22.620  15.379   6.826  0.00  0.00     0.163 HD
ENDBRANCH   3   8
BRANCH   4  13
HETATM   13  O   UNK N   1      19.874  14.462   5.928  0.00  0.00    -0.367 OA
BRANCH  13  14
HETATM   14  C   UNK N   1      20.044  13.427   4.997  0.00  0.00     0.209 C 
HETATM   15  C   UNK N   1      20.451  12.125   5.662  0.00  0.00     0.050 C 
BRANCH  14  16
HETATM   16  C   UNK N   1      18.897  13.260   4.035  0.00  0.00     0.247 C 
HETATM   17  N   UNK N   1      19.065  13.205   2.688  0.00  0.00    -0.345 N 
HETATM   18  H   UNK N   1      18.260  13.146   2.124  0.00  0.00     0.163 HD
HETATM   19  O   UNK N   1      17.765  13.231   4.488  0.00  0.00    -0.271 OA
BRANCH  17  20
HETATM   20  C   UNK N   1      20.350  13.226   2.031  0.00  0.00     0.178 C 
HETATM   21  C   UNK N   1      20.452  12.003   1.133  0.00  0.00     0.043 C 
BRANCH  20  22
HETATM   22  C   UNK N   1      20.514  14.514   1.259  0.00  0.00     0.163 C 
HETATM   23  O   UNK N   1      19.547  15.099   0.797  0.00  0.00    -0.648 OA
BRANCH  22  24
HETATM   24  O   UNK N   1      21.747  15.018   1.058  0.00  0.00    -0.775 OA
HETATM   25  H   UNK N   1      22.574  15.025   1.498  0.00  0.00     0.167 HD
ENDBRANCH  22  24
ENDBRANCH  20  22
ENDBRANCH  17  20
ENDBRANCH  14  16
ENDBRANCH  13  14
ENDBRANCH   4  13
BRANCH   5  26
HETATM   26  O   UNK N   1      18.413  16.423   4.577  0.00  0.00    -0.390 OA
HETATM   27  H   UNK N   1      17.683  16.384   3.940  0.00  0.00     0.210 HD
ENDBRANCH   5  26
BRANCH   6  28
HETATM   28  C   UNK N   1      19.709  18.469   3.083  0.00  0.00     0.198 C 
BRANCH  28  29
HETATM   29  O   UNK N   1      19.139  17.873   1.958  0.00  0.00    -0.398 OA
HETATM   30  H   UNK N   1      19.062  17.748   1.000  0.00  0.00     0.209 HD
ENDBRANCH  28  29
ENDBRANCH   6  28
ENDBRANCH   1   2
BRANCH   1  31
HETATM   31  P   UNK N   1      25.180  16.605   3.987  0.00  0.00     0.404 P 
HETATM   32  O   UNK N   1      26.196  15.430   4.011  0.00  0.00    -0.631 OA
BRANCH  31  33
HETATM   33  O   UNK N   1      25.914  17.890   3.047  0.00  0.00    -0.195 OA
BRANCH  33  34
HETATM   34  P   UNK N   1      25.398  19.488   3.595  0.00  0.00     0.401 P 
HETATM   35  O   UNK N   1      25.932  20.651   2.724  0.00  0.00    -0.631 OA
BRANCH  34  36
HETATM   36  O   UNK N   1      25.986  19.821   5.200  0.00  0.00    -0.294 OA
BRANCH  36  37
HETATM   37  C   UNK N   1      27.366  20.027   5.098  0.00  0.00     0.215 C 
BRANCH  37  38
HETATM   38  C   UNK N   1      28.089  19.215   6.163  0.00  0.00     0.180 C 
HETATM   39  O   UNK N   1      27.622  17.895   6.229  0.00  0.00    -0.353 OA
HETATM   40  C   UNK N   1      28.298  17.392   7.353  0.00  0.00     0.263 C 
HETATM   41  C   UNK N   1      28.375  18.545   8.358  0.00  0.00     0.198 C 
HETATM   42  C   UNK N   1      27.992  19.781   7.558  0.00  0.00     0.182 C 
BRANCH  40  43
HETATM   43  N   UNK N   1      29.650  16.870   7.028  0.00  0.00    -0.280 N 
HETATM   44  C   UNK N   1      29.903  15.895   6.066  0.00  0.00     0.331 A 
HETATM   45  N   UNK N   1      31.188  15.492   5.819  0.00  0.00    -0.275 N 
HETATM   46  O   UNK N   1      28.999  15.374   5.443  0.00  0.00    -0.246 OA
HETATM   47  C   UNK N   1      32.237  16.023   6.511  0.00  0.00     0.250 A 
HETATM   48  H   UNK N   1      31.359  14.808   5.131  0.00  0.00     0.173 HD
HETATM   49  O   UNK N   1      33.373  15.658   6.270  0.00  0.00    -0.268 OA
HETATM   50  C   UNK N   1      32.004  16.976   7.492  0.00  0.00     0.092 A 
HETATM   51  C   UNK N   1      30.696  17.384   7.737  0.00  0.00     0.104 A 
ENDBRANCH  40  43
BRANCH  41  52
HETATM   52  O   UNK N   1      27.478  18.318   9.407  0.00  0.00    -0.388 OA
HETATM   53  H   UNK N   1      26.564  18.054   9.216  0.00  0.00     0.210 HD
ENDBRANCH  41  52
BRANCH  42  54
HETATM   54  O   UNK N   1      26.668  20.152   7.821  0.00  0.00    -0.390 OA
HETATM   55  H   UNK N   1      25.909  19.844   7.302  0.00  0.00     0.210 HD
ENDBRANCH  42  54
ENDBRANCH  37  38
ENDBRANCH  36  37
ENDBRANCH  34  36
BRANCH  34  56
HETATM   56  O   UNK N   1      23.667  19.624   3.609  0.00  0.00    -0.307 OA
HETATM   57  H   UNK N   1      23.035  20.241   4.009  0.00  0.00     0.222 HD
ENDBRANCH  34  56
ENDBRANCH  33  34
ENDBRANCH  31  33
BRANCH  31  58
HETATM   58  O   UNK N   1      24.996  17.107   5.639  0.00  0.00    -0.307 OA
HETATM   59  H   UNK N   1      25.626  16.930   6.355  0.00  0.00     0.222 HD
ENDBRANCH  31  58
ENDBRANCH   1  31
TORSDOF 22
ENDMDL
MODEL 2
REMARK VINA RESULT:      -7.1      2.559      4.554
REMARK  22 active torsions:
REMARK  status: ('A' for Active; 'I' for Inactive)
REMARK    1  A    between atoms: C_1  and  O_4 
REMARK    2  A    between atoms: C_2  and  N_6 
REMARK    3  A    between atoms: O_4  and  P_8 
REMARK    4  A    between atoms: C_5  and  O_10 
REMARK       I    between atoms: N_6  and  C_11 
REMARK    5  A    between atoms: C_7  and  C_12 
REMARK    6  A    between atoms: P_8  and  O_13 
REMARK    7  A    between atoms: P_8  and  O_14 
REMARK    8  A    between atoms: C_9  and  O_16 
REMARK    9  A    between atoms: O_10  and  C_17 
REMARK   10  A    between atoms: C_12  and  O_20 
REMARK   11  A    between atoms: O_13  and  P_21 
REMARK   12  A    between atoms: C_17  and  C_22 
REMARK   13  A    between atoms: P_21  and  O_24 
REMARK   14  A    between atoms: P_21  and  O_25 
REMARK       I    between atoms: C_22  and  N_27 
REMARK   15  A    between atoms: O_24  and  C_29 
REMARK   16  A    between atoms: C_30  and  N_27 
REMARK   17  A    between atoms: C_31  and  C_29 
REMARK   18  A    between atoms: C_30  and  C_32 
REMARK   19  A    between atoms: C_32  and  O_36 
REMARK   20  A    between atoms: C_35  and  O_40 
REMARK   21  A    between atoms: C_38  and  N_41 
REMARK   22  A    between atoms: C_39  and  O_42 
ROOT
HETATM    1  O   UNK N   1      24.571  18.374   3.534  0.00  0.00    -0.263 OA
ENDROOT
BRANCH   1   2
HETATM    2  C   UNK N   1      23.284  18.456   4.084  0.00  0.00     0.297 C 
HETATM    3  C   UNK N   1      22.716  17.009   4.270  0.00  0.00     0.171 C 
HETATM    4  C   UNK N   1      21.193  17.047   4.380  0.00  0.00     0.181 C 
HETATM    5  C   UNK N   1      20.601  17.851   3.236  0.00  0.00     0.180 C 
HETATM    6  C   UNK N   1      21.178  19.237   3.493  0.00  0.00     0.179 C 
HETATM    7  O   UNK N   1      22.540  19.219   3.153  0.00  0.00    -0.348 OA
BRANCH   3   8
HETATM    8  N   UNK N   1      23.248  16.428   5.485  0.00  0.00    -0.349 N 
HETATM    9  C   UNK N   1      24.209  15.475   5.494  0.00  0.00     0.214 C 
HETATM   10  C   UNK N   1      24.659  14.900   6.793  0.00  0.00     0.117 C 
HETATM   11  O   UNK N   1      24.697  15.066   4.451  0.00  0.00    -0.274 OA
HETATM   12  H   UNK N   1      22.894  16.743   6.348  0.00  0.00     0.163 HD
ENDBRANCH   3   8
BRANCH   4  13
HETATM   13  O   UNK N   1      20.604  15.783   4.545  0.00  0.00    -0.367 OA
BRANCH  13  14
HETATM   14  C   UNK N   1      19.768  15.982   5.655  0.00  0.00     0.209 C 
HETATM   15  C   UNK N   1      18.350  15.513   5.389  0.00  0.00     0.050 C 
BRANCH  14  16
HETATM   16  C   UNK N   1      20.325  15.459   6.954  0.00  0.00     0.247 C 
HETATM   17  N   UNK N   1      20.057  16.032   8.156  0.00  0.00    -0.345 N 
HETATM   18  H   UNK N   1      20.500  15.662   8.953  0.00  0.00     0.163 HD
HETATM   19  O   UNK N   1      21.094  14.514   6.911  0.00  0.00    -0.271 OA
BRANCH  17  20
HETATM   20  C   UNK N   1      19.163  17.150   8.338  0.00  0.00     0.178 C 
HETATM   21  C   UNK N   1      18.169  16.798   9.434  0.00  0.00     0.043 C 
BRANCH  20  22
HETATM   22  C   UNK N   1      19.952  18.395   8.665  0.00  0.00     0.163 C 
HETATM   23  O   UNK N   1      19.886  18.911   9.770  0.00  0.00    -0.648 OA
BRANCH  22  24
HETATM   24  O   UNK N   1      20.728  18.960   7.720  0.00  0.00    -0.775 OA
HETATM   25  H   UNK N   1      21.641  19.023   7.517  0.00  0.00     0.167 HD
ENDBRANCH  22  24
ENDBRANCH  20  22
ENDBRANCH  17  20
ENDBRANCH  14  16
ENDBRANCH  13  14
ENDBRANCH   4  13
BRANCH   5  26
HETATM   26  O   UNK N   1      19.208  17.870   3.319  0.00  0.00    -0.390 OA
HETATM   27  H   UNK N   1      18.685  17.152   2.932  0.00  0.00     0.210 HD
ENDBRANCH   5  26
BRANCH   6  28
HETATM   28  C   UNK N   1      20.469  20.355   2.738  0.00  0.00     0.198 C 
BRANCH  28  29
HETATM   29  O   UNK N   1      20.234  19.990   1.413  0.00  0.00    -0.398 OA
HETATM   30  H   UNK N   1      20.089  20.201   0.478  0.00  0.00     0.209 HD
ENDBRANCH  28  29
ENDBRANCH   6  28
ENDBRANCH   1   2
BRANCH   1  31
HETATM   31  P   UNK N   1      25.340  19.936   3.458  0.00  0.00     0.404 P 
HETATM   32  O   UNK N   1      24.832  20.841   4.613  0.00  0.00    -0.631 OA
BRANCH  31  33
HETATM   33  O   UNK N   1      27.086  19.864   3.601  0.00  0.00    -0.195 OA
BRANCH  33  34
HETATM   34  P   UNK N   1      27.600  19.440   5.237  0.00  0.00     0.401 P 
HETATM   35  O   UNK N   1      28.004  20.658   6.101  0.00  0.00    -0.631 OA
BRANCH  34  36
HETATM   36  O   UNK N   1      29.011  18.420   5.207  0.00  0.00    -0.294 OA
BRANCH  36  37
HETATM   37  C   UNK N   1      28.894  17.526   6.276  0.00  0.00     0.215 C 
BRANCH  37  38
HETATM   38  C   UNK N   1      30.157  16.683   6.384  0.00  0.00     0.180 C 
HETATM   39  O   UNK N   1      31.242  17.270   5.721  0.00  0.00    -0.353 OA
HETATM   40  C   UNK N   1      32.227  16.273   5.813  0.00  0.00     0.263 C 
HETATM   41  C   UNK N   1      31.496  14.934   5.678  0.00  0.00     0.198 C 
HETATM   42  C   UNK N   1      30.024  15.281   5.845  0.00  0.00     0.182 C 
BRANCH  40  43
HETATM   43  N   UNK N   1      32.999  16.340   7.080  0.00  0.00    -0.280 N 
HETATM   44  C   UNK N   1      33.987  17.284   7.347  0.00  0.00     0.331 A 
HETATM   45  N   UNK N   1      34.630  17.281   8.556  0.00  0.00    -0.275 N 
HETATM   46  O   UNK N   1      34.307  18.113   6.519  0.00  0.00    -0.246 OA
HETATM   47  C   UNK N   1      34.329  16.355   9.511  0.00  0.00     0.250 A 
HETATM   48  H   UNK N   1      35.321  17.959   8.740  0.00  0.00     0.173 HD
HETATM   49  O   UNK N   1      34.906  16.375  10.583  0.00  0.00    -0.268 OA
HETATM   50  C   UNK N   1      33.368  15.388   9.255  0.00  0.00     0.092 A 
HETATM   51  C   UNK N   1      32.715  15.398   8.025  0.00  0.00     0.104 A 
ENDBRANCH  40  43
BRANCH  41  52
HETATM   52  O   UNK N   1      31.751  14.380   4.419  0.00  0.00    -0.388 OA
HETATM   53  H   UNK N   1      32.646  14.414   4.046  0.00  0.00     0.210 HD
ENDBRANCH  41  52
BRANCH  42  54
HETATM   54  O   UNK N   1      29.379  15.316   4.602  0.00  0.00    -0.390 OA
HETATM   55  H   UNK N   1      28.427  15.468   4.493  0.00  0.00     0.210 HD
ENDBRANCH  42  54
ENDBRANCH  37  38
ENDBRANCH  36  37
ENDBRANCH  34  36
BRANCH  34  56
HETATM   56  O   UNK N   1      26.343  18.608   6.098  0.00  0.00    -0.307 OA
HETATM   57  H   UNK N   1      25.382  18.718   6.176  0.00  0.00     0.222 HD
ENDBRANCH  34  56
ENDBRANCH  33  34
ENDBRANCH  31  33
BRANCH  31  58
HETATM   58  O   UNK N   1      24.897  20.748   1.988  0.00  0.00    -0.307 OA
HETATM   59  H   UNK N   1      25.416  20.751   1.168  0.00  0.00     0.222 HD
ENDBRANCH  31  58
ENDBRANCH   1  31
TORSDOF 22
ENDMDL
MODEL 3
REMARK VINA RESULT:      -7.1      2.963     10.741
REMARK  22 active torsions:
REMARK  status: ('A' for Active; 'I' for Inactive)
REMARK    1  A    between atoms: C_1  and  O_4 
REMARK    2  A    between atoms: C_2  and  N_6 
REMARK    3  A    between atoms: O_4  and  P_8 
REMARK    4  A    between atoms: C_5  and  O_10 
REMARK       I    between atoms: N_6  and  C_11 
REMARK    5  A    between atoms: C_7  and  C_12 
REMARK    6  A    between atoms: P_8  and  O_13 
REMARK    7  A    between atoms: P_8  and  O_14 
REMARK    8  A    between atoms: C_9  and  O_16 
REMARK    9  A    between atoms: O_10  and  C_17 
REMARK   10  A    between atoms: C_12  and  O_20 
REMARK   11  A    between atoms: O_13  and  P_21 
REMARK   12  A    between atoms: C_17  and  C_22 
REMARK   13  A    between atoms: P_21  and  O_24 
REMARK   14  A    between atoms: P_21  and  O_25 
REMARK       I    between atoms: C_22  and  N_27 
REMARK   15  A    between atoms: O_24  and  C_29 
REMARK   16  A    between atoms: C_30  and  N_27 
REMARK   17  A    between atoms: C_31  and  C_29 
REMARK   18  A    between atoms: C_30  and  C_32 
REMARK   19  A    between atoms: C_32  and  O_36 
REMARK   20  A    between atoms: C_35  and  O_40 
REMARK   21  A    between atoms: C_38  and  N_41 
REMARK   22  A    between atoms: C_39  and  O_42 
ROOT
HETATM    1  O   UNK N   1      28.512  16.971   4.524  0.00  0.00    -0.263 OA
ENDROOT
BRANCH   1   2
HETATM    2  C   UNK N   1      29.296  17.587   5.508  0.00  0.00     0.297 C 
HETATM    3  C   UNK N   1      30.492  16.644   5.872  0.00  0.00     0.171 C 
HETATM    4  C   UNK N   1      31.064  17.014   7.239  0.00  0.00     0.181 C 
HETATM    5  C   UNK N   1      29.953  17.105   8.269  0.00  0.00     0.180 C 
HETATM    6  C   UNK N   1      29.112  18.253   7.726  0.00  0.00     0.179 C 
HETATM    7  O   UNK N   1      28.415  17.796   6.596  0.00  0.00    -0.348 OA
BRANCH   3   8
HETATM    8  N   UNK N   1      31.541  16.782   4.884  0.00  0.00    -0.349 N 
HETATM    9  C   UNK N   1      31.879  15.801   4.015  0.00  0.00     0.214 C 
HETATM   10  C   UNK N   1      33.007  16.017   3.067  0.00  0.00     0.117 C 
HETATM   11  O   UNK N   1      31.284  14.733   4.013  0.00  0.00    -0.274 OA
HETATM   12  H   UNK N   1      32.033  17.634   4.840  0.00  0.00     0.163 HD
ENDBRANCH   3   8
BRANCH   4  13
HETATM   13  O   UNK N   1      32.141  16.208   7.641  0.00  0.00    -0.367 OA
BRANCH  13  14
HETATM   14  C   UNK N   1      33.252  16.956   7.221  0.00  0.00     0.209 C 
HETATM   15  C   UNK N   1      33.372  18.267   7.975  0.00  0.00     0.050 C 
BRANCH  14  16
HETATM   16  C   UNK N   1      34.544  16.182   7.180  0.00  0.00     0.247 C 
HETATM   17  N   UNK N   1      35.099  15.613   8.282  0.00  0.00    -0.345 N 
HETATM   18  H   UNK N   1      35.971  15.168   8.182  0.00  0.00     0.163 HD
HETATM   19  O   UNK N   1      35.142  16.116   6.120  0.00  0.00    -0.271 OA
BRANCH  17  20
HETATM   20  C   UNK N   1      34.489  15.620   9.590  0.00  0.00     0.178 C 
HETATM   21  C   UNK N   1      34.248  14.180  10.017  0.00  0.00     0.043 C 
BRANCH  20  22
HETATM   22  C   UNK N   1      35.370  16.362  10.567  0.00  0.00     0.163 C 
HETATM   23  O   UNK N   1      35.796  15.815  11.572  0.00  0.00    -0.648 OA
BRANCH  22  24
HETATM   24  O   UNK N   1      35.677  17.654  10.339  0.00  0.00    -0.775 OA
HETATM   25  H   UNK N   1      35.579  18.280   9.648  0.00  0.00     0.167 HD
ENDBRANCH  22  24
ENDBRANCH  20  22
ENDBRANCH  17  20
ENDBRANCH  14  16
ENDBRANCH  13  14
ENDBRANCH   4  13
BRANCH   5  26
HETATM   26  O   UNK N   1      30.473  17.421   9.525  0.00  0.00    -0.390 OA
HETATM   27  H   UNK N   1      31.321  17.049   9.811  0.00  0.00     0.210 HD
ENDBRANCH   5  26
BRANCH   6  28
HETATM   28  C   UNK N   1      28.134  18.839   8.737  0.00  0.00     0.198 C 
BRANCH  28  29
HETATM   29  O   UNK N   1      27.481  17.829   9.442  0.00  0.00    -0.398 OA
HETATM   30  H   UNK N   1      26.722  17.248   9.603  0.00  0.00     0.209 HD
ENDBRANCH  28  29
ENDBRANCH   6  28
ENDBRANCH   1   2
BRANCH   1  31
HETATM   31  P   UNK N   1      27.027  17.841   4.246  0.00  0.00     0.404 P 
HETATM   32  O   UNK N   1      27.333  19.277   3.741  0.00  0.00    -0.631 OA
BRANCH  31  33
HETATM   33  O   UNK N   1      25.991  17.091   3.047  0.00  0.00    -0.195 OA
BRANCH  33  34
HETATM   34  P   UNK N   1      25.709  15.381   3.392  0.00  0.00     0.401 P 
HETATM   35  O   UNK N   1      26.242  14.426   2.298  0.00  0.00    -0.631 OA
BRANCH  34  36
HETATM   36  O   UNK N   1      24.006  15.036   3.501  0.00  0.00    -0.294 OA
BRANCH  36  37
HETATM   37  C   UNK N   1      23.609  15.333   4.809  0.00  0.00     0.215 C 
BRANCH  37  38
HETATM   38  C   UNK N   1      22.726  16.573   4.812  0.00  0.00     0.180 C 
HETATM   39  O   UNK N   1      23.446  17.733   5.125  0.00  0.00    -0.353 OA
HETATM   40  C   UNK N   1      22.432  18.700   5.225  0.00  0.00     0.263 C 
HETATM   41  C   UNK N   1      21.227  17.994   5.854  0.00  0.00     0.198 C 
HETATM   42  C   UNK N   1      21.562  16.512   5.770  0.00  0.00     0.182 C 
BRANCH  40  43
HETATM   43  N   UNK N   1      22.079  19.303   3.914  0.00  0.00    -0.280 N 
HETATM   44  C   UNK N   1      22.968  20.018   3.115  0.00  0.00     0.331 A 
HETATM   45  N   UNK N   1      22.556  20.518   1.908  0.00  0.00    -0.275 N 
HETATM   46  O   UNK N   1      24.111  20.224   3.472  0.00  0.00    -0.246 OA
HETATM   47  C   UNK N   1      21.276  20.340   1.473  0.00  0.00     0.250 A 
HETATM   48  H   UNK N   1      23.194  21.014   1.346  0.00  0.00     0.173 HD
HETATM   49  O   UNK N   1      20.932  20.785   0.393  0.00  0.00    -0.268 OA
HETATM   50  C   UNK N   1      20.367  19.655   2.266  0.00  0.00     0.092 A 
HETATM   51  C   UNK N   1      20.792  19.146   3.490  0.00  0.00     0.104 A 
ENDBRANCH  40  43
BRANCH  41  52
HETATM   52  O   UNK N   1      21.076  18.409   7.181  0.00  0.00    -0.388 OA
HETATM   53  H   UNK N   1      21.747  18.977   7.592  0.00  0.00     0.210 HD
ENDBRANCH  41  52
BRANCH  42  54
HETATM   54  O   UNK N   1      22.001  16.032   7.011  0.00  0.00    -0.390 OA
HETATM   55  H   UNK N   1      21.800  16.462   7.856  0.00  0.00     0.210 HD
ENDBRANCH  42  54
ENDBRANCH  37  38
ENDBRANCH  36  37
ENDBRANCH  34  36
BRANCH  34  56
HETATM   56  O   UNK N   1      26.459  14.905   4.884  0.00  0.00    -0.307 OA
HETATM   57  H   UNK N   1      27.371  14.890   5.213  0.00  0.00     0.222 HD
ENDBRANCH  34  56
ENDBRANCH  33  34
ENDBRANCH  31  33
BRANCH  31  58
HETATM   58  O   UNK N   1      26.163  18.037   5.739  0.00  0.00    -0.307 OA
HETATM   59  H   UNK N   1      26.567  18.095   6.619  0.00  0.00     0.222 HD
ENDBRANCH  31  58
ENDBRANCH   1  31
TORSDOF 22
ENDMDL
MODEL 4
REMARK VINA RESULT:      -7.1      1.924      2.949
REMARK  22 active torsions:
REMARK  status: ('A' for Active; 'I' for Inactive)
REMARK    1  A    between atoms: C_1  and  O_4 
REMARK    2  A    between atoms: C_2  and  N_6 
REMARK    3  A    between atoms: O_4  and  P_8 
REMARK    4  A    between atoms: C_5  and  O_10 
REMARK       I    between atoms: N_6  and  C_11 
REMARK    5  A    between atoms: C_7  and  C_12 
REMARK    6  A    between atoms: P_8  and  O_13 
REMARK    7  A    between atoms: P_8  and  O_14 
REMARK    8  A    between atoms: C_9  and  O_16 
REMARK    9  A    between atoms: O_10  and  C_17 
REMARK   10  A    between atoms: C_12  and  O_20 
REMARK   11  A    between atoms: O_13  and  P_21 
REMARK   12  A    between atoms: C_17  and  C_22 
REMARK   13  A    between atoms: P_21  and  O_24 
REMARK   14  A    between atoms: P_21  and  O_25 
REMARK       I    between atoms: C_22  and  N_27 
REMARK   15  A    between atoms: O_24  and  C_29 
REMARK   16  A    between atoms: C_30  and  N_27 
REMARK   17  A    between atoms: C_31  and  C_29 
REMARK   18  A    between atoms: C_30  and  C_32 
REMARK   19  A    between atoms: C_32  and  O_36 
REMARK   20  A    between atoms: C_35  and  O_40 
REMARK   21  A    between atoms: C_38  and  N_41 
REMARK   22  A    between atoms: C_39  and  O_42 
ROOT
HETATM    1  O   UNK N   1      25.193  18.546   3.550  0.00  0.00    -0.263 OA
ENDROOT
BRANCH   1   2
HETATM    2  C   UNK N   1      24.006  18.612   4.291  0.00  0.00     0.297 C 
HETATM    3  C   UNK N   1      23.556  17.160   4.666  0.00  0.00     0.171 C 
HETATM    4  C   UNK N   1      22.070  17.137   5.015  0.00  0.00     0.181 C 
HETATM    5  C   UNK N   1      21.262  17.822   3.928  0.00  0.00     0.180 C 
HETATM    6  C   UNK N   1      21.792  19.249   3.993  0.00  0.00     0.179 C 
HETATM    7  O   UNK N   1      23.083  19.266   3.440  0.00  0.00    -0.348 OA
BRANCH   3   8
HETATM    8  N   UNK N   1      24.304  16.699   5.817  0.00  0.00    -0.349 N 
HETATM    9  C   UNK N   1      25.274  15.757   5.746  0.00  0.00     0.214 C 
HETATM   10  C   UNK N   1      25.954  15.310   6.994  0.00  0.00     0.117 C 
HETATM   11  O   UNK N   1      25.583  15.255   4.676  0.00  0.00    -0.274 OA
HETATM   12  H   UNK N   1      24.098  17.092   6.696  0.00  0.00     0.163 HD
ENDBRANCH   3   8
BRANCH   4  13
HETATM   13  O   UNK N   1      21.587  15.864   5.360  0.00  0.00    -0.367 OA
BRANCH  13  14
HETATM   14  C   UNK N   1      21.409  15.259   4.106  0.00  0.00     0.209 C 
HETATM   15  C   UNK N   1      22.304  14.046   3.930  0.00  0.00     0.050 C 
BRANCH  14  16
HETATM   16  C   UNK N   1      19.973  14.985   3.745  0.00  0.00     0.247 C 
HETATM   17  N   UNK N   1      19.499  15.083   2.476  0.00  0.00    -0.345 N 
HETATM   18  H   UNK N   1      18.537  14.938   2.329  0.00  0.00     0.163 HD
HETATM   19  O   UNK N   1      19.193  14.721   4.645  0.00  0.00    -0.271 OA
BRANCH  17  20
HETATM   20  C   UNK N   1      20.319  15.385   1.327  0.00  0.00     0.178 C 
HETATM   21  C   UNK N   1      20.216  14.228   0.344  0.00  0.00     0.043 C 
BRANCH  20  22
HETATM   22  C   UNK N   1      19.886  16.694   0.712  0.00  0.00     0.163 C 
HETATM   23  O   UNK N   1      20.377  17.092  -0.333  0.00  0.00    -0.648 OA
BRANCH  22  24
HETATM   24  O   UNK N   1      18.955  17.446   1.331  0.00  0.00    -0.775 OA
HETATM   25  H   UNK N   1      18.384  18.158   1.119  0.00  0.00     0.167 HD
ENDBRANCH  22  24
ENDBRANCH  20  22
ENDBRANCH  17  20
ENDBRANCH  14  16
ENDBRANCH  13  14
ENDBRANCH   4  13
BRANCH   5  26
HETATM   26  O   UNK N   1      19.900  17.785   4.231  0.00  0.00    -0.390 OA
HETATM   27  H   UNK N   1      19.278  17.338   3.636  0.00  0.00     0.210 HD
ENDBRANCH   5  26
BRANCH   6  28
HETATM   28  C   UNK N   1      20.911  20.271   3.285  0.00  0.00     0.198 C 
BRANCH  28  29
HETATM   29  O   UNK N   1      20.461  19.779   2.061  0.00  0.00    -0.398 OA
HETATM   30  H   UNK N   1      19.759  19.579   1.422  0.00  0.00     0.209 HD
ENDBRANCH  28  29
ENDBRANCH   6  28
ENDBRANCH   1   2
BRANCH   1  31
HETATM   31  P   UNK N   1      26.147  19.994   3.729  0.00  0.00     0.404 P 
HETATM   32  O   UNK N   1      25.979  20.903   2.481  0.00  0.00    -0.631 OA
BRANCH  31  33
HETATM   33  O   UNK N   1      25.700  20.958   5.123  0.00  0.00    -0.195 OA
BRANCH  33  34
HETATM   34  P   UNK N   1      26.809  20.718   6.477  0.00  0.00     0.401 P 
HETATM   35  O   UNK N   1      28.062  21.624   6.428  0.00  0.00    -0.631 OA
BRANCH  34  36
HETATM   36  O   UNK N   1      27.429  19.091   6.499  0.00  0.00    -0.294 OA
BRANCH  36  37
HETATM   37  C   UNK N   1      28.081  18.916   7.724  0.00  0.00     0.215 C 
BRANCH  37  38
HETATM   38  C   UNK N   1      29.394  18.178   7.510  0.00  0.00     0.180 C 
HETATM   39  O   UNK N   1      29.202  16.803   7.319  0.00  0.00    -0.353 OA
HETATM   40  C   UNK N   1      30.519  16.314   7.302  0.00  0.00     0.263 C 
HETATM   41  C   UNK N   1      31.299  17.148   8.323  0.00  0.00     0.198 C 
HETATM   42  C   UNK N   1      30.389  18.327   8.635  0.00  0.00     0.182 C 
BRANCH  40  43
HETATM   43  N   UNK N   1      31.145  16.388   5.957  0.00  0.00    -0.280 N 
HETATM   44  C   UNK N   1      30.641  15.755   4.823  0.00  0.00     0.331 A 
HETATM   45  N   UNK N   1      31.275  15.900   3.618  0.00  0.00    -0.275 N 
HETATM   46  O   UNK N   1      29.648  15.058   4.879  0.00  0.00    -0.246 OA
HETATM   47  C   UNK N   1      32.410  16.649   3.506  0.00  0.00     0.250 A 
HETATM   48  H   UNK N   1      30.906  15.457   2.820  0.00  0.00     0.173 HD
HETATM   49  O   UNK N   1      32.953  16.772   2.423  0.00  0.00    -0.268 OA
HETATM   50  C   UNK N   1      32.944  17.264   4.628  0.00  0.00     0.092 A 
HETATM   51  C   UNK N   1      32.293  17.116   5.850  0.00  0.00     0.104 A 
ENDBRANCH  40  43
BRANCH  41  52
HETATM   52  O   UNK N   1      31.552  16.382   9.466  0.00  0.00    -0.388 OA
HETATM   53  H   UNK N   1      31.565  16.803  10.340  0.00  0.00     0.210 HD
ENDBRANCH  41  52
BRANCH  42  54
HETATM   54  O   UNK N   1      29.739  18.141   9.862  0.00  0.00    -0.390 OA
HETATM   55  H   UNK N   1      28.933  17.613   9.969  0.00  0.00     0.210 HD
ENDBRANCH  42  54
ENDBRANCH  37  38
ENDBRANCH  36  37
ENDBRANCH  34  36
BRANCH  34  56
HETATM   56  O   UNK N   1      26.026  21.024   7.996  0.00  0.00    -0.307 OA
HETATM   57  H   UNK N   1      25.374  20.549   8.535  0.00  0.00     0.222 HD
ENDBRANCH  34  56
ENDBRANCH  33  34
ENDBRANCH  31  33
BRANCH  31  58
HETATM   58  O   UNK N   1      27.834  19.592   3.801  0.00  0.00    -0.307 OA
HETATM   59  H   UNK N   1      28.528  19.972   3.239  0.00  0.00     0.222 HD
ENDBRANCH  31  58
ENDBRANCH   1  31
TORSDOF 22
ENDMDL
MODEL 5
REMARK VINA RESULT:      -7.0      4.896      9.049
REMARK  22 active torsions:
REMARK  status: ('A' for Active; 'I' for Inactive)
REMARK    1  A    between atoms: C_1  and  O_4 
REMARK    2  A    between atoms: C_2  and  N_6 
REMARK    3  A    between atoms: O_4  and  P_8 
REMARK    4  A    between atoms: C_5  and  O_10 
REMARK       I    between atoms: N_6  and  C_11 
REMARK    5  A    between atoms: C_7  and  C_12 
REMARK    6  A    between atoms: P_8  and  O_13 
REMARK    7  A    between atoms: P_8  and  O_14 
REMARK    8  A    between atoms: C_9  and  O_16 
REMARK    9  A    between atoms: O_10  and  C_17 
REMARK   10  A    between atoms: C_12  and  O_20 
REMARK   11  A    between atoms: O_13  and  P_21 
REMARK   12  A    between atoms: C_17  and  C_22 
REMARK   13  A    between atoms: P_21  and  O_24 
REMARK   14  A    between atoms: P_21  and  O_25 
REMARK       I    between atoms: C_22  and  N_27 
REMARK   15  A    between atoms: O_24  and  C_29 
REMARK   16  A    between atoms: C_30  and  N_27 
REMARK   17  A    between atoms: C_31  and  C_29 
REMARK   18  A    between atoms: C_30  and  C_32 
REMARK   19  A    between atoms: C_32  and  O_36 
REMARK   20  A    between atoms: C_35  and  O_40 
REMARK   21  A    between atoms: C_38  and  N_41 
REMARK   22  A    between atoms: C_39  and  O_42 
ROOT
HETATM    1  O   UNK N   1      31.784  17.323   5.749  0.00  0.00    -0.263 OA
ENDROOT
BRANCH   1   2
HETATM    2  C   UNK N   1      30.795  16.613   6.443  0.00  0.00     0.297 C 
HETATM    3  C   UNK N   1      29.691  16.155   5.431  0.00  0.00     0.171 C 
HETATM    4  C   UNK N   1      28.392  15.837   6.170  0.00  0.00     0.181 C 
HETATM    5  C   UNK N   1      28.015  16.983   7.092  0.00  0.00     0.180 C 
HETATM    6  C   UNK N   1      29.183  16.998   8.070  0.00  0.00     0.179 C 
HETATM    7  O   UNK N   1      30.307  17.523   7.410  0.00  0.00    -0.348 OA
BRANCH   3   8
HETATM    8  N   UNK N   1      30.128  14.962   4.738  0.00  0.00    -0.349 N 
HETATM    9  C   UNK N   1      30.602  14.970   3.470  0.00  0.00     0.214 C 
HETATM   10  C   UNK N   1      30.980  13.683   2.821  0.00  0.00     0.117 C 
HETATM   11  O   UNK N   1      30.705  16.015   2.846  0.00  0.00    -0.274 OA
HETATM   12  H   UNK N   1      30.078  14.101   5.213  0.00  0.00     0.163 HD
ENDBRANCH   3   8
BRANCH   4  13
HETATM   13  O   UNK N   1      27.347  15.423   5.329  0.00  0.00    -0.367 OA
BRANCH  13  14
HETATM   14  C   UNK N   1      27.059  16.591   4.607  0.00  0.00     0.209 C 
HETATM   15  C   UNK N   1      27.147  16.369   3.109  0.00  0.00     0.050 C 
BRANCH  14  16
HETATM   16  C   UNK N   1      25.787  17.283   5.024  0.00  0.00     0.247 C 
HETATM   17  N   UNK N   1      25.690  18.630   5.163  0.00  0.00    -0.345 N 
HETATM   18  H   UNK N   1      24.839  19.001   5.488  0.00  0.00     0.163 HD
HETATM   19  O   UNK N   1      24.822  16.592   5.303  0.00  0.00    -0.271 OA
BRANCH  17  20
HETATM   20  C   UNK N   1      26.758  19.553   4.861  0.00  0.00     0.178 C 
HETATM   21  C   UNK N   1      26.382  20.333   3.610  0.00  0.00     0.043 C 
BRANCH  20  22
HETATM   22  C   UNK N   1      27.006  20.460   6.043  0.00  0.00     0.163 C 
HETATM   23  O   UNK N   1      27.832  21.358   5.985  0.00  0.00    -0.648 OA
BRANCH  22  24
HETATM   24  O   UNK N   1      26.322  20.268   7.187  0.00  0.00    -0.775 OA
HETATM   25  H   UNK N   1      25.427  20.221   7.461  0.00  0.00     0.167 HD
ENDBRANCH  22  24
ENDBRANCH  20  22
ENDBRANCH  17  20
ENDBRANCH  14  16
ENDBRANCH  13  14
ENDBRANCH   4  13
BRANCH   5  26
HETATM   26  O   UNK N   1      26.818  16.707   7.753  0.00  0.00    -0.390 OA
HETATM   27  H   UNK N   1      26.459  17.336   8.398  0.00  0.00     0.210 HD
ENDBRANCH   5  26
BRANCH   6  28
HETATM   28  C   UNK N   1      28.915  17.788   9.345  0.00  0.00     0.198 C 
BRANCH  28  29
HETATM   29  O   UNK N   1      27.920  18.743   9.140  0.00  0.00    -0.398 OA
HETATM   30  H   UNK N   1      27.127  19.073   8.690  0.00  0.00     0.209 HD
ENDBRANCH  28  29
ENDBRANCH   6  28
ENDBRANCH   1   2
BRANCH   1  31
HETATM   31  P   UNK N   1      33.340  16.546   5.871  0.00  0.00     0.404 P 
HETATM   32  O   UNK N   1      33.833  16.109   4.464  0.00  0.00    -0.631 OA
BRANCH  31  33
HETATM   33  O   UNK N   1      34.586  17.578   6.547  0.00  0.00    -0.195 OA
BRANCH  33  34
HETATM   34  P   UNK N   1      34.188  18.111   8.183  0.00  0.00     0.401 P 
HETATM   35  O   UNK N   1      35.271  19.007   8.831  0.00  0.00    -0.631 OA
BRANCH  34  36
HETATM   36  O   UNK N   1      34.022  16.754   9.262  0.00  0.00    -0.294 OA
BRANCH  36  37
HETATM   37  C   UNK N   1      35.226  16.637   9.964  0.00  0.00     0.215 C 
BRANCH  37  38
HETATM   38  C   UNK N   1      35.634  15.173  10.049  0.00  0.00     0.180 C 
HETATM   39  O   UNK N   1      35.241  14.448   8.916  0.00  0.00    -0.353 OA
HETATM   40  C   UNK N   1      35.568  13.130   9.273  0.00  0.00     0.263 C 
HETATM   41  C   UNK N   1      35.274  13.005  10.771  0.00  0.00     0.198 C 
HETATM   42  C   UNK N   1      35.087  14.438  11.248  0.00  0.00     0.182 C 
BRANCH  40  43
HETATM   43  N   UNK N   1      36.981  12.784   8.972  0.00  0.00    -0.280 N 
HETATM   44  C   UNK N   1      37.574  12.933   7.720  0.00  0.00     0.331 A 
HETATM   45  N   UNK N   1      38.893  12.609   7.543  0.00  0.00    -0.275 N 
HETATM   46  O   UNK N   1      36.940  13.335   6.765  0.00  0.00    -0.246 OA
HETATM   47  C   UNK N   1      39.643  12.126   8.575  0.00  0.00     0.250 A 
HETATM   48  H   UNK N   1      39.307  12.726   6.657  0.00  0.00     0.173 HD
HETATM   49  O   UNK N   1      40.816  11.852   8.399  0.00  0.00    -0.268 OA
HETATM   50  C   UNK N   1      39.064  11.944   9.823  0.00  0.00     0.092 A 
HETATM   51  C   UNK N   1      37.724  12.278   9.998  0.00  0.00     0.104 A 
ENDBRANCH  40  43
BRANCH  41  52
HETATM   52  O   UNK N   1      34.114  12.248  10.964  0.00  0.00    -0.388 OA
HETATM   53  H   UNK N   1      34.133  11.468  11.541  0.00  0.00     0.210 HD
ENDBRANCH  41  52
BRANCH  42  54
HETATM   54  O   UNK N   1      33.727  14.737  11.400  0.00  0.00    -0.390 OA
HETATM   55  H   UNK N   1      33.071  14.105  11.733  0.00  0.00     0.210 HD
ENDBRANCH  42  54
ENDBRANCH  37  38
ENDBRANCH  36  37
ENDBRANCH  34  36
BRANCH  34  56
HETATM   56  O   UNK N   1      32.706  19.014   8.210  0.00  0.00    -0.307 OA
HETATM   57  H   UNK N   1      32.453  19.917   7.960  0.00  0.00     0.222 HD
ENDBRANCH  34  56
ENDBRANCH  33  34
ENDBRANCH  31  33
BRANCH  31  58
HETATM   58  O   UNK N   1      33.207  15.087   6.802  0.00  0.00    -0.307 OA
HETATM   59  H   UNK N   1      33.796  14.319   6.733  0.00  0.00     0.222 HD
ENDBRANCH  31  58
ENDBRANCH   1  31
TORSDOF 22
ENDMDL
MODEL 6
REMARK VINA RESULT:      -7.0      2.706     11.145
REMARK  22 active torsions:
REMARK  status: ('A' for Active; 'I' for Inactive)
REMARK    1  A    between atoms: C_1  and  O_4 
REMARK    2  A    between atoms: C_2  and  N_6 
REMARK    3  A    between atoms: O_4  and  P_8 
REMARK    4  A    between atoms: C_5  and  O_10 
REMARK       I    between atoms: N_6  and  C_11 
REMARK    5  A    between atoms: C_7  and  C_12 
REMARK    6  A    between atoms: P_8  and  O_13 
REMARK    7  A    between atoms: P_8  and  O_14 
REMARK    8  A    between atoms: C_9  and  O_16 
REMARK    9  A    between atoms: O_10  and  C_17 
REMARK   10  A    between atoms: C_12  and  O_20 
REMARK   11  A    between atoms: O_13  and  P_21 
REMARK   12  A    between atoms: C_17  and  C_22 
REMARK   13  A    between atoms: P_21  and  O_24 
REMARK   14  A    between atoms: P_21  and  O_25 
REMARK       I    between atoms: C_22  and  N_27 
REMARK   15  A    between atoms: O_24  and  C_29 
REMARK   16  A    between atoms: C_30  and  N_27 
REMARK   17  A    between atoms: C_31  and  C_29 
REMARK   18  A    between atoms: C_30  and  C_32 
REMARK   19  A    between atoms: C_32  and  O_36 
REMARK   20  A    between atoms: C_35  and  O_40 
REMARK   21  A    between atoms: C_38  and  N_41 
REMARK   22  A    between atoms: C_39  and  O_42 
ROOT
HETATM    1  O   UNK N   1      28.359  15.557   5.183  0.00  0.00    -0.263 OA
ENDROOT
BRANCH   1   2
HETATM    2  C   UNK N   1      29.162  16.541   5.775  0.00  0.00     0.297 C 
HETATM    3  C   UNK N   1      30.422  15.858   6.408  0.00  0.00     0.171 C 
HETATM    4  C   UNK N   1      31.046  16.769   7.463  0.00  0.00     0.181 C 
HETATM    5  C   UNK N   1      29.988  17.246   8.441  0.00  0.00     0.180 C 
HETATM    6  C   UNK N   1      29.062  18.051   7.537  0.00  0.00     0.179 C 
HETATM    7  O   UNK N   1      28.330  17.154   6.742  0.00  0.00    -0.348 OA
BRANCH   3   8
HETATM    8  N   UNK N   1      31.408  15.606   5.379  0.00  0.00    -0.349 N 
HETATM    9  C   UNK N   1      31.885  14.372   5.092  0.00  0.00     0.214 C 
HETATM   10  C   UNK N   1      32.938  14.217   4.049  0.00  0.00     0.117 C 
HETATM   11  O   UNK N   1      31.478  13.388   5.690  0.00  0.00    -0.274 OA
HETATM   12  H   UNK N   1      31.749  16.371   4.860  0.00  0.00     0.163 HD
ENDBRANCH   3   8
BRANCH   4  13
HETATM   13  O   UNK N   1      32.182  16.225   8.082  0.00  0.00    -0.367 OA
BRANCH  13  14
HETATM   14  C   UNK N   1      33.230  16.897   7.436  0.00  0.00     0.209 C 
HETATM   15  C   UNK N   1      33.436  18.295   7.990  0.00  0.00     0.050 C 
BRANCH  14  16
HETATM   16  C   UNK N   1      34.511  16.109   7.342  0.00  0.00     0.247 C 
HETATM   17  N   UNK N   1      35.088  15.507   8.414  0.00  0.00    -0.345 N 
HETATM   18  H   UNK N   1      35.951  15.054   8.281  0.00  0.00     0.163 HD
HETATM   19  O   UNK N   1      35.080  16.061   6.265  0.00  0.00    -0.271 OA
BRANCH  17  20
HETATM   20  C   UNK N   1      34.514  15.490   9.738  0.00  0.00     0.178 C 
HETATM   21  C   UNK N   1      34.381  14.043  10.187  0.00  0.00     0.043 C 
BRANCH  20  22
HETATM   22  C   UNK N   1      35.367  16.302  10.683  0.00  0.00     0.163 C 
HETATM   23  O   UNK N   1      35.706  17.441  10.404  0.00  0.00    -0.648 OA
BRANCH  22  24
HETATM   24  O   UNK N   1      35.779  15.758  11.845  0.00  0.00    -0.775 OA
HETATM   25  H   UNK N   1      35.867  16.018  12.741  0.00  0.00     0.167 HD
ENDBRANCH  22  24
ENDBRANCH  20  22
ENDBRANCH  17  20
ENDBRANCH  14  16
ENDBRANCH  13  14
ENDBRANCH   4  13
BRANCH   5  26
HETATM   26  O   UNK N   1      30.556  18.062   9.420  0.00  0.00    -0.390 OA
HETATM   27  H   UNK N   1      31.517  18.067   9.555  0.00  0.00     0.210 HD
ENDBRANCH   5  26
BRANCH   6  28
HETATM   28  C   UNK N   1      28.111  18.975   8.287  0.00  0.00     0.198 C 
BRANCH  28  29
HETATM   29  O   UNK N   1      27.487  18.303   9.338  0.00  0.00    -0.398 OA
HETATM   30  H   UNK N   1      27.418  18.043  10.269  0.00  0.00     0.209 HD
ENDBRANCH  28  29
ENDBRANCH   6  28
ENDBRANCH   1   2
BRANCH   1  31
HETATM   31  P   UNK N   1      27.432  16.197   3.852  0.00  0.00     0.404 P 
HETATM   32  O   UNK N   1      28.033  15.719   2.502  0.00  0.00    -0.631 OA
BRANCH  31  33
HETATM   33  O   UNK N   1      25.752  15.697   3.865  0.00  0.00    -0.195 OA
BRANCH  33  34
HETATM   34  P   UNK N   1      25.279  15.005   5.420  0.00  0.00     0.401 P 
HETATM   35  O   UNK N   1      25.865  13.597   5.683  0.00  0.00    -0.631 OA
BRANCH  34  36
HETATM   36  O   UNK N   1      23.553  14.799   5.516  0.00  0.00    -0.294 OA
BRANCH  36  37
HETATM   37  C   UNK N   1      23.001  16.062   5.757  0.00  0.00     0.215 C 
BRANCH  37  38
HETATM   38  C   UNK N   1      21.909  16.352   4.738  0.00  0.00     0.180 C 
HETATM   39  O   UNK N   1      20.934  17.223   5.242  0.00  0.00    -0.353 OA
HETATM   40  C   UNK N   1      19.971  17.223   4.219  0.00  0.00     0.263 C 
HETATM   41  C   UNK N   1      19.939  15.797   3.661  0.00  0.00     0.198 C 
HETATM   42  C   UNK N   1      21.183  15.131   4.231  0.00  0.00     0.182 C 
BRANCH  40  43
HETATM   43  N   UNK N   1      20.265  18.212   3.151  0.00  0.00    -0.280 N 
HETATM   44  C   UNK N   1      20.647  19.530   3.387  0.00  0.00     0.331 A 
HETATM   45  N   UNK N   1      20.919  20.364   2.336  0.00  0.00    -0.275 N 
HETATM   46  O   UNK N   1      20.731  19.970   4.517  0.00  0.00    -0.246 OA
HETATM   47  C   UNK N   1      20.813  19.930   1.047  0.00  0.00     0.250 A 
HETATM   48  H   UNK N   1      21.198  21.293   2.512  0.00  0.00     0.173 HD
HETATM   49  O   UNK N   1      21.068  20.685   0.127  0.00  0.00    -0.268 OA
HETATM   50  C   UNK N   1      20.407  18.629   0.789  0.00  0.00     0.092 A 
HETATM   51  C   UNK N   1      20.134  17.784   1.862  0.00  0.00     0.104 A 
ENDBRANCH  40  43
BRANCH  41  52
HETATM   52  O   UNK N   1      18.773  15.149   4.086  0.00  0.00    -0.388 OA
HETATM   53  H   UNK N   1      18.681  14.873   5.012  0.00  0.00     0.210 HD
ENDBRANCH  41  52
BRANCH  42  54
HETATM   54  O   UNK N   1      20.851  14.302   5.311  0.00  0.00    -0.390 OA
HETATM   55  H   UNK N   1      21.342  13.498   5.543  0.00  0.00     0.210 HD
ENDBRANCH  42  54
ENDBRANCH  37  38
ENDBRANCH  36  37
ENDBRANCH  34  36
BRANCH  34  56
HETATM   56  O   UNK N   1      25.783  16.014   6.740  0.00  0.00    -0.307 OA
HETATM   57  H   UNK N   1      26.530  16.003   7.359  0.00  0.00     0.222 HD
ENDBRANCH  34  56
ENDBRANCH  33  34
ENDBRANCH  31  33
BRANCH  31  58
HETATM   58  O   UNK N   1      27.537  17.930   3.832  0.00  0.00    -0.307 OA
HETATM   59  H   UNK N   1      28.233  18.456   4.255  0.00  0.00     0.222 HD
ENDBRANCH  31  58
ENDBRANCH   1  31
TORSDOF 22
ENDMDL
MODEL 7
REMARK VINA RESULT:      -6.9      3.077     10.672
REMARK  22 active torsions:
REMARK  status: ('A' for Active; 'I' for Inactive)
REMARK    1  A    between atoms: C_1  and  O_4 
REMARK    2  A    between atoms: C_2  and  N_6 
REMARK    3  A    between atoms: O_4  and  P_8 
REMARK    4  A    between atoms: C_5  and  O_10 
REMARK       I    between atoms: N_6  and  C_11 
REMARK    5  A    between atoms: C_7  and  C_12 
REMARK    6  A    between atoms: P_8  and  O_13 
REMARK    7  A    between atoms: P_8  and  O_14 
REMARK    8  A    between atoms: C_9  and  O_16 
REMARK    9  A    between atoms: O_10  and  C_17 
REMARK   10  A    between atoms: C_12  and  O_20 
REMARK   11  A    between atoms: O_13  and  P_21 
REMARK   12  A    between atoms: C_17  and  C_22 
REMARK   13  A    between atoms: P_21  and  O_24 
REMARK   14  A    between atoms: P_21  and  O_25 
REMARK       I    between atoms: C_22  and  N_27 
REMARK   15  A    between atoms: O_24  and  C_29 
REMARK   16  A    between atoms: C_30  and  N_27 
REMARK   17  A    between atoms: C_31  and  C_29 
REMARK   18  A    between atoms: C_30  and  C_32 
REMARK   19  A    between atoms: C_32  and  O_36 
REMARK   20  A    between atoms: C_35  and  O_40 
REMARK   21  A    between atoms: C_38  and  N_41 
REMARK   22  A    between atoms: C_39  and  O_42 
ROOT
HETATM    1  O   UNK N   1      28.341  15.527   5.333  0.00  0.00    -0.263 OA
ENDROOT
BRANCH   1   2
HETATM    2  C   UNK N   1      29.162  16.518   5.891  0.00  0.00     0.297 C 
HETATM    3  C   UNK N   1      30.446  15.843   6.482  0.00  0.00     0.171 C 
HETATM    4  C   UNK N   1      31.104  16.763   7.508  0.00  0.00     0.181 C 
HETATM    5  C   UNK N   1      30.080  17.243   8.521  0.00  0.00     0.180 C 
HETATM    6  C   UNK N   1      29.120  18.039   7.646  0.00  0.00     0.179 C 
HETATM    7  O   UNK N   1      28.363  17.135   6.883  0.00  0.00    -0.348 OA
BRANCH   3   8
HETATM    8  N   UNK N   1      31.396  15.587   5.420  0.00  0.00    -0.349 N 
HETATM    9  C   UNK N   1      31.794  14.344   5.061  0.00  0.00     0.214 C 
HETATM   10  C   UNK N   1      32.815  14.182   3.989  0.00  0.00     0.117 C 
HETATM   11  O   UNK N   1      31.341  13.356   5.619  0.00  0.00    -0.274 OA
HETATM   12  H   UNK N   1      31.770  16.357   4.932  0.00  0.00     0.163 HD
ENDBRANCH   3   8
BRANCH   4  13
HETATM   13  O   UNK N   1      32.264  16.226   8.090  0.00  0.00    -0.367 OA
BRANCH  13  14
HETATM   14  C   UNK N   1      33.286  16.897   7.402  0.00  0.00     0.209 C 
HETATM   15  C   UNK N   1      33.559  18.270   7.989  0.00  0.00     0.050 C 
BRANCH  14  16
HETATM   16  C   UNK N   1      34.539  16.085   7.203  0.00  0.00     0.247 C 
HETATM   17  N   UNK N   1      35.194  15.475   8.224  0.00  0.00    -0.345 N 
HETATM   18  H   UNK N   1      36.034  15.005   8.019  0.00  0.00     0.163 HD
HETATM   19  O   UNK N   1      35.013  16.025   6.081  0.00  0.00    -0.271 OA
BRANCH  17  20
HETATM   20  C   UNK N   1      34.734  15.471   9.592  0.00  0.00     0.178 C 
HETATM   21  C   UNK N   1      34.691  14.031  10.082  0.00  0.00     0.043 C 
BRANCH  20  22
HETATM   22  C   UNK N   1      35.636  16.334  10.443  0.00  0.00     0.163 C 
HETATM   23  O   UNK N   1      35.237  17.387  10.914  0.00  0.00    -0.648 OA
BRANCH  22  24
HETATM   24  O   UNK N   1      36.905  15.947  10.673  0.00  0.00    -0.775 OA
HETATM   25  H   UNK N   1      37.423  15.660  11.400  0.00  0.00     0.167 HD
ENDBRANCH  22  24
ENDBRANCH  20  22
ENDBRANCH  17  20
ENDBRANCH  14  16
ENDBRANCH  13  14
ENDBRANCH   4  13
BRANCH   5  26
HETATM   26  O   UNK N   1      30.681  18.066   9.474  0.00  0.00    -0.390 OA
HETATM   27  H   UNK N   1      31.594  17.903   9.755  0.00  0.00     0.210 HD
ENDBRANCH   5  26
BRANCH   6  28
HETATM   28  C   UNK N   1      28.193  18.965   8.424  0.00  0.00     0.198 C 
BRANCH  28  29
HETATM   29  O   UNK N   1      27.500  18.263   9.409  0.00  0.00    -0.398 OA
HETATM   30  H   UNK N   1      27.035  18.210  10.259  0.00  0.00     0.209 HD
ENDBRANCH  28  29
ENDBRANCH   6  28
ENDBRANCH   1   2
BRANCH   1  31
HETATM   31  P   UNK N   1      26.903  16.208   4.621  0.00  0.00     0.404 P 
HETATM   32  O   UNK N   1      26.823  15.836   3.116  0.00  0.00    -0.631 OA
BRANCH  31  33
HETATM   33  O   UNK N   1      25.420  15.642   5.364  0.00  0.00    -0.195 OA
BRANCH  33  34
HETATM   34  P   UNK N   1      24.002  16.497   4.747  0.00  0.00     0.401 P 
HETATM   35  O   UNK N   1      23.900  17.966   5.225  0.00  0.00    -0.631 OA
BRANCH  34  36
HETATM   36  O   UNK N   1      22.529  15.744   5.290  0.00  0.00    -0.294 OA
BRANCH  36  37
HETATM   37  C   UNK N   1      22.435  15.971   6.667  0.00  0.00     0.215 C 
BRANCH  37  38
HETATM   38  C   UNK N   1      22.176  14.657   7.391  0.00  0.00     0.180 C 
HETATM   39  O   UNK N   1      23.114  13.673   7.050  0.00  0.00    -0.353 OA
HETATM   40  C   UNK N   1      22.602  12.534   7.693  0.00  0.00     0.263 C 
HETATM   41  C   UNK N   1      21.077  12.632   7.590  0.00  0.00     0.198 C 
HETATM   42  C   UNK N   1      20.812  14.063   7.145  0.00  0.00     0.182 C 
BRANCH  40  43
HETATM   43  N   UNK N   1      23.039  12.424   9.108  0.00  0.00    -0.280 N 
HETATM   44  C   UNK N   1      24.333  12.686   9.551  0.00  0.00     0.331 A 
HETATM   45  N   UNK N   1      24.638  12.580  10.882  0.00  0.00    -0.275 N 
HETATM   46  O   UNK N   1      25.215  12.996   8.774  0.00  0.00    -0.246 OA
HETATM   47  C   UNK N   1      23.693  12.207  11.792  0.00  0.00     0.250 A 
HETATM   48  H   UNK N   1      25.553  12.776  11.187  0.00  0.00     0.173 HD
HETATM   49  O   UNK N   1      23.982  12.127  12.972  0.00  0.00    -0.268 OA
HETATM   50  C   UNK N   1      22.405  11.914  11.368  0.00  0.00     0.092 A 
HETATM   51  C   UNK N   1      22.100  12.027  10.014  0.00  0.00     0.104 A 
ENDBRANCH  40  43
BRANCH  41  52
HETATM   52  O   UNK N   1      20.606  11.710   6.649  0.00  0.00    -0.388 OA
HETATM   53  H   UNK N   1      20.794  10.764   6.760  0.00  0.00     0.210 HD
ENDBRANCH  41  52
BRANCH  42  54
HETATM   54  O   UNK N   1      20.520  14.111   5.776  0.00  0.00    -0.390 OA
HETATM   55  H   UNK N   1      20.329  13.327   5.238  0.00  0.00     0.210 HD
ENDBRANCH  42  54
ENDBRANCH  37  38
ENDBRANCH  36  37
ENDBRANCH  34  36
BRANCH  34  56
HETATM   56  O   UNK N   1      23.990  16.531   3.012  0.00  0.00    -0.307 OA
HETATM   57  H   UNK N   1      23.428  16.950   2.342  0.00  0.00     0.222 HD
ENDBRANCH  34  56
ENDBRANCH  33  34
ENDBRANCH  31  33
BRANCH  31  58
HETATM   58  O   UNK N   1      26.973  17.942   4.679  0.00  0.00    -0.307 OA
HETATM   59  H   UNK N   1      26.615  18.542   4.006  0.00  0.00     0.222 HD
ENDBRANCH  31  58
ENDBRANCH   1  31
TORSDOF 22
ENDMDL
MODEL 8
REMARK VINA RESULT:      -6.9      6.297     10.608
REMARK  22 active torsions:
REMARK  status: ('A' for Active; 'I' for Inactive)
REMARK    1  A    between atoms: C_1  and  O_4 
REMARK    2  A    between atoms: C_2  and  N_6 
REMARK    3  A    between atoms: O_4  and  P_8 
REMARK    4  A    between atoms: C_5  and  O_10 
REMARK       I    between atoms: N_6  and  C_11 
REMARK    5  A    between atoms: C_7  and  C_12 
REMARK    6  A    between atoms: P_8  and  O_13 
REMARK    7  A    between atoms: P_8  and  O_14 
REMARK    8  A    between atoms: C_9  and  O_16 
REMARK    9  A    between atoms: O_10  and  C_17 
REMARK   10  A    between atoms: C_12  and  O_20 
REMARK   11  A    between atoms: O_13  and  P_21 
REMARK   12  A    between atoms: C_17  and  C_22 
REMARK   13  A    between atoms: P_21  and  O_24 
REMARK   14  A    between atoms: P_21  and  O_25 
REMARK       I    between atoms: C_22  and  N_27 
REMARK   15  A    between atoms: O_24  and  C_29 
REMARK   16  A    between atoms: C_30  and  N_27 
REMARK   17  A    between atoms: C_31  and  C_29 
REMARK   18  A    between atoms: C_30  and  C_32 
REMARK   19  A    between atoms: C_32  and  O_36 
REMARK   20  A    between atoms: C_35  and  O_40 
REMARK   21  A    between atoms: C_38  and  N_41 
REMARK   22  A    between atoms: C_39  and  O_42 
ROOT
HETATM    1  O   UNK N   1      32.234  17.399   6.263  0.00  0.00    -0.263 OA
ENDROOT
BRANCH   1   2
HETATM    2  C   UNK N   1      31.146  16.721   6.830  0.00  0.00     0.297 C 
HETATM    3  C   UNK N   1      30.112  16.384   5.703  0.00  0.00     0.171 C 
HETATM    4  C   UNK N   1      28.736  16.114   6.308  0.00  0.00     0.181 C 
HETATM    5  C   UNK N   1      28.345  17.237   7.252  0.00  0.00     0.180 C 
HETATM    6  C   UNK N   1      29.419  17.131   8.328  0.00  0.00     0.179 C 
HETATM    7  O   UNK N   1      30.627  17.614   7.798  0.00  0.00    -0.348 OA
BRANCH   3   8
HETATM    8  N   UNK N   1      30.538  15.199   4.988  0.00  0.00    -0.349 N 
HETATM    9  C   UNK N   1      31.071  15.232   3.744  0.00  0.00     0.214 C 
HETATM   10  C   UNK N   1      31.433  13.954   3.068  0.00  0.00     0.117 C 
HETATM   11  O   UNK N   1      31.238  16.293   3.162  0.00  0.00    -0.274 OA
HETATM   12  H   UNK N   1      30.437  14.325   5.430  0.00  0.00     0.163 HD
ENDBRANCH   3   8
BRANCH   4  13
HETATM   13  O   UNK N   1      27.748  15.808   5.358  0.00  0.00    -0.367 OA
BRANCH  13  14
HETATM   14  C   UNK N   1      27.449  17.067   4.816  0.00  0.00     0.209 C 
HETATM   15  C   UNK N   1      27.785  17.144   3.338  0.00  0.00     0.050 C 
BRANCH  14  16
HETATM   16  C   UNK N   1      26.062  17.566   5.128  0.00  0.00     0.247 C 
HETATM   17  N   UNK N   1      25.790  18.867   5.406  0.00  0.00    -0.345 N 
HETATM   18  H   UNK N   1      24.867  19.105   5.651  0.00  0.00     0.163 HD
HETATM   19  O   UNK N   1      25.158  16.750   5.189  0.00  0.00    -0.271 OA
BRANCH  17  20
HETATM   20  C   UNK N   1      26.771  19.925   5.365  0.00  0.00     0.178 C 
HETATM   21  C   UNK N   1      26.532  20.755   4.113  0.00  0.00     0.043 C 
BRANCH  20  22
HETATM   22  C   UNK N   1      26.688  20.757   6.623  0.00  0.00     0.163 C 
HETATM   23  O   UNK N   1      26.607  21.974   6.569  0.00  0.00    -0.648 OA
BRANCH  22  24
HETATM   24  O   UNK N   1      26.722  20.152   7.826  0.00  0.00    -0.775 OA
HETATM   25  H   UNK N   1      27.259  20.162   8.594  0.00  0.00     0.167 HD
ENDBRANCH  22  24
ENDBRANCH  20  22
ENDBRANCH  17  20
ENDBRANCH  14  16
ENDBRANCH  13  14
ENDBRANCH   4  13
BRANCH   5  26
HETATM   26  O   UNK N   1      27.079  17.007   7.791  0.00  0.00    -0.390 OA
HETATM   27  H   UNK N   1      26.971  16.414   8.551  0.00  0.00     0.210 HD
ENDBRANCH   5  26
BRANCH   6  28
HETATM   28  C   UNK N   1      29.084  17.875   9.615  0.00  0.00     0.198 C 
BRANCH  28  29
HETATM   29  O   UNK N   1      29.506  17.155  10.732  0.00  0.00    -0.398 OA
HETATM   30  H   UNK N   1      29.598  16.333  11.239  0.00  0.00     0.209 HD
ENDBRANCH  28  29
ENDBRANCH   6  28
ENDBRANCH   1   2
BRANCH   1  31
HETATM   31  P   UNK N   1      33.684  17.195   7.210  0.00  0.00     0.404 P 
HETATM   32  O   UNK N   1      34.283  18.579   7.578  0.00  0.00    -0.631 OA
BRANCH  31  33
HETATM   33  O   UNK N   1      33.421  16.338   8.717  0.00  0.00    -0.195 OA
BRANCH  33  34
HETATM   34  P   UNK N   1      34.898  16.223   9.679  0.00  0.00     0.401 P 
HETATM   35  O   UNK N   1      35.956  15.261   9.089  0.00  0.00    -0.631 OA
BRANCH  34  36
HETATM   36  O   UNK N   1      34.562  15.602  11.271  0.00  0.00    -0.294 OA
BRANCH  36  37
HETATM   37  C   UNK N   1      35.791  15.458  11.924  0.00  0.00     0.215 C 
BRANCH  37  38
HETATM   38  C   UNK N   1      35.697  14.352  12.965  0.00  0.00     0.180 C 
HETATM   39  O   UNK N   1      36.954  13.991  13.467  0.00  0.00    -0.353 OA
HETATM   40  C   UNK N   1      36.651  12.879  14.269  0.00  0.00     0.263 C 
HETATM   41  C   UNK N   1      35.537  12.118  13.543  0.00  0.00     0.198 C 
HETATM   42  C   UNK N   1      35.043  13.083  12.476  0.00  0.00     0.182 C 
BRANCH  40  43
HETATM   43  N   UNK N   1      36.237  13.255  15.645  0.00  0.00    -0.280 N 
HETATM   44  C   UNK N   1      36.713  14.371  16.329  0.00  0.00     0.331 A 
HETATM   45  N   UNK N   1      36.255  14.650  17.589  0.00  0.00    -0.275 N 
HETATM   46  O   UNK N   1      37.546  15.105  15.835  0.00  0.00    -0.246 OA
HETATM   47  C   UNK N   1      35.342  13.843  18.201  0.00  0.00     0.250 A 
HETATM   48  H   UNK N   1      36.591  15.446  18.062  0.00  0.00     0.173 HD
HETATM   49  O   UNK N   1      34.941  14.113  19.318  0.00  0.00    -0.268 OA
HETATM   50  C   UNK N   1      34.876  12.711  17.548  0.00  0.00     0.092 A 
HETATM   51  C   UNK N   1      35.342  12.433  16.266  0.00  0.00     0.104 A 
ENDBRANCH  40  43
BRANCH  41  52
HETATM   52  O   UNK N   1      36.055  10.950  12.975  0.00  0.00    -0.388 OA
HETATM   53  H   UNK N   1      35.566  10.494  12.270  0.00  0.00     0.210 HD
ENDBRANCH  41  52
BRANCH  42  54
HETATM   54  O   UNK N   1      35.563  12.743  11.220  0.00  0.00    -0.390 OA
HETATM   55  H   UNK N   1      35.410  13.262  10.415  0.00  0.00     0.210 HD
ENDBRANCH  42  54
ENDBRANCH  37  38
ENDBRANCH  36  37
ENDBRANCH  34  36
BRANCH  34  56
HETATM   56  O   UNK N   1      35.664  17.771   9.848  0.00  0.00    -0.307 OA
HETATM   57  H   UNK N   1      35.807  18.529   9.259  0.00  0.00     0.222 HD
ENDBRANCH  34  56
ENDBRANCH  33  34
ENDBRANCH  31  33
BRANCH  31  58
HETATM   58  O   UNK N   1      34.900  16.386   6.271  0.00  0.00    -0.307 OA
HETATM   59  H   UNK N   1      35.733  16.029   6.616  0.00  0.00     0.222 HD
ENDBRANCH  31  58
ENDBRANCH   1  31
TORSDOF 22
ENDMDL
MODEL 9
REMARK VINA RESULT:      -6.8      3.286     10.804
REMARK  22 active torsions:
REMARK  status: ('A' for Active; 'I' for Inactive)
REMARK    1  A    between atoms: C_1  and  O_4 
REMARK    2  A    between atoms: C_2  and  N_6 
REMARK    3  A    between atoms: O_4  and  P_8 
REMARK    4  A    between atoms: C_5  and  O_10 
REMARK       I    between atoms: N_6  and  C_11 
REMARK    5  A    between atoms: C_7  and  C_12 
REMARK    6  A    between atoms: P_8  and  O_13 
REMARK    7  A    between atoms: P_8  and  O_14 
REMARK    8  A    between atoms: C_9  and  O_16 
REMARK    9  A    between atoms: O_10  and  C_17 
REMARK   10  A    between atoms: C_12  and  O_20 
REMARK   11  A    between atoms: O_13  and  P_21 
REMARK   12  A    between atoms: C_17  and  C_22 
REMARK   13  A    between atoms: P_21  and  O_24 
REMARK   14  A    between atoms: P_21  and  O_25 
REMARK       I    between atoms: C_22  and  N_27 
REMARK   15  A    between atoms: O_24  and  C_29 
REMARK   16  A    between atoms: C_30  and  N_27 
REMARK   17  A    between atoms: C_31  and  C_29 
REMARK   18  A    between atoms: C_30  and  C_32 
REMARK   19  A    between atoms: C_32  and  O_36 
REMARK   20  A    between atoms: C_35  and  O_40 
REMARK   21  A    between atoms: C_38  and  N_41 
REMARK   22  A    between atoms: C_39  and  O_42 
ROOT
HETATM    1  O   UNK N   1      28.390  15.526   5.460  0.00  0.00    -0.263 OA
ENDROOT
BRANCH   1   2
HETATM    2  C   UNK N   1      29.360  16.412   5.949  0.00  0.00     0.297 C 
HETATM    3  C   UNK N   1      30.637  15.599   6.351  0.00  0.00     0.171 C 
HETATM    4  C   UNK N   1      31.497  16.405   7.322  0.00  0.00     0.181 C 
HETATM    5  C   UNK N   1      30.650  16.922   8.472  0.00  0.00     0.180 C 
HETATM    6  C   UNK N   1      29.671  17.842   7.754  0.00  0.00     0.179 C 
HETATM    7  O   UNK N   1      28.747  17.046   7.056  0.00  0.00    -0.348 OA
BRANCH   3   8
HETATM    8  N   UNK N   1      31.425  15.314   5.170  0.00  0.00    -0.349 N 
HETATM    9  C   UNK N   1      31.720  14.058   4.758  0.00  0.00     0.214 C 
HETATM   10  C   UNK N   1      32.582  13.864   3.558  0.00  0.00     0.117 C 
HETATM   11  O   UNK N   1      31.307  13.084   5.369  0.00  0.00    -0.274 OA
HETATM   12  H   UNK N   1      31.762  16.071   4.639  0.00  0.00     0.163 HD
ENDBRANCH   3   8
BRANCH   4  13
HETATM   13  O   UNK N   1      32.662  15.740   7.735  0.00  0.00    -0.367 OA
BRANCH  13  14
HETATM   14  C   UNK N   1      33.669  16.656   7.395  0.00  0.00     0.209 C 
HETATM   15  C   UNK N   1      33.306  17.469   6.166  0.00  0.00     0.050 C 
BRANCH  14  16
HETATM   16  C   UNK N   1      34.147  17.509   8.542  0.00  0.00     0.247 C 
HETATM   17  N   UNK N   1      34.680  16.988   9.678  0.00  0.00    -0.345 N 
HETATM   18  H   UNK N   1      34.921  17.609  10.402  0.00  0.00     0.163 HD
HETATM   19  O   UNK N   1      33.994  18.716   8.464  0.00  0.00    -0.271 OA
BRANCH  17  20
HETATM   20  C   UNK N   1      34.914  15.580   9.889  0.00  0.00     0.178 C 
HETATM   21  C   UNK N   1      36.374  15.387  10.273  0.00  0.00     0.043 C 
BRANCH  20  22
HETATM   22  C   UNK N   1      33.974  15.052  10.947  0.00  0.00     0.163 C 
HETATM   23  O   UNK N   1      34.401  14.544  11.972  0.00  0.00    -0.648 OA
BRANCH  22  24
HETATM   24  O   UNK N   1      32.644  15.125  10.753  0.00  0.00    -0.775 OA
HETATM   25  H   UNK N   1      32.046  15.602  10.211  0.00  0.00     0.167 HD
ENDBRANCH  22  24
ENDBRANCH  20  22
ENDBRANCH  17  20
ENDBRANCH  14  16
ENDBRANCH  13  14
ENDBRANCH   4  13
BRANCH   5  26
HETATM   26  O   UNK N   1      31.435  17.641   9.374  0.00  0.00    -0.390 OA
HETATM   27  H   UNK N   1      31.958  17.176  10.046  0.00  0.00     0.210 HD
ENDBRANCH   5  26
BRANCH   6  28
HETATM   28  C   UNK N   1      28.934  18.805   8.675  0.00  0.00     0.198 C 
BRANCH  28  29
HETATM   29  O   UNK N   1      27.609  18.410   8.853  0.00  0.00    -0.398 OA
HETATM   30  H   UNK N   1      26.756  18.449   9.313  0.00  0.00     0.209 HD
ENDBRANCH  28  29
ENDBRANCH   6  28
ENDBRANCH   1   2
BRANCH   1  31
HETATM   31  P   UNK N   1      26.994  16.373   4.851  0.00  0.00     0.404 P 
HETATM   32  O   UNK N   1      27.428  17.453   3.824  0.00  0.00    -0.631 OA
BRANCH  31  33
HETATM   33  O   UNK N   1      25.843  15.331   4.037  0.00  0.00    -0.195 OA
BRANCH  33  34
HETATM   34  P   UNK N   1      25.227  14.064   5.103  0.00  0.00     0.401 P 
HETATM   35  O   UNK N   1      25.625  12.633   4.670  0.00  0.00    -0.631 OA
BRANCH  34  36
HETATM   36  O   UNK N   1      23.486  14.059   5.129  0.00  0.00    -0.294 OA
BRANCH  36  37
HETATM   37  C   UNK N   1      23.081  15.249   5.742  0.00  0.00     0.215 C 
BRANCH  37  38
HETATM   38  C   UNK N   1      22.391  14.942   7.063  0.00  0.00     0.180 C 
HETATM   39  O   UNK N   1      21.676  13.738   7.018  0.00  0.00    -0.353 OA
HETATM   40  C   UNK N   1      21.010  13.736   8.255  0.00  0.00     0.263 C 
HETATM   41  C   UNK N   1      20.627  15.191   8.538  0.00  0.00     0.198 C 
HETATM   42  C   UNK N   1      21.427  16.004   7.530  0.00  0.00     0.182 C 
BRANCH  40  43
HETATM   43  N   UNK N   1      21.836  13.174   9.354  0.00  0.00    -0.280 N 
HETATM   44  C   UNK N   1      21.318  12.662  10.541  0.00  0.00     0.331 A 
HETATM   45  N   UNK N   1      22.158  12.142  11.489  0.00  0.00    -0.275 N 
HETATM   46  O   UNK N   1      20.124  12.678  10.766  0.00  0.00    -0.246 OA
HETATM   47  C   UNK N   1      23.509  12.125  11.299  0.00  0.00     0.250 A 
HETATM   48  H   UNK N   1      21.782  11.774  12.321  0.00  0.00     0.173 HD
HETATM   49  O   UNK N   1      24.238  11.651  12.150  0.00  0.00    -0.268 OA
HETATM   50  C   UNK N   1      24.048  12.655  10.136  0.00  0.00     0.092 A 
HETATM   51  C   UNK N   1      23.188  13.180   9.174  0.00  0.00     0.104 A 
ENDBRANCH  40  43
BRANCH  41  52
HETATM   52  O   UNK N   1      19.251  15.362   8.353  0.00  0.00    -0.388 OA
HETATM   53  H   UNK N   1      18.651  15.333   9.116  0.00  0.00     0.210 HD
ENDBRANCH  41  52
BRANCH  42  54
HETATM   54  O   UNK N   1      20.617  16.404   6.460  0.00  0.00    -0.390 OA
HETATM   55  H   UNK N   1      20.956  16.609   5.575  0.00  0.00     0.210 HD
ENDBRANCH  42  54
ENDBRANCH  37  38
ENDBRANCH  36  37
ENDBRANCH  34  36
BRANCH  34  56
HETATM   56  O   UNK N   1      25.797  14.274   6.729  0.00  0.00    -0.307 OA
HETATM   57  H   UNK N   1      26.668  14.408   7.134  0.00  0.00     0.222 HD
ENDBRANCH  34  56
ENDBRANCH  33  34
ENDBRANCH  31  33
BRANCH  31  58
HETATM   58  O   UNK N   1      26.209  17.232   6.140  0.00  0.00    -0.307 OA
HETATM   59  H   UNK N   1      26.505  17.255   7.064  0.00  0.00     0.222 HD
ENDBRANCH  31  58
ENDBRANCH   1  31
TORSDOF 22
ENDMDL
