MODEL 1
REMARK VINA RESULT:      -4.4      0.000      0.000
REMARK  5 active torsions:
REMARK  status: ('A' for Active; 'I' for Inactive)
REMARK    1  A    between atoms: C_2  and  C_4 
REMARK    2  A    between atoms: C_4  and  C_5 
REMARK    3  A    between atoms: C_5  and  N_6 
REMARK    4  A    between atoms: C_5  and  C_7 
REMARK    5  A    between atoms: C_7  and  O_8 
ROOT
HETATM    1  C   UNK N   1      22.660  11.908  11.161  0.00  0.00     0.173 C 
ENDROOT
BRANCH   1   2
HETATM    2  C   UNK N   1      22.594  13.080  10.186  0.00  0.00     0.039 C 
BRANCH   2   3
HETATM    3  C   UNK N   1      21.269  13.102   9.431  0.00  0.00    -0.020 C 
HETATM    4  C   UNK N   1      21.500  12.701   7.990  0.00  0.00     0.009 C 
HETATM    5  C   UNK N   1      20.648  14.486   9.464  0.00  0.00     0.009 C 
ENDBRANCH   2   3
ENDBRANCH   1   2
BRANCH   1   6
HETATM    6  N   UNK N   1      21.397  11.770  11.872  0.00  0.00    -0.418 N 
HETATM    7  H   UNK N   1      20.628  11.223  11.484  0.00  0.00     0.150 HD
HETATM    8  H   UNK N   1      21.279  12.228  12.776  0.00  0.00     0.150 HD
ENDBRANCH   1   6
BRANCH   1   9
HETATM    9  C   UNK N   1      23.794  12.074  12.132  0.00  0.00     0.163 C 
HETATM   10  O   UNK N   1      23.578  12.019  13.332  0.00  0.00    -0.648 OA
BRANCH   9  11
HETATM   11  O   UNK N   1      25.044  12.318  11.693  0.00  0.00    -0.775 OA
HETATM   12  H   UNK N   1      25.259  12.996  11.082  0.00  0.00     0.167 HD
ENDBRANCH   9  11
ENDBRANCH   1   9
TORSDOF 5
ENDMDL
MODEL 2
REMARK VINA RESULT:      -4.2     11.236     11.830
REMARK  5 active torsions:
REMARK  status: ('A' for Active; 'I' for Inactive)
REMARK    1  A    between atoms: C_2  and  C_4 
REMARK    2  A    between atoms: C_4  and  C_5 
REMARK    3  A    between atoms: C_5  and  N_6 
REMARK    4  A    between atoms: C_5  and  C_7 
REMARK    5  A    between atoms: C_7  and  O_8 
ROOT
HETATM    1  C   UNK N   1      33.083  17.423   8.329  0.00  0.00     0.173 C 
ENDROOT
BRANCH   1   2
HETATM    2  C   UNK N   1      31.906  18.367   8.556  0.00  0.00     0.039 C 
BRANCH   2   3
HETATM    3  C   UNK N   1      30.611  17.596   8.789  0.00  0.00    -0.020 C 
HETATM    4  C   UNK N   1      29.982  17.246   7.457  0.00  0.00     0.009 C 
HETATM    5  C   UNK N   1      29.626  18.421   9.597  0.00  0.00     0.009 C 
ENDBRANCH   2   3
ENDBRANCH   1   2
BRANCH   1   6
HETATM    6  N   UNK N   1      33.509  16.835   9.591  0.00  0.00    -0.418 N 
HETATM    7  H   UNK N   1      34.118  16.017   9.615  0.00  0.00     0.150 HD
HETATM    8  H   UNK N   1      33.192  17.250  10.468  0.00  0.00     0.150 HD
ENDBRANCH   1   6
BRANCH   1   9
HETATM    9  C   UNK N   1      34.229  18.135   7.668  0.00  0.00     0.163 C 
HETATM   10  O   UNK N   1      34.516  17.878   6.510  0.00  0.00    -0.648 OA
BRANCH   9  11
HETATM   11  O   UNK N   1      34.968  19.030   8.352  0.00  0.00    -0.775 OA
HETATM   12  H   UNK N   1      34.955  19.953   8.186  0.00  0.00     0.167 HD
ENDBRANCH   9  11
ENDBRANCH   1   9
TORSDOF 5
ENDMDL
MODEL 3
REMARK VINA RESULT:      -4.1     12.748     13.453
REMARK  5 active torsions:
REMARK  status: ('A' for Active; 'I' for Inactive)
REMARK    1  A    between atoms: C_2  and  C_4 
REMARK    2  A    between atoms: C_4  and  C_5 
REMARK    3  A    between atoms: C_5  and  N_6 
REMARK    4  A    between atoms: C_5  and  C_7 
REMARK    5  A    between atoms: C_7  and  O_8 
ROOT
HETATM    1  C   UNK N   1      34.148  17.236   9.073  0.00  0.00     0.173 C 
ENDROOT
BRANCH   1   2
HETATM    2  C   UNK N   1      34.768  15.873   8.780  0.00  0.00     0.039 C 
BRANCH   2   3
HETATM    3  C   UNK N   1      35.395  15.266  10.030  0.00  0.00    -0.020 C 
HETATM    4  C   UNK N   1      34.498  14.172  10.569  0.00  0.00     0.009 C 
HETATM    5  C   UNK N   1      35.590  16.318  11.105  0.00  0.00     0.009 C 
ENDBRANCH   2   3
ENDBRANCH   1   2
BRANCH   1   6
HETATM    6  N   UNK N   1      32.695  17.151   9.026  0.00  0.00    -0.418 N 
HETATM    7  H   UNK N   1      32.203  16.318   9.350  0.00  0.00     0.150 HD
HETATM    8  H   UNK N   1      32.159  17.940   8.664  0.00  0.00     0.150 HD
ENDBRANCH   1   6
BRANCH   1   9
HETATM    9  C   UNK N   1      34.645  18.276   8.110  0.00  0.00     0.163 C 
HETATM   10  O   UNK N   1      35.272  19.238   8.525  0.00  0.00    -0.648 OA
BRANCH   9  11
HETATM   11  O   UNK N   1      34.375  18.178   6.794  0.00  0.00    -0.775 OA
HETATM   12  H   UNK N   1      34.323  17.364   6.331  0.00  0.00     0.167 HD
ENDBRANCH   9  11
ENDBRANCH   1   9
TORSDOF 5
ENDMDL
MODEL 4
REMARK VINA RESULT:      -4.1      6.139      7.239
REMARK  5 active torsions:
REMARK  status: ('A' for Active; 'I' for Inactive)
REMARK    1  A    between atoms: C_2  and  C_4 
REMARK    2  A    between atoms: C_4  and  C_5 
REMARK    3  A    between atoms: C_5  and  N_6 
REMARK    4  A    between atoms: C_5  and  C_7 
REMARK    5  A    between atoms: C_7  and  O_8 
ROOT
HETATM    1  C   UNK N   1      18.185  17.879   9.936  0.00  0.00     0.173 C 
ENDROOT
BRANCH   1   2
HETATM    2  C   UNK N   1      19.446  18.061   9.096  0.00  0.00     0.039 C 
BRANCH   2   3
HETATM    3  C   UNK N   1      19.655  16.888   8.144  0.00  0.00    -0.020 C 
HETATM    4  C   UNK N   1      20.081  15.666   8.930  0.00  0.00     0.009 C 
HETATM    5  C   UNK N   1      20.722  17.208   7.114  0.00  0.00     0.009 C 
ENDBRANCH   2   3
ENDBRANCH   1   2
BRANCH   1   6
HETATM    6  N   UNK N   1      17.010  17.830   9.078  0.00  0.00    -0.418 N 
HETATM    7  H   UNK N   1      16.083  17.637   9.459  0.00  0.00     0.150 HD
HETATM    8  H   UNK N   1      17.114  17.992   8.076  0.00  0.00     0.150 HD
ENDBRANCH   1   6
BRANCH   1   9
HETATM    9  C   UNK N   1      18.048  18.977  10.952  0.00  0.00     0.163 C 
HETATM   10  O   UNK N   1      16.975  19.163  11.504  0.00  0.00    -0.648 OA
BRANCH   9  11
HETATM   11  O   UNK N   1      19.089  19.784  11.236  0.00  0.00    -0.775 OA
HETATM   12  H   UNK N   1      19.081  20.712  11.104  0.00  0.00     0.167 HD
ENDBRANCH   9  11
ENDBRANCH   1   9
TORSDOF 5
ENDMDL
MODEL 5
REMARK VINA RESULT:      -4.0     12.577     12.963
REMARK  5 active torsions:
REMARK  status: ('A' for Active; 'I' for Inactive)
REMARK    1  A    between atoms: C_2  and  C_4 
REMARK    2  A    between atoms: C_4  and  C_5 
REMARK    3  A    between atoms: C_5  and  N_6 
REMARK    4  A    between atoms: C_5  and  C_7 
REMARK    5  A    between atoms: C_7  and  O_8 
ROOT
HETATM    1  C   UNK N   1      33.794  17.138   8.189  0.00  0.00     0.173 C 
ENDROOT
BRANCH   1   2
HETATM    2  C   UNK N   1      33.387  17.830   6.891  0.00  0.00     0.039 C 
BRANCH   2   3
HETATM    3  C   UNK N   1      33.147  16.820   5.774  0.00  0.00    -0.020 C 
HETATM    4  C   UNK N   1      34.357  15.921   5.634  0.00  0.00     0.009 C 
HETATM    5  C   UNK N   1      32.899  17.522   4.452  0.00  0.00     0.009 C 
ENDBRANCH   2   3
ENDBRANCH   1   2
BRANCH   1   6
HETATM    6  N   UNK N   1      32.631  16.942   9.043  0.00  0.00    -0.418 N 
HETATM    7  H   UNK N   1      32.278  16.007   9.250  0.00  0.00     0.150 HD
HETATM    8  H   UNK N   1      32.161  17.754   9.443  0.00  0.00     0.150 HD
ENDBRANCH   1   6
BRANCH   1   9
HETATM    9  C   UNK N   1      34.851  17.923   8.913  0.00  0.00     0.163 C 
HETATM   10  O   UNK N   1      35.341  17.480   9.939  0.00  0.00    -0.648 OA
BRANCH   9  11
HETATM   11  O   UNK N   1      35.240  19.131   8.459  0.00  0.00    -0.775 OA
HETATM   12  H   UNK N   1      35.663  19.267   7.633  0.00  0.00     0.167 HD
ENDBRANCH   9  11
ENDBRANCH   1   9
TORSDOF 5
ENDMDL
MODEL 6
REMARK VINA RESULT:      -4.0     10.039     11.226
REMARK  5 active torsions:
REMARK  status: ('A' for Active; 'I' for Inactive)
REMARK    1  A    between atoms: C_2  and  C_4 
REMARK    2  A    between atoms: C_4  and  C_5 
REMARK    3  A    between atoms: C_5  and  N_6 
REMARK    4  A    between atoms: C_5  and  C_7 
REMARK    5  A    between atoms: C_7  and  O_8 
ROOT
HETATM    1  C   UNK N   1      20.077  19.419   2.599  0.00  0.00     0.173 C 
ENDROOT
BRANCH   1   2
HETATM    2  C   UNK N   1      21.050  18.357   3.108  0.00  0.00     0.039 C 
BRANCH   2   3
HETATM    3  C   UNK N   1      21.874  18.875   4.281  0.00  0.00    -0.020 C 
HETATM    4  C   UNK N   1      23.341  18.597   4.033  0.00  0.00     0.009 C 
HETATM    5  C   UNK N   1      21.457  18.202   5.576  0.00  0.00     0.009 C 
ENDBRANCH   2   3
ENDBRANCH   1   2
BRANCH   1   6
HETATM    6  N   UNK N   1      18.818  18.803   2.208  0.00  0.00    -0.418 N 
HETATM    7  H   UNK N   1      18.579  18.662   1.226  0.00  0.00     0.150 HD
HETATM    8  H   UNK N   1      18.161  18.505   2.930  0.00  0.00     0.150 HD
ENDBRANCH   1   6
BRANCH   1   9
HETATM    9  C   UNK N   1      20.666  20.187   1.450  0.00  0.00     0.163 C 
HETATM   10  O   UNK N   1      21.218  21.256   1.654  0.00  0.00    -0.648 OA
BRANCH   9  11
HETATM   11  O   UNK N   1      20.560  19.724   0.189  0.00  0.00    -0.775 OA
HETATM   12  H   UNK N   1      21.035  20.077  -0.538  0.00  0.00     0.167 HD
ENDBRANCH   9  11
ENDBRANCH   1   9
TORSDOF 5
ENDMDL
MODEL 7
REMARK VINA RESULT:      -4.0     10.051     11.287
REMARK  5 active torsions:
REMARK  status: ('A' for Active; 'I' for Inactive)
REMARK    1  A    between atoms: C_2  and  C_4 
REMARK    2  A    between atoms: C_4  and  C_5 
REMARK    3  A    between atoms: C_5  and  N_6 
REMARK    4  A    between atoms: C_5  and  C_7 
REMARK    5  A    between atoms: C_7  and  O_8 
ROOT
HETATM    1  C   UNK N   1      20.123  19.207   2.566  0.00  0.00     0.173 C 
ENDROOT
BRANCH   1   2
HETATM    2  C   UNK N   1      20.908  17.915   2.773  0.00  0.00     0.039 C 
BRANCH   2   3
HETATM    3  C   UNK N   1      20.083  16.694   2.381  0.00  0.00    -0.020 C 
HETATM    4  C   UNK N   1      20.104  15.684   3.509  0.00  0.00     0.009 C 
HETATM    5  C   UNK N   1      20.637  16.044   1.127  0.00  0.00     0.009 C 
ENDBRANCH   2   3
ENDBRANCH   1   2
BRANCH   1   6
HETATM    6  N   UNK N   1      18.728  18.909   2.274  0.00  0.00    -0.418 N 
HETATM    7  H   UNK N   1      18.084  19.637   1.966  0.00  0.00     0.150 HD
HETATM    8  H   UNK N   1      18.388  17.952   2.379  0.00  0.00     0.150 HD
ENDBRANCH   1   6
BRANCH   1   9
HETATM    9  C   UNK N   1      20.723  20.037   1.467  0.00  0.00     0.163 C 
HETATM   10  O   UNK N   1      21.346  21.050   1.743  0.00  0.00    -0.648 OA
BRANCH   9  11
HETATM   11  O   UNK N   1      20.552  19.693   0.176  0.00  0.00    -0.775 OA
HETATM   12  H   UNK N   1      19.975  20.141  -0.411  0.00  0.00     0.167 HD
ENDBRANCH   9  11
ENDBRANCH   1   9
TORSDOF 5
ENDMDL
MODEL 8
REMARK VINA RESULT:      -3.9     13.723     14.458
REMARK  5 active torsions:
REMARK  status: ('A' for Active; 'I' for Inactive)
REMARK    1  A    between atoms: C_2  and  C_4 
REMARK    2  A    between atoms: C_4  and  C_5 
REMARK    3  A    between atoms: C_5  and  N_6 
REMARK    4  A    between atoms: C_5  and  C_7 
REMARK    5  A    between atoms: C_7  and  O_8 
ROOT
HETATM    1  C   UNK N   1      36.253  13.395  14.565  0.00  0.00     0.173 C 
ENDROOT
BRANCH   1   2
HETATM    2  C   UNK N   1      35.101  13.074  15.513  0.00  0.00     0.039 C 
BRANCH   2   3
HETATM    3  C   UNK N   1      35.610  12.545  16.849  0.00  0.00    -0.020 C 
HETATM    4  C   UNK N   1      35.158  11.112  17.035  0.00  0.00     0.009 C 
HETATM    5  C   UNK N   1      35.084  13.381  18.001  0.00  0.00     0.009 C 
ENDBRANCH   2   3
ENDBRANCH   1   2
BRANCH   1   6
HETATM    6  N   UNK N   1      37.248  14.216  15.240  0.00  0.00    -0.418 N 
HETATM    7  H   UNK N   1      37.505  14.044  16.212  0.00  0.00     0.150 HD
HETATM    8  H   UNK N   1      37.698  14.977  14.730  0.00  0.00     0.150 HD
ENDBRANCH   1   6
BRANCH   1   9
HETATM    9  C   UNK N   1      35.758  14.082  13.324  0.00  0.00     0.163 C 
HETATM   10  O   UNK N   1      34.711  13.725  12.809  0.00  0.00    -0.648 OA
BRANCH   9  11
HETATM   11  O   UNK N   1      36.477  15.068  12.753  0.00  0.00    -0.775 OA
HETATM   12  H   UNK N   1      37.310  15.358  13.071  0.00  0.00     0.167 HD
ENDBRANCH   9  11
ENDBRANCH   1   9
TORSDOF 5
ENDMDL
MODEL 9
REMARK VINA RESULT:      -3.9     13.919     14.696
REMARK  5 active torsions:
REMARK  status: ('A' for Active; 'I' for Inactive)
REMARK    1  A    between atoms: C_2  and  C_4 
REMARK    2  A    between atoms: C_4  and  C_5 
REMARK    3  A    between atoms: C_5  and  N_6 
REMARK    4  A    between atoms: C_5  and  C_7 
REMARK    5  A    between atoms: C_7  and  O_8 
ROOT
HETATM    1  C   UNK N   1      36.337  12.938  14.643  0.00  0.00     0.173 C 
ENDROOT
BRANCH   1   2
HETATM    2  C   UNK N   1      36.332  13.671  15.982  0.00  0.00     0.039 C 
BRANCH   2   3
HETATM    3  C   UNK N   1      35.190  13.195  16.872  0.00  0.00    -0.020 C 
HETATM    4  C   UNK N   1      35.185  13.989  18.161  0.00  0.00     0.009 C 
HETATM    5  C   UNK N   1      35.337  11.721  17.203  0.00  0.00     0.009 C 
ENDBRANCH   2   3
ENDBRANCH   1   2
BRANCH   1   6
HETATM    6  N   UNK N   1      37.661  12.397  14.368  0.00  0.00    -0.418 N 
HETATM    7  H   UNK N   1      38.204  11.933  15.096  0.00  0.00     0.150 HD
HETATM    8  H   UNK N   1      38.052  12.483  13.430  0.00  0.00     0.150 HD
ENDBRANCH   1   6
BRANCH   1   9
HETATM    9  C   UNK N   1      35.898  13.844  13.528  0.00  0.00     0.163 C 
HETATM   10  O   UNK N   1      34.793  13.703  13.030  0.00  0.00    -0.648 OA
BRANCH   9  11
HETATM   11  O   UNK N   1      36.727  14.791  13.046  0.00  0.00    -0.775 OA
HETATM   12  H   UNK N   1      36.906  14.912  12.134  0.00  0.00     0.167 HD
ENDBRANCH   9  11
ENDBRANCH   1   9
TORSDOF 5
ENDMDL
