REMARK  27 active torsions:
REMARK  status: ('A' for Active; 'I' for Inactive)
REMARK    1  A    between atoms: C_7  and  C_1 
REMARK    2  A    between atoms: O_51  and  C_1 
REMARK    3  A    between atoms: C_8  and  C_2 
REMARK    4  A    between atoms: O_52  and  C_2 
REMARK    5  A    between atoms: C_11  and  O_37 
REMARK    6  A    between atoms: C_12  and  O_38 
REMARK    7  A    between atoms: C_13  and  O_39 
REMARK    8  A    between atoms: C_14  and  O_40 
REMARK    9  A    between atoms: N_21  and  C_15 
REMARK   10  A    between atoms: N_22  and  C_16 
REMARK   11  A    between atoms: C_19  and  N_35 
REMARK   12  A    between atoms: C_20  and  N_36 
REMARK   13  A    between atoms: P_59  and  O_41 
REMARK   14  A    between atoms: P_60  and  O_43 
REMARK   15  A    between atoms: P_61  and  O_45 
REMARK   16  A    between atoms: P_62  and  O_47 
REMARK   17  A    between atoms: P_63  and  O_49 
REMARK   18  A    between atoms: P_59  and  O_51 
REMARK   19  A    between atoms: P_60  and  O_52 
REMARK   20  A    between atoms: P_59  and  O_55 
REMARK   21  A    between atoms: P_61  and  O_55 
REMARK   22  A    between atoms: P_60  and  O_56 
REMARK   23  A    between atoms: P_62  and  O_56 
REMARK   24  A    between atoms: P_61  and  O_57 
REMARK   25  A    between atoms: P_63  and  O_57 
REMARK   26  A    between atoms: P_62  and  O_58 
REMARK   27  A    between atoms: P_63  and  O_58 
ROOT
HETATM    1  O   UNK N   1      -2.532  -4.327   2.754  0.00  0.00    -0.631 OA
HETATM    2  P   UNK N   1      -2.175  -5.134   1.478  0.00  0.00     0.410 P 
ENDROOT
BRANCH   2   3
HETATM    3  O   UNK N   1      -1.514  -6.624   2.082  0.00  0.00    -0.307 OA
HETATM    4  H   UNK N   1      -2.050  -7.359   2.420  0.00  0.00     0.222 HD
ENDBRANCH   2   3
BRANCH   2   5
HETATM    5  O   UNK N   1      -3.678  -5.240   0.594  0.00  0.00    -0.195 OA
BRANCH   5   6
HETATM    6  P   UNK N   1      -3.867  -6.823  -0.105  0.00  0.00     0.410 P 
HETATM    7  O   UNK N   1      -3.316  -6.850  -1.556  0.00  0.00    -0.631 OA
BRANCH   6   8
HETATM    8  O   UNK N   1      -5.578  -6.995  -0.305  0.00  0.00    -0.307 OA
HETATM    9  H   UNK N   1      -6.141  -6.214  -0.417  0.00  0.00     0.222 HD
ENDBRANCH   6   8
BRANCH   6  10
HETATM   10  O   UNK N   1      -3.189  -8.114   0.868  0.00  0.00    -0.195 OA
BRANCH  10  11
HETATM   11  P   UNK N   1      -2.026  -9.001  -0.090  0.00  0.00     0.401 P 
HETATM   12  O   UNK N   1      -1.216  -9.880   0.909  0.00  0.00    -0.631 OA
BRANCH  11  13
HETATM   13  O   UNK N   1      -0.844  -8.018  -0.897  0.00  0.00    -0.307 OA
HETATM   14  H   UNK N   1      -0.038  -8.315  -1.347  0.00  0.00     0.222 HD
ENDBRANCH  11  13
BRANCH  11  15
HETATM   15  O   UNK N   1      -2.861 -10.081  -1.155  0.00  0.00    -0.294 OA
BRANCH  15  16
HETATM   16  C   UNK N   1      -3.396 -10.971  -0.237  0.00  0.00     0.215 C 
BRANCH  16  17
HETATM   17  C   UNK N   1      -4.891 -11.143  -0.311  0.00  0.00     0.180 C 
HETATM   18  C   UNK N   1      -5.833  -9.956  -0.297  0.00  0.00     0.182 C 
HETATM   19  C   UNK N   1      -7.114 -10.751  -0.177  0.00  0.00     0.198 C 
HETATM   20  C   UNK N   1      -6.666 -11.842   0.825  0.00  0.00     0.262 C 
HETATM   21  O   UNK N   1      -5.258 -11.819   0.852  0.00  0.00    -0.353 OA
BRANCH  18  22
HETATM   22  O   UNK N   1      -5.640  -9.228   0.884  0.00  0.00    -0.390 OA
HETATM   23  H   UNK N   1      -5.136  -9.091   1.702  0.00  0.00     0.210 HD
ENDBRANCH  18  22
BRANCH  19  24
HETATM   24  O   UNK N   1      -8.191  -9.981   0.277  0.00  0.00    -0.388 OA
HETATM   25  H   UNK N   1      -8.102  -9.068   0.591  0.00  0.00     0.210 HD
ENDBRANCH  19  24
BRANCH  20  26
HETATM   26  N   UNK N   1      -7.029 -13.193   0.415  0.00  0.00    -0.297 N 
HETATM   27  C   UNK N   1      -6.120 -14.176   0.157  0.00  0.00     0.188 A 
HETATM   28  N   UNK N   1      -6.720 -15.335  -0.194  0.00  0.00    -0.346 N 
HETATM   29  C   UNK N   1      -8.030 -15.048  -0.146  0.00  0.00     0.122 A 
ATOM     30  HN  UNK N   1      -6.280 -16.222  -0.438  1.00  0.00     0.167 HD
HETATM   31  C   UNK N   1      -9.104 -15.862  -0.405  0.00  0.00     0.131 A 
HETATM   32  C   UNK N   1      -8.215 -13.762   0.218  0.00  0.00     0.142 A 
HETATM   33  N   UNK N   1     -10.354 -15.325  -0.283  0.00  0.00    -0.337 N 
HETATM   34  C   UNK N   1     -10.527 -14.009   0.087  0.00  0.00     0.183 A 
ATOM     35  HN  UNK N   1     -11.171 -15.906  -0.469  1.00  0.00     0.168 HD
HETATM   36  N   UNK N   1      -9.444 -13.210   0.344  0.00  0.00    -0.336 N 
ATOM     37  HN  UNK N   1      -9.560 -12.235   0.621  1.00  0.00     0.168 HD
BRANCH  31  38
HETATM   38  N   UNK N   1      -8.922 -17.208  -0.779  0.00  0.00    -0.383 N 
HETATM   39  H   UNK N   1      -9.673 -17.788  -1.040  0.00  0.00     0.157 HD
HETATM   40  H   UNK N   1      -8.011 -17.582  -0.779  0.00  0.00     0.157 HD
ENDBRANCH  31  38
ENDBRANCH  20  26
ENDBRANCH  16  17
ENDBRANCH  15  16
ENDBRANCH  11  15
ENDBRANCH  10  11
ENDBRANCH   6  10
ENDBRANCH   5   6
ENDBRANCH   2   5
BRANCH   2  41
HETATM   41  O   UNK N   1      -0.984  -4.165   0.656  0.00  0.00    -0.195 OA
BRANCH  41  42
HETATM   42  P   UNK N   1      -1.691  -3.683  -0.865  0.00  0.00     0.410 P 
HETATM   43  O   UNK N   1      -1.892  -4.815  -1.896  0.00  0.00    -0.631 OA
BRANCH  42  44
HETATM   44  O   UNK N   1      -0.029  -3.769  -1.335  0.00  0.00    -0.307 OA
HETATM   45  H   UNK N   1       0.396  -4.600  -1.599  0.00  0.00     0.222 HD
ENDBRANCH  42  44
BRANCH  42  46
HETATM   46  O   UNK N   1      -1.579  -2.124  -1.621  0.00  0.00    -0.195 OA
BRANCH  46  47
HETATM   47  P   UNK N   1      -2.545  -0.979  -0.730  0.00  0.00     0.401 P 
HETATM   48  O   UNK N   1      -3.946  -1.577  -0.431  0.00  0.00    -0.631 OA
BRANCH  47  49
HETATM   49  O   UNK N   1      -2.816   0.384  -1.770  0.00  0.00    -0.307 OA
HETATM   50  H   UNK N   1      -2.232   0.896  -2.352  0.00  0.00     0.222 HD
ENDBRANCH  47  49
BRANCH  47  51
HETATM   51  O   UNK N   1      -1.821  -0.402   0.755  0.00  0.00    -0.294 OA
BRANCH  51  52
HETATM   52  C   UNK N   1      -0.652  -1.140   1.002  0.00  0.00     0.215 C 
BRANCH  52  53
HETATM   53  C   UNK N   1       0.504  -0.705   0.098  0.00  0.00     0.180 C 
HETATM   54  C   UNK N   1       1.859  -1.260   0.559  0.00  0.00     0.182 C 
HETATM   55  C   UNK N   1       2.730  -0.019   0.569  0.00  0.00     0.198 C 
HETATM   56  C   UNK N   1       1.937   0.922  -0.325  0.00  0.00     0.262 C 
HETATM   57  O   UNK N   1       0.596   0.693   0.023  0.00  0.00    -0.353 OA
BRANCH  54  58
HETATM   58  O   UNK N   1       2.324  -2.191  -0.374  0.00  0.00    -0.390 OA
HETATM   59  H   UNK N   1       1.926  -2.794  -1.021  0.00  0.00     0.210 HD
ENDBRANCH  54  58
BRANCH  55  60
HETATM   60  O   UNK N   1       2.745   0.503   1.867  0.00  0.00    -0.388 OA
HETATM   61  H   UNK N   1       3.064   0.675   2.767  0.00  0.00     0.210 HD
ENDBRANCH  55  60
BRANCH  56  62
HETATM   62  N   UNK N   1       2.270   2.327  -0.100  0.00  0.00    -0.297 N 
HETATM   63  C   UNK N   1       1.400   3.308   0.264  0.00  0.00     0.188 A 
HETATM   64  N   UNK N   1       2.031   4.505   0.406  0.00  0.00    -0.346 N 
HETATM   65  C   UNK N   1       3.319   4.235   0.126  0.00  0.00     0.122 A 
ATOM     66  HN  UNK N   1       1.621   5.402   0.666  1.00  0.00     0.167 HD
HETATM   67  C   UNK N   1       4.418   5.070   0.136  0.00  0.00     0.131 A 
HETATM   68  C   UNK N   1       3.458   2.932  -0.184  0.00  0.00     0.142 A 
HETATM   69  N   UNK N   1       5.635   4.529  -0.172  0.00  0.00    -0.337 N 
HETATM   70  C   UNK N   1       5.756   3.195  -0.486  0.00  0.00     0.183 A 
ATOM     71  HN  UNK N   1       6.465   5.122  -0.170  1.00  0.00     0.168 HD
HETATM   72  N   UNK N   1       4.657   2.380  -0.494  0.00  0.00    -0.336 N 
ATOM     73  HN  UNK N   1       4.736   1.389  -0.725  1.00  0.00     0.168 HD
BRANCH  67  74
HETATM   74  N   UNK N   1       4.298   6.435   0.465  0.00  0.00    -0.383 N 
HETATM   75  H   UNK N   1       5.082   6.984   0.695  0.00  0.00     0.157 HD
HETATM   76  H   UNK N   1       3.406   6.851   0.465  0.00  0.00     0.157 HD
ENDBRANCH  67  74
ENDBRANCH  56  62
ENDBRANCH  52  53
ENDBRANCH  51  52
ENDBRANCH  47  51
ENDBRANCH  46  47
ENDBRANCH  42  46
ENDBRANCH  41  42
ENDBRANCH   2  41
TORSDOF 27
