MODEL 1
REMARK VINA RESULT:      -7.4      0.000      0.000
REMARK  14 active torsions:
REMARK  status: ('A' for Active; 'I' for Inactive)
REMARK    1  A    between atoms: C_3  and  C_1 
REMARK    2  A    between atoms: O_28  and  C_1 
REMARK    3  A    between atoms: C_5  and  O_19 
REMARK    4  A    between atoms: O_21  and  C_8 
REMARK    5  A    between atoms: C_9  and  N_18 
REMARK       I    between atoms: N_11  and  C_10 
REMARK    6  A    between atoms: P_32  and  O_22 
REMARK    7  A    between atoms: P_33  and  O_24 
REMARK    8  A    between atoms: P_34  and  O_26 
REMARK    9  A    between atoms: P_34  and  O_27 
REMARK   10  A    between atoms: P_32  and  O_28 
REMARK   11  A    between atoms: P_32  and  O_30 
REMARK   12  A    between atoms: P_33  and  O_30 
REMARK   13  A    between atoms: P_33  and  O_31 
REMARK   14  A    between atoms: P_34  and  O_31 
ROOT
HETATM    1  C   UNK N   1      35.413  13.270  13.136  0.00  0.00     0.180 C 
HETATM    2  C   UNK N   1      36.455  12.195  12.785  0.00  0.00     0.182 C 
HETATM    3  C   UNK N   1      36.460  11.324  14.029  0.00  0.00     0.198 C 
HETATM    4  C   UNK N   1      35.162  11.757  14.684  0.00  0.00     0.262 C 
HETATM    5  O   UNK N   1      37.523  11.679  14.869  0.00  0.00    -0.388 OA
HETATM    6  O   UNK N   1      35.145  13.162  14.526  0.00  0.00    -0.353 OA
HETATM    7  H   UNK N   1      38.343  11.814  15.368  0.00  0.00     0.210 HD
ENDROOT
BRANCH   2   8
HETATM    8  O   UNK N   1      37.734  12.712  12.543  0.00  0.00    -0.390 OA
HETATM    9  H   UNK N   1      38.420  13.317  12.869  0.00  0.00     0.210 HD
ENDBRANCH   2   8
BRANCH   4  10
HETATM   10  N   UNK N   1      35.005  11.306  16.071  0.00  0.00    -0.297 N 
HETATM   11  C   UNK N   1      34.999  10.029  16.542  0.00  0.00     0.188 A 
HETATM   12  N   UNK N   1      35.087  10.004  17.906  0.00  0.00    -0.346 N 
HETATM   13  C   UNK N   1      35.164  11.303  18.259  0.00  0.00     0.130 A 
ATOM     14  HN  UNK N   1      35.091   9.188  18.519  1.00  0.00     0.167 HD
HETATM   15  C   UNK N   1      35.106  12.074  17.161  0.00  0.00     0.157 A 
HETATM   16  C   UNK N   1      35.335  11.889  19.506  0.00  0.00     0.186 A 
HETATM   17  N   UNK N   1      35.185  13.426  17.213  0.00  0.00    -0.174 N 
HETATM   18  C   UNK N   1      35.311  14.020  18.434  0.00  0.00     0.679 A 
HETATM   19  H   UNK N   1      35.152  13.964  16.390  0.00  0.00     0.186 HD
HETATM   20  N   UNK N   1      35.358  15.295  18.515  0.00  0.00    -0.234 N 
HETATM   21  N   UNK N   1      35.398  13.256  19.572  0.00  0.00    -0.168 N 
HETATM   22  H   UNK N   1      35.288  15.846  17.702  0.00  0.00     0.174 HD
ATOM     23  HN  UNK N   1      35.469  15.744  19.425  1.00  0.00     0.174 HD
ATOM     24  HN  UNK N   1      35.511  13.711  20.476  1.00  0.00     0.186 HD
BRANCH  16  25
HETATM   25  O   UNK N   1      35.458  11.147  20.619  0.00  0.00    -0.344 OA
HETATM   26  H   UNK N   1      35.573  11.563  21.451  0.00  0.00     0.219 HD
ENDBRANCH  16  25
ENDBRANCH   4  10
BRANCH   1  27
HETATM   27  C   UNK N   1      35.831  14.649  12.665  0.00  0.00     0.215 C 
BRANCH  27  28
HETATM   28  O   UNK N   1      36.194  14.618  11.324  0.00  0.00    -0.294 OA
BRANCH  28  29
HETATM   29  P   UNK N   1      34.843  15.342  10.516  0.00  0.00     0.401 P 
HETATM   30  O   UNK N   1      35.037  16.880  10.610  0.00  0.00    -0.631 OA
BRANCH  29  31
HETATM   31  O   UNK N   1      33.335  14.961  11.288  0.00  0.00    -0.307 OA
HETATM   32  H   UNK N   1      32.608  15.316  11.823  0.00  0.00     0.222 HD
ENDBRANCH  29  31
BRANCH  29  33
HETATM   33  O   UNK N   1      34.820  14.964   8.822  0.00  0.00    -0.195 OA
BRANCH  33  34
HETATM   34  P   UNK N   1      33.191  15.244   8.256  0.00  0.00     0.409 P 
HETATM   35  O   UNK N   1      32.371  13.968   8.587  0.00  0.00    -0.631 OA
BRANCH  34  36
HETATM   36  O   UNK N   1      32.410  16.586   9.035  0.00  0.00    -0.307 OA
HETATM   37  H   UNK N   1      32.741  17.498   8.995  0.00  0.00     0.222 HD
ENDBRANCH  34  36
BRANCH  34  38
HETATM   38  O   UNK N   1      33.145  15.392   6.515  0.00  0.00    -0.213 OA
BRANCH  38  39
HETATM   39  P   UNK N   1      32.817  17.070   6.174  0.00  0.00     0.332 P 
HETATM   40  S   UNK N   1      32.749  16.364   4.554  0.00  0.00    -0.007 SA
BRANCH  39  41
HETATM   41  O   UNK N   1      33.944  18.055   5.299  0.00  0.00    -0.324 OA
HETATM   42  H   UNK N   1      34.674  17.649   4.807  0.00  0.00     0.220 HD
ENDBRANCH  39  41
BRANCH  39  43
HETATM   43  O   UNK N   1      34.439  16.919   6.785  0.00  0.00    -0.324 OA
HETATM   44  H   UNK N   1      34.958  16.435   7.445  0.00  0.00     0.220 HD
ENDBRANCH  39  43
ENDBRANCH  38  39
ENDBRANCH  34  38
ENDBRANCH  33  34
ENDBRANCH  29  33
ENDBRANCH  28  29
ENDBRANCH  27  28
ENDBRANCH   1  27
TORSDOF 14
ENDMDL
MODEL 2
REMARK VINA RESULT:      -7.3      1.102      1.578
REMARK  14 active torsions:
REMARK  status: ('A' for Active; 'I' for Inactive)
REMARK    1  A    between atoms: C_3  and  C_1 
REMARK    2  A    between atoms: O_28  and  C_1 
REMARK    3  A    between atoms: C_5  and  O_19 
REMARK    4  A    between atoms: O_21  and  C_8 
REMARK    5  A    between atoms: C_9  and  N_18 
REMARK       I    between atoms: N_11  and  C_10 
REMARK    6  A    between atoms: P_32  and  O_22 
REMARK    7  A    between atoms: P_33  and  O_24 
REMARK    8  A    between atoms: P_34  and  O_26 
REMARK    9  A    between atoms: P_34  and  O_27 
REMARK   10  A    between atoms: P_32  and  O_28 
REMARK   11  A    between atoms: P_32  and  O_30 
REMARK   12  A    between atoms: P_33  and  O_30 
REMARK   13  A    between atoms: P_33  and  O_31 
REMARK   14  A    between atoms: P_34  and  O_31 
ROOT
HETATM    1  C   UNK N   1      35.187  13.425  12.818  0.00  0.00     0.180 C 
HETATM    2  C   UNK N   1      36.464  12.596  12.599  0.00  0.00     0.182 C 
HETATM    3  C   UNK N   1      36.552  11.784  13.879  0.00  0.00     0.198 C 
HETATM    4  C   UNK N   1      35.140  11.938  14.411  0.00  0.00     0.262 C 
HETATM    5  O   UNK N   1      37.437  12.388  14.781  0.00  0.00    -0.388 OA
HETATM    6  O   UNK N   1      34.831  13.300  14.187  0.00  0.00    -0.353 OA
HETATM    7  H   UNK N   1      38.162  12.715  15.335  0.00  0.00     0.210 HD
ENDROOT
BRANCH   2   8
HETATM    8  O   UNK N   1      37.616  13.377  12.433  0.00  0.00    -0.390 OA
HETATM    9  H   UNK N   1      38.583  13.390  12.512  0.00  0.00     0.210 HD
ENDBRANCH   2   8
BRANCH   4  10
HETATM   10  N   UNK N   1      34.967  11.504  15.801  0.00  0.00    -0.297 N 
HETATM   11  C   UNK N   1      34.887  10.231  16.278  0.00  0.00     0.188 A 
HETATM   12  N   UNK N   1      34.984  10.206  17.642  0.00  0.00    -0.346 N 
HETATM   13  C   UNK N   1      35.144  11.500  17.988  0.00  0.00     0.130 A 
ATOM     14  HN  UNK N   1      34.942   9.394  18.258  1.00  0.00     0.167 HD
HETATM   15  C   UNK N   1      35.124  12.268  16.887  0.00  0.00     0.157 A 
HETATM   16  C   UNK N   1      35.360  12.079  19.231  0.00  0.00     0.186 A 
HETATM   17  N   UNK N   1      35.286  13.613  16.932  0.00  0.00    -0.174 N 
HETATM   18  C   UNK N   1      35.459  14.202  18.149  0.00  0.00     0.679 A 
HETATM   19  H   UNK N   1      35.280  14.149  16.107  0.00  0.00     0.186 HD
HETATM   20  N   UNK N   1      35.585  15.473  18.225  0.00  0.00    -0.234 N 
HETATM   21  N   UNK N   1      35.508  13.439  19.290  0.00  0.00    -0.168 N 
HETATM   22  H   UNK N   1      35.542  16.024  17.410  0.00  0.00     0.174 HD
ATOM     23  HN  UNK N   1      35.730  15.918  19.132  1.00  0.00     0.174 HD
ATOM     24  HN  UNK N   1      35.656  13.891  20.192  1.00  0.00     0.186 HD
BRANCH  16  25
HETATM   25  O   UNK N   1      35.447  11.335  20.346  0.00  0.00    -0.344 OA
HETATM   26  H   UNK N   1      34.889  11.518  21.077  0.00  0.00     0.219 HD
ENDBRANCH  16  25
ENDBRANCH   4  10
BRANCH   1  27
HETATM   27  C   UNK N   1      35.334  14.848  12.317  0.00  0.00     0.215 C 
BRANCH  27  28
HETATM   28  O   UNK N   1      34.456  15.090  11.268  0.00  0.00    -0.294 OA
BRANCH  28  29
HETATM   29  P   UNK N   1      35.446  15.855  10.071  0.00  0.00     0.401 P 
HETATM   30  O   UNK N   1      36.909  15.419  10.354  0.00  0.00    -0.631 OA
BRANCH  29  31
HETATM   31  O   UNK N   1      35.391  17.587  10.182  0.00  0.00    -0.307 OA
HETATM   32  H   UNK N   1      35.507  18.416   9.692  0.00  0.00     0.222 HD
ENDBRANCH  29  31
BRANCH  29  33
HETATM   33  O   UNK N   1      35.080  15.295   8.469  0.00  0.00    -0.195 OA
BRANCH  33  34
HETATM   34  P   UNK N   1      33.948  16.429   7.775  0.00  0.00     0.409 P 
HETATM   35  O   UNK N   1      32.936  16.801   8.893  0.00  0.00    -0.631 OA
BRANCH  34  36
HETATM   36  O   UNK N   1      34.690  17.901   7.229  0.00  0.00    -0.307 OA
HETATM   37  H   UNK N   1      34.291  18.493   6.571  0.00  0.00     0.222 HD
ENDBRANCH  34  36
BRANCH  34  38
HETATM   38  O   UNK N   1      32.996  15.680   6.515  0.00  0.00    -0.213 OA
BRANCH  38  39
HETATM   39  P   UNK N   1      31.328  16.018   6.893  0.00  0.00     0.332 P 
HETATM   40  S   UNK N   1      31.162  14.707   5.718  0.00  0.00    -0.007 SA
BRANCH  39  41
HETATM   41  O   UNK N   1      30.253  16.711   5.722  0.00  0.00    -0.324 OA
HETATM   42  H   UNK N   1      29.428  17.134   6.004  0.00  0.00     0.220 HD
ENDBRANCH  39  41
BRANCH  39  43
HETATM   43  O   UNK N   1      32.023  17.400   6.097  0.00  0.00    -0.324 OA
HETATM   44  H   UNK N   1      32.556  17.640   5.324  0.00  0.00     0.220 HD
ENDBRANCH  39  43
ENDBRANCH  38  39
ENDBRANCH  34  38
ENDBRANCH  33  34
ENDBRANCH  29  33
ENDBRANCH  28  29
ENDBRANCH  27  28
ENDBRANCH   1  27
TORSDOF 14
ENDMDL
MODEL 3
REMARK VINA RESULT:      -7.2     10.114     13.038
REMARK  14 active torsions:
REMARK  status: ('A' for Active; 'I' for Inactive)
REMARK    1  A    between atoms: C_3  and  C_1 
REMARK    2  A    between atoms: O_28  and  C_1 
REMARK    3  A    between atoms: C_5  and  O_19 
REMARK    4  A    between atoms: O_21  and  C_8 
REMARK    5  A    between atoms: C_9  and  N_18 
REMARK       I    between atoms: N_11  and  C_10 
REMARK    6  A    between atoms: P_32  and  O_22 
REMARK    7  A    between atoms: P_33  and  O_24 
REMARK    8  A    between atoms: P_34  and  O_26 
REMARK    9  A    between atoms: P_34  and  O_27 
REMARK   10  A    between atoms: P_32  and  O_28 
REMARK   11  A    between atoms: P_32  and  O_30 
REMARK   12  A    between atoms: P_33  and  O_30 
REMARK   13  A    between atoms: P_33  and  O_31 
REMARK   14  A    between atoms: P_34  and  O_31 
ROOT
HETATM    1  C   UNK N   1      29.328  16.645   6.396  0.00  0.00     0.180 C 
HETATM    2  C   UNK N   1      28.781  17.195   7.725  0.00  0.00     0.182 C 
HETATM    3  C   UNK N   1      27.822  18.277   7.262  0.00  0.00     0.198 C 
HETATM    4  C   UNK N   1      27.643  17.895   5.805  0.00  0.00     0.262 C 
HETATM    5  O   UNK N   1      28.439  19.533   7.320  0.00  0.00    -0.388 OA
HETATM    6  O   UNK N   1      28.945  17.552   5.374  0.00  0.00    -0.353 OA
HETATM    7  H   UNK N   1      28.808  20.410   7.511  0.00  0.00     0.210 HD
ENDROOT
BRANCH   2   8
HETATM    8  O   UNK N   1      29.771  17.737   8.555  0.00  0.00    -0.390 OA
HETATM    9  H   UNK N   1      30.534  17.532   9.118  0.00  0.00     0.210 HD
ENDBRANCH   2   8
BRANCH   4  10
HETATM   10  N   UNK N   1      26.990  18.922   4.986  0.00  0.00    -0.297 N 
HETATM   11  C   UNK N   1      27.572  19.820   4.145  0.00  0.00     0.188 A 
HETATM   12  N   UNK N   1      26.639  20.443   3.364  0.00  0.00    -0.346 N 
HETATM   13  C   UNK N   1      25.468  19.889   3.737  0.00  0.00     0.130 A 
ATOM     14  HN  UNK N   1      26.794  21.165   2.660  1.00  0.00     0.167 HD
HETATM   15  C   UNK N   1      25.683  18.989   4.710  0.00  0.00     0.157 A 
HETATM   16  C   UNK N   1      24.184  20.080   3.244  0.00  0.00     0.186 A 
HETATM   17  N   UNK N   1      24.685  18.258   5.263  0.00  0.00    -0.174 N 
HETATM   18  C   UNK N   1      23.412  18.463   4.819  0.00  0.00     0.679 A 
HETATM   19  H   UNK N   1      24.874  17.597   5.967  0.00  0.00     0.186 HD
HETATM   20  N   UNK N   1      22.446  17.809   5.344  0.00  0.00    -0.234 N 
HETATM   21  N   UNK N   1      23.165  19.359   3.808  0.00  0.00    -0.168 N 
HETATM   22  H   UNK N   1      22.619  17.172   6.074  0.00  0.00     0.174 HD
ATOM     23  HN  UNK N   1      21.494  17.947   5.004  1.00  0.00     0.174 HD
ATOM     24  HN  UNK N   1      22.211  19.489   3.472  1.00  0.00     0.186 HD
BRANCH  16  25
HETATM   25  O   UNK N   1      23.941  20.926   2.230  0.00  0.00    -0.344 OA
HETATM   26  H   UNK N   1      23.662  21.803   2.407  0.00  0.00     0.219 HD
ENDBRANCH  16  25
ENDBRANCH   4  10
BRANCH   1  27
HETATM   27  C   UNK N   1      30.811  16.341   6.469  0.00  0.00     0.215 C 
BRANCH  27  28
HETATM   28  O   UNK N   1      31.553  17.405   5.971  0.00  0.00    -0.294 OA
BRANCH  28  29
HETATM   29  P   UNK N   1      33.146  16.748   5.793  0.00  0.00     0.401 P 
HETATM   30  O   UNK N   1      33.389  16.567   4.270  0.00  0.00    -0.631 OA
BRANCH  29  31
HETATM   31  O   UNK N   1      33.297  15.184   6.532  0.00  0.00    -0.307 OA
HETATM   32  H   UNK N   1      33.343  14.708   7.376  0.00  0.00     0.222 HD
ENDBRANCH  29  31
BRANCH  29  33
HETATM   33  O   UNK N   1      34.369  17.848   6.346  0.00  0.00    -0.195 OA
BRANCH  33  34
HETATM   34  P   UNK N   1      34.306  17.849   8.092  0.00  0.00     0.409 P 
HETATM   35  O   UNK N   1      35.263  18.972   8.578  0.00  0.00    -0.631 OA
BRANCH  34  36
HETATM   36  O   UNK N   1      32.727  18.194   8.727  0.00  0.00    -0.307 OA
HETATM   37  H   UNK N   1      32.337  19.083   8.744  0.00  0.00     0.222 HD
ENDBRANCH  34  36
BRANCH  34  38
HETATM   38  O   UNK N   1      34.956  16.365   8.747  0.00  0.00    -0.213 OA
BRANCH  38  39
HETATM   39  P   UNK N   1      34.582  16.376  10.450  0.00  0.00     0.332 P 
HETATM   40  S   UNK N   1      35.940  15.245  10.398  0.00  0.00    -0.007 SA
BRANCH  39  41
HETATM   41  O   UNK N   1      33.926  14.982  11.246  0.00  0.00    -0.324 OA
HETATM   42  H   UNK N   1      33.084  15.039  11.723  0.00  0.00     0.220 HD
ENDBRANCH  39  41
BRANCH  39  43
HETATM   43  O   UNK N   1      33.244  15.688   9.578  0.00  0.00    -0.324 OA
HETATM   44  H   UNK N   1      32.713  14.878   9.519  0.00  0.00     0.220 HD
ENDBRANCH  39  43
ENDBRANCH  38  39
ENDBRANCH  34  38
ENDBRANCH  33  34
ENDBRANCH  29  33
ENDBRANCH  28  29
ENDBRANCH  27  28
ENDBRANCH   1  27
TORSDOF 14
ENDMDL
MODEL 4
REMARK VINA RESULT:      -7.1      7.680     10.124
REMARK  14 active torsions:
REMARK  status: ('A' for Active; 'I' for Inactive)
REMARK    1  A    between atoms: C_3  and  C_1 
REMARK    2  A    between atoms: O_28  and  C_1 
REMARK    3  A    between atoms: C_5  and  O_19 
REMARK    4  A    between atoms: O_21  and  C_8 
REMARK    5  A    between atoms: C_9  and  N_18 
REMARK       I    between atoms: N_11  and  C_10 
REMARK    6  A    between atoms: P_32  and  O_22 
REMARK    7  A    between atoms: P_33  and  O_24 
REMARK    8  A    between atoms: P_34  and  O_26 
REMARK    9  A    between atoms: P_34  and  O_27 
REMARK   10  A    between atoms: P_32  and  O_28 
REMARK   11  A    between atoms: P_32  and  O_30 
REMARK   12  A    between atoms: P_33  and  O_30 
REMARK   13  A    between atoms: P_33  and  O_31 
REMARK   14  A    between atoms: P_34  and  O_31 
ROOT
HETATM    1  C   UNK N   1      33.303  15.185   8.621  0.00  0.00     0.180 C 
HETATM    2  C   UNK N   1      33.822  16.565   9.063  0.00  0.00     0.182 C 
HETATM    3  C   UNK N   1      32.629  17.465   8.796  0.00  0.00     0.198 C 
HETATM    4  C   UNK N   1      31.520  16.438   8.670  0.00  0.00     0.262 C 
HETATM    5  O   UNK N   1      32.774  18.117   7.565  0.00  0.00    -0.388 OA
HETATM    6  O   UNK N   1      32.096  15.397   7.905  0.00  0.00    -0.353 OA
HETATM    7  H   UNK N   1      32.949  18.684   6.798  0.00  0.00     0.210 HD
ENDROOT
BRANCH   2   8
HETATM    8  O   UNK N   1      34.938  17.001   8.337  0.00  0.00    -0.390 OA
HETATM    9  H   UNK N   1      35.238  17.561   7.603  0.00  0.00     0.210 HD
ENDBRANCH   2   8
BRANCH   4  10
HETATM   10  N   UNK N   1      30.266  16.965   8.120  0.00  0.00    -0.297 N 
HETATM   11  C   UNK N   1      29.190  17.447   8.799  0.00  0.00     0.188 A 
HETATM   12  N   UNK N   1      28.318  18.083   7.959  0.00  0.00    -0.346 N 
HETATM   13  C   UNK N   1      28.899  17.992   6.746  0.00  0.00     0.130 A 
ATOM     14  HN  UNK N   1      27.430  18.524   8.196  1.00  0.00     0.167 HD
HETATM   15  C   UNK N   1      30.056  17.318   6.847  0.00  0.00     0.157 A 
HETATM   16  C   UNK N   1      28.508  18.512   5.520  0.00  0.00     0.186 A 
HETATM   17  N   UNK N   1      30.867  17.094   5.785  0.00  0.00    -0.174 N 
HETATM   18  C   UNK N   1      30.477  17.563   4.565  0.00  0.00     0.679 A 
HETATM   19  H   UNK N   1      31.714  16.607   5.892  0.00  0.00     0.186 HD
HETATM   20  N   UNK N   1      31.208  17.341   3.539  0.00  0.00    -0.234 N 
HETATM   21  N   UNK N   1      29.312  18.277   4.435  0.00  0.00    -0.168 N 
HETATM   22  H   UNK N   1      32.041  16.822   3.627  0.00  0.00     0.174 HD
ATOM     23  HN  UNK N   1      30.929  17.703   2.627  1.00  0.00     0.174 HD
ATOM     24  HN  UNK N   1      29.041  18.638   3.521  1.00  0.00     0.186 HD
BRANCH  16  25
HETATM   25  O   UNK N   1      27.389  19.244   5.393  0.00  0.00    -0.344 OA
HETATM   26  H   UNK N   1      26.606  18.986   5.839  0.00  0.00     0.219 HD
ENDBRANCH  16  25
ENDBRANCH   4  10
BRANCH   1  27
HETATM   27  C   UNK N   1      34.359  14.385   7.886  0.00  0.00     0.215 C 
BRANCH  27  28
HETATM   28  O   UNK N   1      33.865  13.924   6.671  0.00  0.00    -0.294 OA
BRANCH  28  29
HETATM   29  P   UNK N   1      34.593  14.978   5.505  0.00  0.00     0.401 P 
HETATM   30  O   UNK N   1      36.016  15.312   6.029  0.00  0.00    -0.631 OA
BRANCH  29  31
HETATM   31  O   UNK N   1      33.732  16.478   5.349  0.00  0.00    -0.307 OA
HETATM   32  H   UNK N   1      33.730  17.418   5.588  0.00  0.00     0.222 HD
ENDBRANCH  29  31
BRANCH  29  33
HETATM   33  O   UNK N   1      34.817  14.195   3.972  0.00  0.00    -0.195 OA
BRANCH  33  34
HETATM   34  P   UNK N   1      33.353  14.440   3.052  0.00  0.00     0.409 P 
HETATM   35  O   UNK N   1      33.504  15.797   2.313  0.00  0.00    -0.631 OA
BRANCH  34  36
HETATM   36  O   UNK N   1      33.079  13.216   1.851  0.00  0.00    -0.307 OA
HETATM   37  H   UNK N   1      32.999  13.402   0.902  0.00  0.00     0.222 HD
ENDBRANCH  34  36
BRANCH  34  38
HETATM   38  O   UNK N   1      31.971  14.632   4.104  0.00  0.00    -0.213 OA
BRANCH  38  39
HETATM   39  P   UNK N   1      31.180  13.080   4.163  0.00  0.00     0.332 P 
HETATM   40  S   UNK N   1      30.099  13.982   3.094  0.00  0.00    -0.007 SA
BRANCH  39  41
HETATM   41  O   UNK N   1      29.642  12.872   4.938  0.00  0.00    -0.324 OA
HETATM   42  H   UNK N   1      29.212  13.618   5.384  0.00  0.00     0.220 HD
ENDBRANCH  39  41
BRANCH  39  43
HETATM   43  O   UNK N   1      31.136  13.802   5.745  0.00  0.00    -0.324 OA
HETATM   44  H   UNK N   1      30.672  13.739   6.594  0.00  0.00     0.220 HD
ENDBRANCH  39  43
ENDBRANCH  38  39
ENDBRANCH  34  38
ENDBRANCH  33  34
ENDBRANCH  29  33
ENDBRANCH  28  29
ENDBRANCH  27  28
ENDBRANCH   1  27
TORSDOF 14
ENDMDL
MODEL 5
REMARK VINA RESULT:      -7.1      7.641     10.496
REMARK  14 active torsions:
REMARK  status: ('A' for Active; 'I' for Inactive)
REMARK    1  A    between atoms: C_3  and  C_1 
REMARK    2  A    between atoms: O_28  and  C_1 
REMARK    3  A    between atoms: C_5  and  O_19 
REMARK    4  A    between atoms: O_21  and  C_8 
REMARK    5  A    between atoms: C_9  and  N_18 
REMARK       I    between atoms: N_11  and  C_10 
REMARK    6  A    between atoms: P_32  and  O_22 
REMARK    7  A    between atoms: P_33  and  O_24 
REMARK    8  A    between atoms: P_34  and  O_26 
REMARK    9  A    between atoms: P_34  and  O_27 
REMARK   10  A    between atoms: P_32  and  O_28 
REMARK   11  A    between atoms: P_32  and  O_30 
REMARK   12  A    between atoms: P_33  and  O_30 
REMARK   13  A    between atoms: P_33  and  O_31 
REMARK   14  A    between atoms: P_34  and  O_31 
ROOT
HETATM    1  C   UNK N   1      31.726  16.092   3.391  0.00  0.00     0.180 C 
HETATM    2  C   UNK N   1      30.598  15.117   3.013  0.00  0.00     0.182 C 
HETATM    3  C   UNK N   1      29.444  15.599   3.873  0.00  0.00     0.198 C 
HETATM    4  C   UNK N   1      29.935  16.982   4.258  0.00  0.00     0.262 C 
HETATM    5  O   UNK N   1      29.343  14.823   5.035  0.00  0.00    -0.388 OA
HETATM    6  O   UNK N   1      31.305  16.795   4.551  0.00  0.00    -0.353 OA
HETATM    7  H   UNK N   1      29.174  14.193   5.752  0.00  0.00     0.210 HD
ENDROOT
BRANCH   2   8
HETATM    8  O   UNK N   1      30.897  13.778   3.298  0.00  0.00    -0.390 OA
HETATM    9  H   UNK N   1      31.612  13.132   3.414  0.00  0.00     0.210 HD
ENDBRANCH   2   8
BRANCH   4  10
HETATM   10  N   UNK N   1      29.171  17.617   5.337  0.00  0.00    -0.297 N 
HETATM   11  C   UNK N   1      27.941  18.196   5.265  0.00  0.00     0.188 A 
HETATM   12  N   UNK N   1      27.440  18.451   6.511  0.00  0.00    -0.346 N 
HETATM   13  C   UNK N   1      28.390  17.995   7.352  0.00  0.00     0.130 A 
ATOM     14  HN  UNK N   1      26.550  18.889   6.751  1.00  0.00     0.167 HD
HETATM   15  C   UNK N   1      29.423  17.507   6.646  0.00  0.00     0.157 A 
HETATM   16  C   UNK N   1      28.408  17.926   8.738  0.00  0.00     0.186 A 
HETATM   17  N   UNK N   1      30.515  16.959   7.231  0.00  0.00    -0.174 N 
HETATM   18  C   UNK N   1      30.566  16.920   8.594  0.00  0.00     0.679 A 
HETATM   19  H   UNK N   1      31.251  16.598   6.688  0.00  0.00     0.186 HD
HETATM   20  N   UNK N   1      31.598  16.436   9.175  0.00  0.00    -0.234 N 
HETATM   21  N   UNK N   1      29.515  17.390   9.342  0.00  0.00    -0.168 N 
HETATM   22  H   UNK N   1      32.357  16.106   8.641  0.00  0.00     0.174 HD
ATOM     23  HN  UNK N   1      31.634  16.390  10.193  1.00  0.00     0.174 HD
ATOM     24  HN  UNK N   1      29.558  17.338  10.359  1.00  0.00     0.186 HD
BRANCH  16  25
HETATM   25  O   UNK N   1      27.367  18.348   9.475  0.00  0.00    -0.344 OA
HETATM   26  H   UNK N   1      26.490  18.173   9.193  0.00  0.00     0.219 HD
ENDBRANCH  16  25
ENDBRANCH   4  10
BRANCH   1  27
HETATM   27  C   UNK N   1      33.068  15.398   3.508  0.00  0.00     0.215 C 
BRANCH  27  28
HETATM   28  O   UNK N   1      33.676  15.708   4.718  0.00  0.00    -0.294 OA
BRANCH  28  29
HETATM   29  P   UNK N   1      33.390  14.304   5.693  0.00  0.00     0.401 P 
HETATM   30  O   UNK N   1      33.178  13.116   4.716  0.00  0.00    -0.631 OA
BRANCH  29  31
HETATM   31  O   UNK N   1      31.948  14.452   6.650  0.00  0.00    -0.307 OA
HETATM   32  H   UNK N   1      31.594  14.452   7.552  0.00  0.00     0.222 HD
ENDBRANCH  29  31
BRANCH  29  33
HETATM   33  O   UNK N   1      34.771  13.891   6.659  0.00  0.00    -0.195 OA
BRANCH  33  34
HETATM   34  P   UNK N   1      34.729  14.910   8.077  0.00  0.00     0.409 P 
HETATM   35  O   UNK N   1      36.179  14.978   8.629  0.00  0.00    -0.631 OA
BRANCH  34  36
HETATM   36  O   UNK N   1      34.217  16.536   7.745  0.00  0.00    -0.307 OA
HETATM   37  H   UNK N   1      33.870  17.139   8.422  0.00  0.00     0.222 HD
ENDBRANCH  34  36
BRANCH  34  38
HETATM   38  O   UNK N   1      33.778  14.181   9.349  0.00  0.00    -0.213 OA
BRANCH  38  39
HETATM   39  P   UNK N   1      34.754  14.251  10.792  0.00  0.00     0.332 P 
HETATM   40  S   UNK N   1      34.633  12.505  10.537  0.00  0.00    -0.007 SA
BRANCH  39  41
HETATM   41  O   UNK N   1      34.155  13.698  12.323  0.00  0.00    -0.324 OA
HETATM   42  H   UNK N   1      34.164  14.285  13.095  0.00  0.00     0.220 HD
ENDBRANCH  39  41
BRANCH  39  43
HETATM   43  O   UNK N   1      33.170  14.878  11.145  0.00  0.00    -0.324 OA
HETATM   44  H   UNK N   1      32.422  15.328  10.724  0.00  0.00     0.220 HD
ENDBRANCH  39  43
ENDBRANCH  38  39
ENDBRANCH  34  38
ENDBRANCH  33  34
ENDBRANCH  29  33
ENDBRANCH  28  29
ENDBRANCH  27  28
ENDBRANCH   1  27
TORSDOF 14
ENDMDL
MODEL 6
REMARK VINA RESULT:      -7.1      7.752     10.345
REMARK  14 active torsions:
REMARK  status: ('A' for Active; 'I' for Inactive)
REMARK    1  A    between atoms: C_3  and  C_1 
REMARK    2  A    between atoms: O_28  and  C_1 
REMARK    3  A    between atoms: C_5  and  O_19 
REMARK    4  A    between atoms: O_21  and  C_8 
REMARK    5  A    between atoms: C_9  and  N_18 
REMARK       I    between atoms: N_11  and  C_10 
REMARK    6  A    between atoms: P_32  and  O_22 
REMARK    7  A    between atoms: P_33  and  O_24 
REMARK    8  A    between atoms: P_34  and  O_26 
REMARK    9  A    between atoms: P_34  and  O_27 
REMARK   10  A    between atoms: P_32  and  O_28 
REMARK   11  A    between atoms: P_32  and  O_30 
REMARK   12  A    between atoms: P_33  and  O_30 
REMARK   13  A    between atoms: P_33  and  O_31 
REMARK   14  A    between atoms: P_34  and  O_31 
ROOT
HETATM    1  C   UNK N   1      33.754  17.551   6.864  0.00  0.00     0.180 C 
HETATM    2  C   UNK N   1      34.146  16.461   5.852  0.00  0.00     0.182 C 
HETATM    3  C   UNK N   1      32.801  16.033   5.291  0.00  0.00     0.198 C 
HETATM    4  C   UNK N   1      31.930  17.197   5.724  0.00  0.00     0.262 C 
HETATM    5  O   UNK N   1      32.350  14.875   5.938  0.00  0.00    -0.388 OA
HETATM    6  O   UNK N   1      32.348  17.472   7.046  0.00  0.00    -0.353 OA
HETATM    7  H   UNK N   1      32.115  13.994   6.268  0.00  0.00     0.210 HD
ENDROOT
BRANCH   2   8
HETATM    8  O   UNK N   1      34.806  15.369   6.432  0.00  0.00    -0.390 OA
HETATM    9  H   UNK N   1      34.886  14.824   7.231  0.00  0.00     0.210 HD
ENDBRANCH   2   8
BRANCH   4  10
HETATM   10  N   UNK N   1      30.489  16.958   5.586  0.00  0.00    -0.297 N 
HETATM   11  C   UNK N   1      29.845  16.250   4.619  0.00  0.00     0.188 A 
HETATM   12  N   UNK N   1      28.539  16.028   4.954  0.00  0.00    -0.346 N 
HETATM   13  C   UNK N   1      28.402  16.607   6.164  0.00  0.00     0.130 A 
ATOM     14  HN  UNK N   1      27.828  15.539   4.411  1.00  0.00     0.167 HD
HETATM   15  C   UNK N   1      29.567  17.166   6.531  0.00  0.00     0.157 A 
HETATM   16  C   UNK N   1      27.315  16.646   7.026  0.00  0.00     0.186 A 
HETATM   17  N   UNK N   1      29.730  17.801   7.717  0.00  0.00    -0.174 N 
HETATM   18  C   UNK N   1      28.660  17.884   8.558  0.00  0.00     0.679 A 
HETATM   19  H   UNK N   1      30.598  18.191   7.965  0.00  0.00     0.186 HD
HETATM   20  N   UNK N   1      28.777  18.503   9.672  0.00  0.00    -0.234 N 
HETATM   21  N   UNK N   1      27.464  17.300   8.220  0.00  0.00    -0.168 N 
HETATM   22  H   UNK N   1      29.631  18.929   9.914  0.00  0.00     0.174 HD
ATOM     23  HN  UNK N   1      27.983  18.554  10.312  1.00  0.00     0.174 HD
ATOM     24  HN  UNK N   1      26.677  17.353   8.867  1.00  0.00     0.186 HD
BRANCH  16  25
HETATM   25  O   UNK N   1      26.154  16.044   6.718  0.00  0.00    -0.344 OA
HETATM   26  H   UNK N   1      25.473  15.983   7.360  0.00  0.00     0.219 HD
ENDBRANCH  16  25
ENDBRANCH   4  10
BRANCH   1  27
HETATM   27  C   UNK N   1      34.576  17.475   8.135  0.00  0.00     0.215 C 
BRANCH  27  28
HETATM   28  O   UNK N   1      33.827  16.927   9.169  0.00  0.00    -0.294 OA
BRANCH  28  29
HETATM   29  P   UNK N   1      34.974  15.965  10.042  0.00  0.00     0.401 P 
HETATM   30  O   UNK N   1      36.092  16.929  10.523  0.00  0.00    -0.631 OA
BRANCH  29  31
HETATM   31  O   UNK N   1      35.721  14.762   9.038  0.00  0.00    -0.307 OA
HETATM   32  H   UNK N   1      36.468  14.149   8.960  0.00  0.00     0.222 HD
ENDBRANCH  29  31
BRANCH  29  33
HETATM   33  O   UNK N   1      34.284  15.276  11.478  0.00  0.00    -0.195 OA
BRANCH  33  34
HETATM   34  P   UNK N   1      35.315  13.950  11.957  0.00  0.00     0.409 P 
HETATM   35  O   UNK N   1      34.775  12.678  11.248  0.00  0.00    -0.631 OA
BRANCH  34  36
HETATM   36  O   UNK N   1      36.972  14.154  11.477  0.00  0.00    -0.307 OA
HETATM   37  H   UNK N   1      37.268  14.821  10.838  0.00  0.00     0.222 HD
ENDBRANCH  34  36
BRANCH  34  38
HETATM   38  O   UNK N   1      35.173  13.626  13.668  0.00  0.00    -0.213 OA
BRANCH  38  39
HETATM   39  P   UNK N   1      36.796  13.381  14.256  0.00  0.00     0.332 P 
HETATM   40  S   UNK N   1      35.839  12.936  15.675  0.00  0.00    -0.007 SA
BRANCH  39  41
HETATM   41  O   UNK N   1      37.478  14.392  15.490  0.00  0.00    -0.324 OA
HETATM   42  H   UNK N   1      37.572  14.064  16.397  0.00  0.00     0.220 HD
ENDBRANCH  39  41
BRANCH  39  43
HETATM   43  O   UNK N   1      36.559  15.073  13.928  0.00  0.00    -0.324 OA
HETATM   44  H   UNK N   1      36.499  15.701  13.192  0.00  0.00     0.220 HD
ENDBRANCH  39  43
ENDBRANCH  38  39
ENDBRANCH  34  38
ENDBRANCH  33  34
ENDBRANCH  29  33
ENDBRANCH  28  29
ENDBRANCH  27  28
ENDBRANCH   1  27
TORSDOF 14
ENDMDL
MODEL 7
REMARK VINA RESULT:      -6.9      7.415     10.417
REMARK  14 active torsions:
REMARK  status: ('A' for Active; 'I' for Inactive)
REMARK    1  A    between atoms: C_3  and  C_1 
REMARK    2  A    between atoms: O_28  and  C_1 
REMARK    3  A    between atoms: C_5  and  O_19 
REMARK    4  A    between atoms: O_21  and  C_8 
REMARK    5  A    between atoms: C_9  and  N_18 
REMARK       I    between atoms: N_11  and  C_10 
REMARK    6  A    between atoms: P_32  and  O_22 
REMARK    7  A    between atoms: P_33  and  O_24 
REMARK    8  A    between atoms: P_34  and  O_26 
REMARK    9  A    between atoms: P_34  and  O_27 
REMARK   10  A    between atoms: P_32  and  O_28 
REMARK   11  A    between atoms: P_32  and  O_30 
REMARK   12  A    between atoms: P_33  and  O_30 
REMARK   13  A    between atoms: P_33  and  O_31 
REMARK   14  A    between atoms: P_34  and  O_31 
ROOT
HETATM    1  C   UNK N   1      33.539  14.824   5.959  0.00  0.00     0.180 C 
HETATM    2  C   UNK N   1      32.713  13.711   5.291  0.00  0.00     0.182 C 
HETATM    3  C   UNK N   1      31.418  14.424   4.947  0.00  0.00     0.198 C 
HETATM    4  C   UNK N   1      31.851  15.873   5.063  0.00  0.00     0.262 C 
HETATM    5  O   UNK N   1      30.447  14.170   5.925  0.00  0.00    -0.388 OA
HETATM    6  O   UNK N   1      32.656  15.903   6.226  0.00  0.00    -0.353 OA
HETATM    7  H   UNK N   1      29.734  13.868   6.509  0.00  0.00     0.210 HD
ENDROOT
BRANCH   2   8
HETATM    8  O   UNK N   1      32.464  12.618   6.132  0.00  0.00    -0.390 OA
HETATM    9  H   UNK N   1      31.805  11.959   6.401  0.00  0.00     0.210 HD
ENDBRANCH   2   8
BRANCH   4  10
HETATM   10  N   UNK N   1      30.745  16.836   5.072  0.00  0.00    -0.297 N 
HETATM   11  C   UNK N   1      29.987  17.253   4.021  0.00  0.00     0.188 A 
HETATM   12  N   UNK N   1      28.894  17.955   4.447  0.00  0.00    -0.346 N 
HETATM   13  C   UNK N   1      28.993  17.943   5.791  0.00  0.00     0.130 A 
ATOM     14  HN  UNK N   1      28.169  18.390   3.876  1.00  0.00     0.167 HD
HETATM   15  C   UNK N   1      30.103  17.282   6.157  0.00  0.00     0.157 A 
HETATM   16  C   UNK N   1      28.134  18.442   6.761  0.00  0.00     0.186 A 
HETATM   17  N   UNK N   1      30.446  17.093   7.454  0.00  0.00    -0.174 N 
HETATM   18  C   UNK N   1      29.635  17.612   8.420  0.00  0.00     0.679 A 
HETATM   19  H   UNK N   1      31.259  16.594   7.693  0.00  0.00     0.186 HD
HETATM   20  N   UNK N   1      29.949  17.475   9.652  0.00  0.00    -0.234 N 
HETATM   21  N   UNK N   1      28.480  18.272   8.076  0.00  0.00    -0.168 N 
HETATM   22  H   UNK N   1      30.781  17.010   9.902  0.00  0.00     0.174 HD
ATOM     23  HN  UNK N   1      29.338  17.848  10.378  1.00  0.00     0.174 HD
ATOM     24  HN  UNK N   1      27.873  18.638   8.808  1.00  0.00     0.186 HD
BRANCH  16  25
HETATM   25  O   UNK N   1      26.984  19.054   6.433  0.00  0.00    -0.344 OA
HETATM   26  H   UNK N   1      27.001  19.846   5.931  0.00  0.00     0.219 HD
ENDBRANCH  16  25
ENDBRANCH   4  10
BRANCH   1  27
HETATM   27  C   UNK N   1      34.320  14.319   7.155  0.00  0.00     0.215 C 
BRANCH  27  28
HETATM   28  O   UNK N   1      34.285  15.245   8.190  0.00  0.00    -0.294 OA
BRANCH  28  29
HETATM   29  P   UNK N   1      33.552  14.376   9.496  0.00  0.00     0.401 P 
HETATM   30  O   UNK N   1      32.980  13.063   8.895  0.00  0.00    -0.631 OA
BRANCH  29  31
HETATM   31  O   UNK N   1      32.224  15.246  10.200  0.00  0.00    -0.307 OA
HETATM   32  H   UNK N   1      31.953  15.816  10.937  0.00  0.00     0.222 HD
ENDBRANCH  29  31
BRANCH  29  33
HETATM   33  O   UNK N   1      34.715  13.890  10.688  0.00  0.00    -0.195 OA
BRANCH  33  34
HETATM   34  P   UNK N   1      35.634  15.312  11.118  0.00  0.00     0.409 P 
HETATM   35  O   UNK N   1      36.858  15.366  10.163  0.00  0.00    -0.631 OA
BRANCH  34  36
HETATM   36  O   UNK N   1      34.749  16.793  10.920  0.00  0.00    -0.307 OA
HETATM   37  H   UNK N   1      34.788  17.340  10.120  0.00  0.00     0.222 HD
ENDBRANCH  34  36
BRANCH  34  38
HETATM   38  O   UNK N   1      36.302  15.169  12.727  0.00  0.00    -0.213 OA
BRANCH  38  39
HETATM   39  P   UNK N   1      36.041  13.518  13.221  0.00  0.00     0.332 P 
HETATM   40  S   UNK N   1      36.533  14.265  14.746  0.00  0.00    -0.007 SA
BRANCH  39  41
HETATM   41  O   UNK N   1      37.353  12.500  13.721  0.00  0.00    -0.324 OA
HETATM   42  H   UNK N   1      37.418  11.588  13.397  0.00  0.00     0.220 HD
ENDBRANCH  39  41
BRANCH  39  43
HETATM   43  O   UNK N   1      37.379  13.575  12.111  0.00  0.00    -0.324 OA
HETATM   44  H   UNK N   1      38.138  14.126  11.867  0.00  0.00     0.220 HD
ENDBRANCH  39  43
ENDBRANCH  38  39
ENDBRANCH  34  38
ENDBRANCH  33  34
ENDBRANCH  29  33
ENDBRANCH  28  29
ENDBRANCH  27  28
ENDBRANCH   1  27
TORSDOF 14
ENDMDL
MODEL 8
REMARK VINA RESULT:      -6.9      7.284     10.928
REMARK  14 active torsions:
REMARK  status: ('A' for Active; 'I' for Inactive)
REMARK    1  A    between atoms: C_3  and  C_1 
REMARK    2  A    between atoms: O_28  and  C_1 
REMARK    3  A    between atoms: C_5  and  O_19 
REMARK    4  A    between atoms: O_21  and  C_8 
REMARK    5  A    between atoms: C_9  and  N_18 
REMARK       I    between atoms: N_11  and  C_10 
REMARK    6  A    between atoms: P_32  and  O_22 
REMARK    7  A    between atoms: P_33  and  O_24 
REMARK    8  A    between atoms: P_34  and  O_26 
REMARK    9  A    between atoms: P_34  and  O_27 
REMARK   10  A    between atoms: P_32  and  O_28 
REMARK   11  A    between atoms: P_32  and  O_30 
REMARK   12  A    between atoms: P_33  and  O_30 
REMARK   13  A    between atoms: P_33  and  O_31 
REMARK   14  A    between atoms: P_34  and  O_31 
ROOT
HETATM    1  C   UNK N   1      32.654  15.989   8.211  0.00  0.00     0.180 C 
HETATM    2  C   UNK N   1      32.799  17.507   8.008  0.00  0.00     0.182 C 
HETATM    3  C   UNK N   1      32.948  17.624   6.501  0.00  0.00     0.198 C 
HETATM    4  C   UNK N   1      32.443  16.264   6.059  0.00  0.00     0.262 C 
HETATM    5  O   UNK N   1      34.301  17.732   6.152  0.00  0.00    -0.388 OA
HETATM    6  O   UNK N   1      33.012  15.362   6.988  0.00  0.00    -0.353 OA
HETATM    7  H   UNK N   1      35.214  17.966   5.924  0.00  0.00     0.210 HD
ENDROOT
BRANCH   2   8
HETATM    8  O   UNK N   1      33.914  18.054   8.656  0.00  0.00    -0.390 OA
HETATM    9  H   UNK N   1      34.811  17.873   8.981  0.00  0.00     0.210 HD
ENDBRANCH   2   8
BRANCH   4  10
HETATM   10  N   UNK N   1      32.727  15.940   4.656  0.00  0.00    -0.297 N 
HETATM   11  C   UNK N   1      32.522  16.718   3.558  0.00  0.00     0.188 A 
HETATM   12  N   UNK N   1      33.137  16.191   2.457  0.00  0.00    -0.346 N 
HETATM   13  C   UNK N   1      33.741  15.076   2.914  0.00  0.00     0.130 A 
ATOM     14  HN  UNK N   1      33.138  16.558   1.505  1.00  0.00     0.167 HD
HETATM   15  C   UNK N   1      33.485  14.927   4.223  0.00  0.00     0.157 A 
HETATM   16  C   UNK N   1      34.566  14.169   2.264  0.00  0.00     0.186 A 
HETATM   17  N   UNK N   1      33.985  13.901   4.954  0.00  0.00    -0.174 N 
HETATM   18  C   UNK N   1      34.765  12.978   4.322  0.00  0.00     0.679 A 
HETATM   19  H   UNK N   1      33.791  13.825   5.915  0.00  0.00     0.186 HD
HETATM   20  N   UNK N   1      35.226  11.983   4.979  0.00  0.00    -0.234 N 
HETATM   21  N   UNK N   1      35.063  13.118   2.988  0.00  0.00    -0.168 N 
HETATM   22  H   UNK N   1      35.007  11.876   5.933  0.00  0.00     0.174 HD
ATOM     23  HN  UNK N   1      35.823  11.298   4.514  1.00  0.00     0.174 HD
ATOM     24  HN  UNK N   1      35.663  12.431   2.532  1.00  0.00     0.186 HD
BRANCH  16  25
HETATM   25  O   UNK N   1      34.893  14.320   0.970  0.00  0.00    -0.344 OA
HETATM   26  H   UNK N   1      34.614  13.686   0.338  0.00  0.00     0.219 HD
ENDBRANCH  16  25
ENDBRANCH   4  10
BRANCH   1  27
HETATM   27  C   UNK N   1      33.407  15.499   9.432  0.00  0.00     0.215 C 
BRANCH  27  28
HETATM   28  O   UNK N   1      34.763  15.378   9.155  0.00  0.00    -0.294 OA
BRANCH  28  29
HETATM   29  P   UNK N   1      35.524  15.683  10.681  0.00  0.00     0.401 P 
HETATM   30  O   UNK N   1      35.305  17.187  10.997  0.00  0.00    -0.631 OA
BRANCH  29  31
HETATM   31  O   UNK N   1      37.237  15.408  10.627  0.00  0.00    -0.307 OA
HETATM   32  H   UNK N   1      37.936  14.745  10.739  0.00  0.00     0.222 HD
ENDBRANCH  29  31
BRANCH  29  33
HETATM   33  O   UNK N   1      34.765  14.806  11.972  0.00  0.00    -0.195 OA
BRANCH  33  34
HETATM   34  P   UNK N   1      35.647  13.311  12.164  0.00  0.00     0.409 P 
HETATM   35  O   UNK N   1      35.943  12.773  10.738  0.00  0.00    -0.631 OA
BRANCH  34  36
HETATM   36  O   UNK N   1      37.169  13.506  12.978  0.00  0.00    -0.307 OA
HETATM   37  H   UNK N   1      37.548  12.842  13.576  0.00  0.00     0.222 HD
ENDBRANCH  34  36
BRANCH  34  38
HETATM   38  O   UNK N   1      34.658  12.089  12.929  0.00  0.00    -0.213 OA
BRANCH  38  39
HETATM   39  P   UNK N   1      35.358  11.804  14.500  0.00  0.00     0.332 P 
HETATM   40  S   UNK N   1      33.954  10.730  14.543  0.00  0.00    -0.007 SA
BRANCH  39  41
HETATM   41  O   UNK N   1      34.559  12.305  15.955  0.00  0.00    -0.324 OA
HETATM   42  H   UNK N   1      33.703  11.922  16.202  0.00  0.00     0.220 HD
ENDBRANCH  39  41
BRANCH  39  43
HETATM   43  O   UNK N   1      34.802  13.451  14.414  0.00  0.00    -0.324 OA
HETATM   44  H   UNK N   1      34.563  14.200  14.980  0.00  0.00     0.220 HD
ENDBRANCH  39  43
ENDBRANCH  38  39
ENDBRANCH  34  38
ENDBRANCH  33  34
ENDBRANCH  29  33
ENDBRANCH  28  29
ENDBRANCH  27  28
ENDBRANCH   1  27
TORSDOF 14
ENDMDL
MODEL 9
REMARK VINA RESULT:      -6.8      8.220     10.325
REMARK  14 active torsions:
REMARK  status: ('A' for Active; 'I' for Inactive)
REMARK    1  A    between atoms: C_3  and  C_1 
REMARK    2  A    between atoms: O_28  and  C_1 
REMARK    3  A    between atoms: C_5  and  O_19 
REMARK    4  A    between atoms: O_21  and  C_8 
REMARK    5  A    between atoms: C_9  and  N_18 
REMARK       I    between atoms: N_11  and  C_10 
REMARK    6  A    between atoms: P_32  and  O_22 
REMARK    7  A    between atoms: P_33  and  O_24 
REMARK    8  A    between atoms: P_34  and  O_26 
REMARK    9  A    between atoms: P_34  and  O_27 
REMARK   10  A    between atoms: P_32  and  O_28 
REMARK   11  A    between atoms: P_32  and  O_30 
REMARK   12  A    between atoms: P_33  and  O_30 
REMARK   13  A    between atoms: P_33  and  O_31 
REMARK   14  A    between atoms: P_34  and  O_31 
ROOT
HETATM    1  C   UNK N   1      32.978  15.335   7.216  0.00  0.00     0.180 C 
HETATM    2  C   UNK N   1      33.809  16.295   8.084  0.00  0.00     0.182 C 
HETATM    3  C   UNK N   1      32.751  17.220   8.656  0.00  0.00     0.198 C 
HETATM    4  C   UNK N   1      31.495  16.412   8.395  0.00  0.00     0.262 C 
HETATM    5  O   UNK N   1      32.682  18.404   7.910  0.00  0.00    -0.388 OA
HETATM    6  O   UNK N   1      31.679  15.894   7.092  0.00  0.00    -0.353 OA
HETATM    7  H   UNK N   1      32.745  19.279   7.497  0.00  0.00     0.210 HD
ENDROOT
BRANCH   2   8
HETATM    8  O   UNK N   1      34.760  17.025   7.358  0.00  0.00    -0.390 OA
HETATM    9  H   UNK N   1      35.690  17.297   7.319  0.00  0.00     0.210 HD
ENDBRANCH   2   8
BRANCH   4  10
HETATM   10  N   UNK N   1      30.245  17.160   8.573  0.00  0.00    -0.297 N 
HETATM   11  C   UNK N   1      29.729  17.668   9.726  0.00  0.00     0.188 A 
HETATM   12  N   UNK N   1      28.689  18.517   9.471  0.00  0.00    -0.346 N 
HETATM   13  C   UNK N   1      28.591  18.530   8.126  0.00  0.00     0.130 A 
ATOM     14  HN  UNK N   1      28.115  19.024  10.144  1.00  0.00     0.167 HD
HETATM   15  C   UNK N   1      29.517  17.712   7.598  0.00  0.00     0.157 A 
HETATM   16  C   UNK N   1      27.759  19.262   7.291  0.00  0.00     0.186 A 
HETATM   17  N   UNK N   1      29.666  17.545   6.261  0.00  0.00    -0.174 N 
HETATM   18  C   UNK N   1      28.829  18.225   5.427  0.00  0.00     0.679 A 
HETATM   19  H   UNK N   1      30.361  16.948   5.903  0.00  0.00     0.186 HD
HETATM   20  N   UNK N   1      28.927  18.064   4.162  0.00  0.00    -0.234 N 
HETATM   21  N   UNK N   1      27.889  19.087   5.938  0.00  0.00    -0.168 N 
HETATM   22  H   UNK N   1      29.595  17.441   3.793  0.00  0.00     0.174 HD
ATOM     23  HN  UNK N   1      28.314  18.583   3.533  1.00  0.00     0.174 HD
ATOM     24  HN  UNK N   1      27.282  19.604   5.303  1.00  0.00     0.186 HD
BRANCH  16  25
HETATM   25  O   UNK N   1      26.864  20.134   7.782  0.00  0.00    -0.344 OA
HETATM   26  H   UNK N   1      25.965  19.884   7.873  0.00  0.00     0.219 HD
ENDBRANCH  16  25
ENDBRANCH   4  10
BRANCH   1  27
HETATM   27  C   UNK N   1      33.666  15.004   5.907  0.00  0.00     0.215 C 
BRANCH  27  28
HETATM   28  O   UNK N   1      33.521  16.046   5.000  0.00  0.00    -0.294 OA
BRANCH  28  29
HETATM   29  P   UNK N   1      32.513  15.376   3.761  0.00  0.00     0.401 P 
HETATM   30  O   UNK N   1      33.339  15.407   2.447  0.00  0.00    -0.631 OA
BRANCH  29  31
HETATM   31  O   UNK N   1      31.081  16.322   3.497  0.00  0.00    -0.307 OA
HETATM   32  H   UNK N   1      30.510  16.723   2.823  0.00  0.00     0.222 HD
ENDBRANCH  29  31
BRANCH  29  33
HETATM   33  O   UNK N   1      32.144  13.706   4.056  0.00  0.00    -0.195 OA
BRANCH  33  34
HETATM   34  P   UNK N   1      30.421  13.601   4.325  0.00  0.00     0.409 P 
HETATM   35  O   UNK N   1      30.136  12.183   4.889  0.00  0.00    -0.631 OA
BRANCH  34  36
HETATM   36  O   UNK N   1      29.831  14.754   5.483  0.00  0.00    -0.307 OA
HETATM   37  H   UNK N   1      30.270  15.599   5.672  0.00  0.00     0.222 HD
ENDBRANCH  34  36
BRANCH  34  38
HETATM   38  O   UNK N   1      29.540  13.692   2.818  0.00  0.00    -0.213 OA
BRANCH  38  39
HETATM   39  P   UNK N   1      27.894  14.084   3.236  0.00  0.00     0.332 P 
HETATM   40  S   UNK N   1      27.654  12.884   1.959  0.00  0.00    -0.007 SA
BRANCH  39  41
HETATM   41  O   UNK N   1      26.852  14.925   2.134  0.00  0.00    -0.324 OA
HETATM   42  H   UNK N   1      25.889  14.842   2.208  0.00  0.00     0.220 HD
ENDBRANCH  39  41
BRANCH  39  43
HETATM   43  O   UNK N   1      28.657  15.488   2.550  0.00  0.00    -0.324 OA
HETATM   44  H   UNK N   1      28.513  16.181   1.887  0.00  0.00     0.220 HD
ENDBRANCH  39  43
ENDBRANCH  38  39
ENDBRANCH  34  38
ENDBRANCH  33  34
ENDBRANCH  29  33
ENDBRANCH  28  29
ENDBRANCH  27  28
ENDBRANCH   1  27
TORSDOF 14
ENDMDL
