MODEL 1
REMARK VINA RESULT:      -5.4      0.000      0.000
REMARK  8 active torsions:
REMARK  status: ('A' for Active; 'I' for Inactive)
REMARK    1  A    between atoms: N_2  and  C_9 
REMARK    2  A    between atoms: N_2  and  C_11 
REMARK    3  A    between atoms: N_2  and  C_12 
REMARK    4  A    between atoms: N_3  and  C_8 
REMARK    5  A    between atoms: N_3  and  C_13 
REMARK    6  A    between atoms: C_6  and  C_7 
REMARK    7  A    between atoms: C_6  and  C_8 
REMARK    8  A    between atoms: C_7  and  C_9 
ROOT
HETATM    1 Cl   UNK N   1      26.979  31.047  -3.000  0.00  0.00    -0.084 Cl
HETATM    2  N   UNK N   1      28.097  28.509  -7.296  0.00  0.00    -0.365 N 
ATOM      3  HN  UNK N   1      28.774  29.246  -7.492  1.00  0.00     0.165 HD
HETATM    4  C   UNK N   1      26.257  26.505  -6.773  0.00  0.00     0.042 A 
HETATM    5  C   UNK N   1      26.400  27.572  -5.877  0.00  0.00     0.017 A 
HETATM    6  C   UNK N   1      27.051  26.454  -7.921  0.00  0.00     0.047 A 
HETATM    7  C   UNK N   1      27.347  28.580  -6.165  0.00  0.00     0.046 A 
HETATM    8  C   UNK N   1      25.649  27.641  -4.696  0.00  0.00     0.018 A 
HETATM    9  C   UNK N   1      27.965  27.476  -8.174  0.00  0.00     0.090 A 
HETATM   10  C   UNK N   1      27.523  29.642  -5.274  0.00  0.00     0.054 A 
HETATM   11  C   UNK N   1      25.831  28.708  -3.813  0.00  0.00     0.025 A 
HETATM   12  C   UNK N   1      26.765  29.707  -4.103  0.00  0.00     0.036 A 
ENDROOT
BRANCH   4  13
HETATM   13  N   UNK N   1      25.399  25.430  -6.473  0.00  0.00    -0.385 N 
HETATM   14  H   UNK N   1      24.423  25.506  -6.577  0.00  0.00     0.160 HD
BRANCH  13  15
HETATM   15  C   UNK N   1      26.009  24.218  -6.008  0.00  0.00     0.077 C 
HETATM   16  C   UNK N   1      25.790  23.022  -6.919  0.00  0.00     0.032 C 
BRANCH  15  17
HETATM   17  C   UNK N   1      25.958  24.065  -4.490  0.00  0.00     0.026 C 
BRANCH  17  18
HETATM   18  C   UNK N   1      27.227  24.469  -3.766  0.00  0.00     0.032 C 
BRANCH  18  19
HETATM   19  C   UNK N   1      28.482  24.386  -4.644  0.00  0.00     0.272 C 
BRANCH  19  20
HETATM   20  N   UNK N   1      29.205  23.121  -4.451  0.00  0.00     0.087 N 
BRANCH  20  21
HETATM   21  C   UNK N   1      30.503  23.392  -3.819  0.00  0.00     0.268 C 
HETATM   22  C   UNK N   1      30.521  22.884  -2.390  0.00  0.00     0.037 C 
ENDBRANCH  20  21
BRANCH  20  23
HETATM   23  C   UNK N   1      29.305  22.486  -5.774  0.00  0.00     0.268 C 
HETATM   24  C   UNK N   1      29.708  23.408  -6.919  0.00  0.00     0.037 C 
ENDBRANCH  20  23
ENDBRANCH  19  20
ENDBRANCH  18  19
ENDBRANCH  17  18
ENDBRANCH  15  17
ENDBRANCH  13  15
ENDBRANCH   4  13
TORSDOF 8
ENDMDL
MODEL 2
REMARK VINA RESULT:      -5.1      1.782      3.085
REMARK  8 active torsions:
REMARK  status: ('A' for Active; 'I' for Inactive)
REMARK    1  A    between atoms: N_2  and  C_9 
REMARK    2  A    between atoms: N_2  and  C_11 
REMARK    3  A    between atoms: N_2  and  C_12 
REMARK    4  A    between atoms: N_3  and  C_8 
REMARK    5  A    between atoms: N_3  and  C_13 
REMARK    6  A    between atoms: C_6  and  C_7 
REMARK    7  A    between atoms: C_6  and  C_8 
REMARK    8  A    between atoms: C_7  and  C_9 
ROOT
HETATM    1 Cl   UNK N   1      29.968  29.692  -8.914  0.00  0.00    -0.084 Cl
HETATM    2  N   UNK N   1      27.068  29.616  -4.702  0.00  0.00    -0.365 N 
ATOM      3  HN  UNK N   1      27.460  30.531  -4.481  1.00  0.00     0.165 HD
HETATM    4  C   UNK N   1      25.999  27.131  -5.298  0.00  0.00     0.042 A 
HETATM    5  C   UNK N   1      26.943  27.708  -6.157  0.00  0.00     0.017 A 
HETATM    6  C   UNK N   1      25.596  27.818  -4.150  0.00  0.00     0.047 A 
HETATM    7  C   UNK N   1      27.470  28.978  -5.833  0.00  0.00     0.046 A 
HETATM    8  C   UNK N   1      27.345  27.068  -7.336  0.00  0.00     0.018 A 
HETATM    9  C   UNK N   1      26.152  29.063  -3.860  0.00  0.00     0.090 A 
HETATM   10  C   UNK N   1      28.395  29.583  -6.687  0.00  0.00     0.054 A 
HETATM   11  C   UNK N   1      28.273  27.681  -8.183  0.00  0.00     0.025 A 
HETATM   12  C   UNK N   1      28.797  28.935  -7.857  0.00  0.00     0.036 A 
ENDROOT
BRANCH   4  13
HETATM   13  N   UNK N   1      25.374  25.915  -5.636  0.00  0.00    -0.385 N 
HETATM   14  H   UNK N   1      24.475  25.894  -6.038  0.00  0.00     0.160 HD
BRANCH  13  15
HETATM   15  C   UNK N   1      26.102  24.710  -5.369  0.00  0.00     0.077 C 
HETATM   16  C   UNK N   1      25.861  23.600  -6.378  0.00  0.00     0.032 C 
BRANCH  15  17
HETATM   17  C   UNK N   1      26.224  24.400  -3.879  0.00  0.00     0.026 C 
BRANCH  17  18
HETATM   18  C   UNK N   1      27.636  24.133  -3.397  0.00  0.00     0.032 C 
BRANCH  18  19
HETATM   19  C   UNK N   1      28.710  24.837  -4.236  0.00  0.00     0.272 C 
BRANCH  19  20
HETATM   20  N   UNK N   1      29.801  23.926  -4.609  0.00  0.00     0.087 N 
BRANCH  20  21
HETATM   21  C   UNK N   1      29.632  23.508  -6.007  0.00  0.00     0.268 C 
HETATM   22  C   UNK N   1      29.325  22.026  -6.092  0.00  0.00     0.037 C 
ENDBRANCH  20  21
BRANCH  20  23
HETATM   23  C   UNK N   1      29.773  22.814  -3.645  0.00  0.00     0.268 C 
HETATM   24  C   UNK N   1      30.953  22.747  -2.682  0.00  0.00     0.037 C 
ENDBRANCH  20  23
ENDBRANCH  19  20
ENDBRANCH  18  19
ENDBRANCH  17  18
ENDBRANCH  15  17
ENDBRANCH  13  15
ENDBRANCH   4  13
TORSDOF 8
ENDMDL
MODEL 3
REMARK VINA RESULT:      -4.9     14.858     17.559
REMARK  8 active torsions:
REMARK  status: ('A' for Active; 'I' for Inactive)
REMARK    1  A    between atoms: N_2  and  C_9 
REMARK    2  A    between atoms: N_2  and  C_11 
REMARK    3  A    between atoms: N_2  and  C_12 
REMARK    4  A    between atoms: N_3  and  C_8 
REMARK    5  A    between atoms: N_3  and  C_13 
REMARK    6  A    between atoms: C_6  and  C_7 
REMARK    7  A    between atoms: C_6  and  C_8 
REMARK    8  A    between atoms: C_7  and  C_9 
ROOT
HETATM    1 Cl   UNK N   1      21.210  11.926  11.544  0.00  0.00    -0.084 Cl
HETATM    2  N   UNK N   1      19.649  15.842   8.649  0.00  0.00    -0.365 N 
ATOM      3  HN  UNK N   1      18.817  15.875   9.238  1.00  0.00     0.165 HD
HETATM    4  C   UNK N   1      21.906  15.755   7.045  0.00  0.00     0.042 A 
HETATM    5  C   UNK N   1      21.757  14.834   8.090  0.00  0.00     0.017 A 
HETATM    6  C   UNK N   1      20.918  16.718   6.825  0.00  0.00     0.047 A 
HETATM    7  C   UNK N   1      20.599  14.901   8.895  0.00  0.00     0.046 A 
HETATM    8  C   UNK N   1      22.742  13.877   8.366  0.00  0.00     0.018 A 
HETATM    9  C   UNK N   1      19.784  16.741   7.635  0.00  0.00     0.090 A 
HETATM   10  C   UNK N   1      20.440  14.008   9.958  0.00  0.00     0.054 A 
HETATM   11  C   UNK N   1      22.573  12.986   9.430  0.00  0.00     0.025 A 
HETATM   12  C   UNK N   1      21.423  13.051  10.222  0.00  0.00     0.036 A 
ENDROOT
BRANCH   4  13
HETATM   13  N   UNK N   1      23.090  15.788   6.285  0.00  0.00    -0.385 N 
HETATM   14  H   UNK N   1      23.975  15.853   6.713  0.00  0.00     0.160 HD
BRANCH  13  15
HETATM   15  C   UNK N   1      22.953  15.722   4.859  0.00  0.00     0.077 C 
HETATM   16  C   UNK N   1      22.908  14.310   4.302  0.00  0.00     0.032 C 
BRANCH  15  17
HETATM   17  C   UNK N   1      23.717  16.827   4.132  0.00  0.00     0.026 C 
BRANCH  17  18
HETATM   18  C   UNK N   1      23.160  18.222   4.330  0.00  0.00     0.032 C 
BRANCH  18  19
HETATM   19  C   UNK N   1      22.140  18.630   3.258  0.00  0.00     0.272 C 
BRANCH  19  20
HETATM   20  N   UNK N   1      20.802  18.845   3.827  0.00  0.00     0.087 N 
BRANCH  20  21
HETATM   21  C   UNK N   1      19.900  17.780   3.368  0.00  0.00     0.268 C 
HETATM   22  C   UNK N   1      20.453  17.103   2.129  0.00  0.00     0.037 C 
ENDBRANCH  20  21
BRANCH  20  23
HETATM   23  C   UNK N   1      20.384  20.197   3.424  0.00  0.00     0.268 C 
HETATM   24  C   UNK N   1      21.222  20.848   2.330  0.00  0.00     0.037 C 
ENDBRANCH  20  23
ENDBRANCH  19  20
ENDBRANCH  18  19
ENDBRANCH  17  18
ENDBRANCH  15  17
ENDBRANCH  13  15
ENDBRANCH   4  13
TORSDOF 8
ENDMDL
MODEL 4
REMARK VINA RESULT:      -4.9     12.591     15.326
REMARK  8 active torsions:
REMARK  status: ('A' for Active; 'I' for Inactive)
REMARK    1  A    between atoms: N_2  and  C_9 
REMARK    2  A    between atoms: N_2  and  C_11 
REMARK    3  A    between atoms: N_2  and  C_12 
REMARK    4  A    between atoms: N_3  and  C_8 
REMARK    5  A    between atoms: N_3  and  C_13 
REMARK    6  A    between atoms: C_6  and  C_7 
REMARK    7  A    between atoms: C_6  and  C_8 
REMARK    8  A    between atoms: C_7  and  C_9 
ROOT
HETATM    1 Cl   UNK N   1      32.814  14.674   5.432  0.00  0.00    -0.084 Cl
HETATM    2  N   UNK N   1      30.782  17.661   9.050  0.00  0.00    -0.365 N 
ATOM      3  HN  UNK N   1      31.601  17.440   9.617  1.00  0.00     0.165 HD
HETATM    4  C   UNK N   1      28.556  18.265   7.517  0.00  0.00     0.042 A 
HETATM    5  C   UNK N   1      29.539  17.406   7.010  0.00  0.00     0.017 A 
HETATM    6  C   UNK N   1      28.709  18.820   8.790  0.00  0.00     0.047 A 
HETATM    7  C   UNK N   1      30.666  17.117   7.811  0.00  0.00     0.046 A 
HETATM    8  C   UNK N   1      29.440  16.859   5.724  0.00  0.00     0.018 A 
HETATM    9  C   UNK N   1      29.831  18.497   9.552  0.00  0.00     0.090 A 
HETATM   10  C   UNK N   1      31.671  16.280   7.317  0.00  0.00     0.054 A 
HETATM   11  C   UNK N   1      30.449  16.022   5.241  0.00  0.00     0.025 A 
HETATM   12  C   UNK N   1      31.561  15.733   6.037  0.00  0.00     0.036 A 
ENDROOT
BRANCH   4  13
HETATM   13  N   UNK N   1      27.469  18.660   6.714  0.00  0.00    -0.385 N 
HETATM   14  H   UNK N   1      26.719  18.050   6.527  0.00  0.00     0.160 HD
BRANCH  13  15
HETATM   15  C   UNK N   1      27.501  19.991   6.180  0.00  0.00     0.077 C 
HETATM   16  C   UNK N   1      26.527  20.951   6.841  0.00  0.00     0.032 C 
BRANCH  15  17
HETATM   17  C   UNK N   1      27.731  20.025   4.671  0.00  0.00     0.026 C 
BRANCH  17  18
HETATM   18  C   UNK N   1      27.213  18.815   3.920  0.00  0.00     0.032 C 
BRANCH  18  19
HETATM   19  C   UNK N   1      25.682  18.743   3.862  0.00  0.00     0.272 C 
BRANCH  19  20
HETATM   20  N   UNK N   1      25.207  17.394   3.524  0.00  0.00     0.087 N 
BRANCH  20  21
HETATM   21  C   UNK N   1      23.805  17.251   3.939  0.00  0.00     0.268 C 
HETATM   22  C   UNK N   1      23.256  18.573   4.440  0.00  0.00     0.037 C 
ENDBRANCH  20  21
BRANCH  20  23
HETATM   23  C   UNK N   1      26.124  16.447   4.178  0.00  0.00     0.268 C 
HETATM   24  C   UNK N   1      26.681  15.345   3.284  0.00  0.00     0.037 C 
ENDBRANCH  20  23
ENDBRANCH  19  20
ENDBRANCH  18  19
ENDBRANCH  17  18
ENDBRANCH  15  17
ENDBRANCH  13  15
ENDBRANCH   4  13
TORSDOF 8
ENDMDL
MODEL 5
REMARK VINA RESULT:      -4.8     11.588     13.693
REMARK  8 active torsions:
REMARK  status: ('A' for Active; 'I' for Inactive)
REMARK    1  A    between atoms: N_2  and  C_9 
REMARK    2  A    between atoms: N_2  and  C_11 
REMARK    3  A    between atoms: N_2  and  C_12 
REMARK    4  A    between atoms: N_3  and  C_8 
REMARK    5  A    between atoms: N_3  and  C_13 
REMARK    6  A    between atoms: C_6  and  C_7 
REMARK    7  A    between atoms: C_6  and  C_8 
REMARK    8  A    between atoms: C_7  and  C_9 
ROOT
HETATM    1 Cl   UNK N   1      26.804  20.554   3.440  0.00  0.00    -0.084 Cl
HETATM    2  N   UNK N   1      21.816  20.588   2.313  0.00  0.00    -0.365 N 
ATOM      3  HN  UNK N   1      22.028  21.325   1.641  1.00  0.00     0.165 HD
HETATM    4  C   UNK N   1      21.234  18.589   4.140  0.00  0.00     0.042 A 
HETATM    5  C   UNK N   1      22.551  19.046   4.003  0.00  0.00     0.017 A 
HETATM    6  C   UNK N   1      20.224  19.139   3.348  0.00  0.00     0.047 A 
HETATM    7  C   UNK N   1      22.822  20.063   3.062  0.00  0.00     0.046 A 
HETATM    8  C   UNK N   1      23.598  18.494   4.752  0.00  0.00     0.018 A 
HETATM    9  C   UNK N   1      20.533  20.152   2.441  0.00  0.00     0.090 A 
HETATM   10  C   UNK N   1      24.132  20.519   2.891  0.00  0.00     0.054 A 
HETATM   11  C   UNK N   1      24.904  18.957   4.576  0.00  0.00     0.025 A 
HETATM   12  C   UNK N   1      25.170  19.969   3.648  0.00  0.00     0.036 A 
ENDROOT
BRANCH   4  13
HETATM   13  N   UNK N   1      20.938  17.507   4.991  0.00  0.00    -0.385 N 
HETATM   14  H   UNK N   1      20.944  17.607   5.971  0.00  0.00     0.160 HD
BRANCH  13  15
HETATM   15  C   UNK N   1      20.627  16.253   4.369  0.00  0.00     0.077 C 
HETATM   16  C   UNK N   1      19.189  15.802   4.561  0.00  0.00     0.032 C 
BRANCH  15  17
HETATM   17  C   UNK N   1      21.777  15.250   4.435  0.00  0.00     0.026 C 
BRANCH  17  18
HETATM   18  C   UNK N   1      22.487  15.010   3.117  0.00  0.00     0.032 C 
BRANCH  18  19
HETATM   19  C   UNK N   1      21.806  15.691   1.924  0.00  0.00     0.272 C 
BRANCH  19  20
HETATM   20  N   UNK N   1      21.490  14.736   0.852  0.00  0.00     0.087 N 
BRANCH  20  21
HETATM   21  C   UNK N   1      20.047  14.459   0.856  0.00  0.00     0.268 C 
HETATM   22  C   UNK N   1      19.786  12.966   0.811  0.00  0.00     0.037 C 
ENDBRANCH  20  21
BRANCH  20  23
HETATM   23  C   UNK N   1      22.327  13.548   1.084  0.00  0.00     0.268 C 
HETATM   24  C   UNK N   1      23.437  13.316   0.065  0.00  0.00     0.037 C 
ENDBRANCH  20  23
ENDBRANCH  19  20
ENDBRANCH  18  19
ENDBRANCH  17  18
ENDBRANCH  15  17
ENDBRANCH  13  15
ENDBRANCH   4  13
TORSDOF 8
ENDMDL
MODEL 6
REMARK VINA RESULT:      -4.8     13.002     16.424
REMARK  8 active torsions:
REMARK  status: ('A' for Active; 'I' for Inactive)
REMARK    1  A    between atoms: N_2  and  C_9 
REMARK    2  A    between atoms: N_2  and  C_11 
REMARK    3  A    between atoms: N_2  and  C_12 
REMARK    4  A    between atoms: N_3  and  C_8 
REMARK    5  A    between atoms: N_3  and  C_13 
REMARK    6  A    between atoms: C_6  and  C_7 
REMARK    7  A    between atoms: C_6  and  C_8 
REMARK    8  A    between atoms: C_7  and  C_9 
ROOT
HETATM    1 Cl   UNK N   1      26.090  20.554   3.960  0.00  0.00    -0.084 Cl
HETATM    2  N   UNK N   1      27.669  18.920   8.541  0.00  0.00    -0.365 N 
ATOM      3  HN  UNK N   1      26.899  19.458   8.938  1.00  0.00     0.165 HD
HETATM    4  C   UNK N   1      29.764  17.460   7.468  0.00  0.00     0.042 A 
HETATM    5  C   UNK N   1      28.920  18.192   6.623  0.00  0.00     0.017 A 
HETATM    6  C   UNK N   1      29.537  17.463   8.846  0.00  0.00     0.047 A 
HETATM    7  C   UNK N   1      27.857  18.926   7.195  0.00  0.00     0.046 A 
HETATM    8  C   UNK N   1      29.092  18.184   5.233  0.00  0.00     0.018 A 
HETATM    9  C   UNK N   1      28.485  18.213   9.370  0.00  0.00     0.090 A 
HETATM   10  C   UNK N   1      26.989  19.645   6.370  0.00  0.00     0.054 A 
HETATM   11  C   UNK N   1      28.219  18.909   4.417  0.00  0.00     0.025 A 
HETATM   12  C   UNK N   1      27.171  19.639   4.985  0.00  0.00     0.036 A 
ENDROOT
BRANCH   4  13
HETATM   13  N   UNK N   1      30.771  16.634   6.932  0.00  0.00    -0.385 N 
HETATM   14  H   UNK N   1      30.600  15.689   6.717  0.00  0.00     0.160 HD
BRANCH  13  15
HETATM   15  C   UNK N   1      32.056  17.231   6.711  0.00  0.00     0.077 C 
HETATM   16  C   UNK N   1      32.701  16.851   5.389  0.00  0.00     0.032 C 
BRANCH  15  17
HETATM   17  C   UNK N   1      32.890  17.344   7.985  0.00  0.00     0.026 C 
BRANCH  17  18
HETATM   18  C   UNK N   1      34.373  17.088   7.799  0.00  0.00     0.032 C 
BRANCH  18  19
HETATM   19  C   UNK N   1      34.859  15.801   8.478  0.00  0.00     0.272 C 
BRANCH  19  20
HETATM   20  N   UNK N   1      34.147  15.541   9.737  0.00  0.00     0.087 N 
BRANCH  20  21
HETATM   21  C   UNK N   1      35.009  15.905  10.870  0.00  0.00     0.268 C 
HETATM   22  C   UNK N   1      36.443  15.485  10.611  0.00  0.00     0.037 C 
ENDBRANCH  20  21
BRANCH  20  23
HETATM   23  C   UNK N   1      33.754  14.123   9.717  0.00  0.00     0.268 C 
HETATM   24  C   UNK N   1      33.974  13.398   8.394  0.00  0.00     0.037 C 
ENDBRANCH  20  23
ENDBRANCH  19  20
ENDBRANCH  18  19
ENDBRANCH  17  18
ENDBRANCH  15  17
ENDBRANCH  13  15
ENDBRANCH   4  13
TORSDOF 8
ENDMDL
MODEL 7
REMARK VINA RESULT:      -4.8     12.059     14.819
REMARK  8 active torsions:
REMARK  status: ('A' for Active; 'I' for Inactive)
REMARK    1  A    between atoms: N_2  and  C_9 
REMARK    2  A    between atoms: N_2  and  C_11 
REMARK    3  A    between atoms: N_2  and  C_12 
REMARK    4  A    between atoms: N_3  and  C_8 
REMARK    5  A    between atoms: N_3  and  C_13 
REMARK    6  A    between atoms: C_6  and  C_7 
REMARK    7  A    between atoms: C_6  and  C_8 
REMARK    8  A    between atoms: C_7  and  C_9 
ROOT
HETATM    1 Cl   UNK N   1      24.762  20.633   2.786  0.00  0.00    -0.084 Cl
HETATM    2  N   UNK N   1      27.518  16.619   4.351  0.00  0.00    -0.365 N 
ATOM      3  HN  UNK N   1      27.207  16.144   3.504  1.00  0.00     0.165 HD
HETATM    4  C   UNK N   1      28.364  17.905   6.654  0.00  0.00     0.042 A 
HETATM    5  C   UNK N   1      27.505  18.562   5.765  0.00  0.00     0.017 A 
HETATM    6  C   UNK N   1      28.796  16.608   6.369  0.00  0.00     0.047 A 
HETATM    7  C   UNK N   1      27.090  17.886   4.596  0.00  0.00     0.046 A 
HETATM    8  C   UNK N   1      27.079  19.876   5.997  0.00  0.00     0.018 A 
HETATM    9  C   UNK N   1      28.352  15.972   5.210  0.00  0.00     0.090 A 
HETATM   10  C   UNK N   1      26.252  18.530   3.683  0.00  0.00     0.054 A 
HETATM   11  C   UNK N   1      26.238  20.511   5.079  0.00  0.00     0.025 A 
HETATM   12  C   UNK N   1      25.825  19.838   3.925  0.00  0.00     0.036 A 
ENDROOT
BRANCH   4  13
HETATM   13  N   UNK N   1      28.882  18.578   7.777  0.00  0.00    -0.385 N 
HETATM   14  H   UNK N   1      28.677  19.526   7.948  0.00  0.00     0.160 HD
BRANCH  13  15
HETATM   15  C   UNK N   1      29.721  17.823   8.662  0.00  0.00     0.077 C 
HETATM   16  C   UNK N   1      29.070  17.470   9.988  0.00  0.00     0.032 C 
BRANCH  15  17
HETATM   17  C   UNK N   1      31.189  18.240   8.597  0.00  0.00     0.026 C 
BRANCH  17  18
HETATM   18  C   UNK N   1      32.154  17.121   8.261  0.00  0.00     0.032 C 
BRANCH  18  19
HETATM   19  C   UNK N   1      32.928  17.355   6.957  0.00  0.00     0.272 C 
BRANCH  19  20
HETATM   20  N   UNK N   1      33.357  16.092   6.339  0.00  0.00     0.087 N 
BRANCH  20  21
HETATM   21  C   UNK N   1      33.303  16.222   4.876  0.00  0.00     0.268 C 
HETATM   22  C   UNK N   1      32.755  17.578   4.477  0.00  0.00     0.037 C 
ENDBRANCH  20  21
BRANCH  20  23
HETATM   23  C   UNK N   1      32.483  15.039   6.878  0.00  0.00     0.268 C 
HETATM   24  C   UNK N   1      31.685  14.251   5.845  0.00  0.00     0.037 C 
ENDBRANCH  20  23
ENDBRANCH  19  20
ENDBRANCH  18  19
ENDBRANCH  17  18
ENDBRANCH  15  17
ENDBRANCH  13  15
ENDBRANCH   4  13
TORSDOF 8
ENDMDL
MODEL 8
REMARK VINA RESULT:      -4.8     13.638     16.062
REMARK  8 active torsions:
REMARK  status: ('A' for Active; 'I' for Inactive)
REMARK    1  A    between atoms: N_2  and  C_9 
REMARK    2  A    between atoms: N_2  and  C_11 
REMARK    3  A    between atoms: N_2  and  C_12 
REMARK    4  A    between atoms: N_3  and  C_8 
REMARK    5  A    between atoms: N_3  and  C_13 
REMARK    6  A    between atoms: C_6  and  C_7 
REMARK    7  A    between atoms: C_6  and  C_8 
REMARK    8  A    between atoms: C_7  and  C_9 
ROOT
HETATM    1 Cl   UNK N   1      20.176  14.554   9.565  0.00  0.00    -0.084 Cl
HETATM    2  N   UNK N   1      23.494  15.294   5.743  0.00  0.00    -0.365 N 
ATOM      3  HN  UNK N   1      23.891  14.386   5.985  1.00  0.00     0.165 HD
HETATM    4  C   UNK N   1      22.419  17.760   5.084  0.00  0.00     0.042 A 
HETATM    5  C   UNK N   1      21.883  17.029   6.152  0.00  0.00     0.017 A 
HETATM    6  C   UNK N   1      23.486  17.235   4.352  0.00  0.00     0.047 A 
HETATM    7  C   UNK N   1      22.447  15.773   6.466  0.00  0.00     0.046 A 
HETATM    8  C   UNK N   1      20.789  17.504   6.886  0.00  0.00     0.018 A 
HETATM    9  C   UNK N   1      24.022  15.997   4.704  0.00  0.00     0.090 A 
HETATM   10  C   UNK N   1      21.914  15.016   7.513  0.00  0.00     0.054 A 
HETATM   11  C   UNK N   1      20.265  16.741   7.933  0.00  0.00     0.025 A 
HETATM   12  C   UNK N   1      20.828  15.500   8.246  0.00  0.00     0.036 A 
ENDROOT
BRANCH   4  13
HETATM   13  N   UNK N   1      21.822  18.967   4.673  0.00  0.00    -0.385 N 
HETATM   14  H   UNK N   1      21.692  19.716   5.300  0.00  0.00     0.160 HD
BRANCH  13  15
HETATM   15  C   UNK N   1      21.412  19.060   3.302  0.00  0.00     0.077 C 
HETATM   16  C   UNK N   1      21.772  20.375   2.631  0.00  0.00     0.032 C 
BRANCH  15  17
HETATM   17  C   UNK N   1      20.068  18.386   3.032  0.00  0.00     0.026 C 
BRANCH  17  18
HETATM   18  C   UNK N   1      20.069  17.406   1.875  0.00  0.00     0.032 C 
BRANCH  18  19
HETATM   19  C   UNK N   1      20.682  16.045   2.230  0.00  0.00     0.272 C 
BRANCH  19  20
HETATM   20  N   UNK N   1      19.657  15.066   2.620  0.00  0.00     0.087 N 
BRANCH  20  21
HETATM   21  C   UNK N   1      19.918  14.608   3.992  0.00  0.00     0.268 C 
HETATM   22  C   UNK N   1      18.845  15.110   4.939  0.00  0.00     0.037 C 
ENDBRANCH  20  21
BRANCH  20  23
HETATM   23  C   UNK N   1      19.693  13.993   1.614  0.00  0.00     0.268 C 
HETATM   24  C   UNK N   1      18.787  14.193   0.405  0.00  0.00     0.037 C 
ENDBRANCH  20  23
ENDBRANCH  19  20
ENDBRANCH  18  19
ENDBRANCH  17  18
ENDBRANCH  15  17
ENDBRANCH  13  15
ENDBRANCH   4  13
TORSDOF 8
ENDMDL
MODEL 9
REMARK VINA RESULT:      -4.8     11.381     13.388
REMARK  8 active torsions:
REMARK  status: ('A' for Active; 'I' for Inactive)
REMARK    1  A    between atoms: N_2  and  C_9 
REMARK    2  A    between atoms: N_2  and  C_11 
REMARK    3  A    between atoms: N_2  and  C_12 
REMARK    4  A    between atoms: N_3  and  C_8 
REMARK    5  A    between atoms: N_3  and  C_13 
REMARK    6  A    between atoms: C_6  and  C_7 
REMARK    7  A    between atoms: C_6  and  C_8 
REMARK    8  A    between atoms: C_7  and  C_9 
ROOT
HETATM    1 Cl   UNK N   1      26.650  20.516   3.654  0.00  0.00    -0.084 Cl
HETATM    2  N   UNK N   1      21.739  20.597   2.229  0.00  0.00    -0.365 N 
ATOM      3  HN  UNK N   1      21.985  21.377   1.619  1.00  0.00     0.165 HD
HETATM    4  C   UNK N   1      21.064  18.483   3.887  0.00  0.00     0.042 A 
HETATM    5  C   UNK N   1      22.383  18.954   3.859  0.00  0.00     0.017 A 
HETATM    6  C   UNK N   1      20.099  19.078   3.070  0.00  0.00     0.047 A 
HETATM    7  C   UNK N   1      22.702  20.031   3.003  0.00  0.00     0.046 A 
HETATM    8  C   UNK N   1      23.387  18.361   4.635  0.00  0.00     0.018 A 
HETATM    9  C   UNK N   1      20.454  20.148   2.250  0.00  0.00     0.090 A 
HETATM   10  C   UNK N   1      24.016  20.503   2.941  0.00  0.00     0.054 A 
HETATM   11  C   UNK N   1      24.698  18.841   4.568  0.00  0.00     0.025 A 
HETATM   12  C   UNK N   1      25.010  19.910   3.724  0.00  0.00     0.036 A 
ENDROOT
BRANCH   4  13
HETATM   13  N   UNK N   1      20.726  17.348   4.648  0.00  0.00    -0.385 N 
HETATM   14  H   UNK N   1      20.980  17.271   5.596  0.00  0.00     0.160 HD
BRANCH  13  15
HETATM   15  C   UNK N   1      19.996  16.309   3.982  0.00  0.00     0.077 C 
HETATM   16  C   UNK N   1      18.938  15.640   4.843  0.00  0.00     0.032 C 
BRANCH  15  17
HETATM   17  C   UNK N   1      20.859  15.489   3.025  0.00  0.00     0.026 C 
BRANCH  17  18
HETATM   18  C   UNK N   1      22.170  15.001   3.610  0.00  0.00     0.032 C 
BRANCH  18  19
HETATM   19  C   UNK N   1      23.330  15.017   2.606  0.00  0.00     0.272 C 
BRANCH  19  20
HETATM   20  N   UNK N   1      24.233  13.872   2.790  0.00  0.00     0.087 N 
BRANCH  20  21
HETATM   21  C   UNK N   1      25.545  14.354   3.244  0.00  0.00     0.268 C 
HETATM   22  C   UNK N   1      26.062  15.446   2.328  0.00  0.00     0.037 C 
ENDBRANCH  20  21
BRANCH  20  23
HETATM   23  C   UNK N   1      24.270  13.152   1.508  0.00  0.00     0.268 C 
HETATM   24  C   UNK N   1      23.353  13.697   0.419  0.00  0.00     0.037 C 
ENDBRANCH  20  23
ENDBRANCH  19  20
ENDBRANCH  18  19
ENDBRANCH  17  18
ENDBRANCH  15  17
ENDBRANCH  13  15
ENDBRANCH   4  13
TORSDOF 8
ENDMDL
