REMARK  3 active torsions:
REMARK  status: ('A' for Active; 'I' for Inactive)
REMARK    1  A    between atoms: C_8  and  C_13 
REMARK    2  A    between atoms: C_8  and  N_19 
REMARK    3  A    between atoms: C_16  and  C_20 
ROOT
HETATM    1  N   UNK N   1      -0.084  -0.378   0.000  0.00  0.00    -0.350 N 
ATOM      2  HN  UNK N   1       0.803   0.124   0.000  1.00  0.00     0.166 HD
HETATM    3  C   UNK N   1      -0.080  -1.752  -0.000  0.00  0.00     0.182 A 
HETATM    4  N   UNK N   1      -1.257  -2.450  -0.000  0.00  0.00    -0.337 N 
ATOM      5  HN  UNK N   1      -1.263  -3.470  -0.000  1.00  0.00     0.168 HD
HETATM    6  C   UNK N   1      -2.412  -1.746  -0.000  0.00  0.00     0.136 A 
HETATM    7  C   UNK N   1      -2.444  -0.402   0.000  0.00  0.00     0.105 A 
HETATM    8  N   UNK N   1      -3.718   0.015   0.000  0.00  0.00    -0.347 N 
ATOM      9  HN  UNK N   1      -4.063   0.975   0.000  1.00  0.00     0.167 HD
HETATM   10  C   UNK N   1      -4.448  -1.132  -0.000  0.00  0.00     0.182 A 
HETATM   11  N   UNK N   1      -3.657  -2.239  -0.000  0.00  0.00    -0.337 N 
HETATM   12  C   UNK N   1      -1.257   0.331   0.000  0.00  0.00     0.074 A 
HETATM   13  H   UNK N   1      -3.935  -3.183  -0.000  0.00  0.00     0.168 HD
ENDROOT
BRANCH  12  14
HETATM   14  C   UNK N   1      -1.238   1.811   0.000  0.00  0.00    -0.007 A 
HETATM   15  C   UNK N   1      -0.017   2.499   0.000  0.00  0.00     0.014 A 
HETATM   16  C   UNK N   1       0.003   3.895  -0.000  0.00  0.00     0.010 A 
HETATM   17  C   UNK N   1      -1.199   4.620  -0.000  0.00  0.00    -0.041 A 
HETATM   18  C   UNK N   1      -2.416   3.938   0.000  0.00  0.00     0.010 A 
HETATM   19  C   UNK N   1      -2.434   2.545   0.000  0.00  0.00     0.014 A 
BRANCH  17  20
HETATM   20  C   UNK N   1      -1.217   6.116  -0.000  0.00  0.00     0.152 C 
BRANCH  20  21
HETATM   21  N   UNK N   1       0.127   6.671  -0.000  0.00  0.00    -0.422 N 
HETATM   22  C   UNK N   1      -0.020   8.113   0.000  0.00  0.00     0.140 C 
HETATM   23  H   UNK N   1       1.002   6.148  -0.000  0.00  0.00     0.153 HD
ENDBRANCH  20  21
ENDBRANCH  17  20
ENDBRANCH  12  14
TORSDOF 3
