MODEL 1
REMARK VINA RESULT:      -6.0      0.000      0.000
REMARK  3 active torsions:
REMARK  status: ('A' for Active; 'I' for Inactive)
REMARK    1  A    between atoms: C_8  and  C_13 
REMARK    2  A    between atoms: C_8  and  N_19 
REMARK    3  A    between atoms: C_16  and  C_20 
ROOT
HETATM    1  N   UNK N   1      20.368  12.858  10.644  0.00  0.00    -0.350 N 
ATOM      2  HN  UNK N   1      19.394  13.075  10.437  1.00  0.00     0.166 HD
HETATM    3  C   UNK N   1      20.668  12.089  11.742  0.00  0.00     0.182 A 
HETATM    4  N   UNK N   1      21.967  11.782  12.041  0.00  0.00    -0.337 N 
ATOM      5  HN  UNK N   1      22.199  11.212  12.854  1.00  0.00     0.168 HD
HETATM    6  C   UNK N   1      22.936  12.259  11.226  0.00  0.00     0.136 A 
HETATM    7  C   UNK N   1      22.669  13.014  10.145  0.00  0.00     0.105 A 
HETATM    8  N   UNK N   1      23.817  13.339   9.533  0.00  0.00    -0.347 N 
ATOM      9  HN  UNK N   1      23.940  13.901   8.691  1.00  0.00     0.167 HD
HETATM   10  C   UNK N   1      24.781  12.749  10.289  0.00  0.00     0.182 A 
HETATM   11  N   UNK N   1      24.256  12.073  11.346  0.00  0.00    -0.337 N 
HETATM   12  C   UNK N   1      21.352  13.339   9.820  0.00  0.00     0.074 A 
HETATM   13  H   UNK N   1      24.735  11.564  12.039  0.00  0.00     0.168 HD
ENDROOT
BRANCH  12  14
HETATM   14  C   UNK N   1      21.006  14.167   8.643  0.00  0.00    -0.007 A 
HETATM   15  C   UNK N   1      20.782  15.542   8.790  0.00  0.00     0.014 A 
HETATM   16  C   UNK N   1      20.456  16.324   7.681  0.00  0.00     0.010 A 
HETATM   17  C   UNK N   1      20.350  15.739   6.409  0.00  0.00    -0.041 A 
HETATM   18  C   UNK N   1      20.572  14.370   6.259  0.00  0.00     0.010 A 
HETATM   19  C   UNK N   1      20.898  13.591   7.367  0.00  0.00     0.014 A 
BRANCH  17  20
HETATM   20  C   UNK N   1      20.002  16.545   5.197  0.00  0.00     0.152 C 
BRANCH  20  21
HETATM   21  N   UNK N   1      19.222  15.773   4.243  0.00  0.00    -0.422 N 
HETATM   22  C   UNK N   1      19.929  15.840   2.980  0.00  0.00     0.140 C 
HETATM   23  H   UNK N   1      18.348  15.282   4.427  0.00  0.00     0.153 HD
ENDBRANCH  20  21
ENDBRANCH  17  20
ENDBRANCH  12  14
TORSDOF 3
ENDMDL
MODEL 2
REMARK VINA RESULT:      -5.9     18.510     20.744
REMARK  3 active torsions:
REMARK  status: ('A' for Active; 'I' for Inactive)
REMARK    1  A    between atoms: C_8  and  C_13 
REMARK    2  A    between atoms: C_8  and  N_19 
REMARK    3  A    between atoms: C_16  and  C_20 
ROOT
HETATM    1  N   UNK N   1      25.843  26.246  -9.134  0.00  0.00    -0.350 N 
ATOM      2  HN  UNK N   1      25.937  27.240  -9.336  1.00  0.00     0.166 HD
HETATM    3  C   UNK N   1      25.699  25.359 -10.173  0.00  0.00     0.182 A 
HETATM    4  N   UNK N   1      25.570  24.018  -9.930  0.00  0.00    -0.337 N 
ATOM      5  HN  UNK N   1      25.463  23.353 -10.695  1.00  0.00     0.168 HD
HETATM    6  C   UNK N   1      25.588  23.603  -8.643  0.00  0.00     0.136 A 
HETATM    7  C   UNK N   1      25.727  24.449  -7.607  0.00  0.00     0.105 A 
HETATM    8  N   UNK N   1      25.709  23.758  -6.459  0.00  0.00    -0.347 N 
ATOM      9  HN  UNK N   1      25.793  24.120  -5.509  1.00  0.00     0.167 HD
HETATM   10  C   UNK N   1      25.554  22.464  -6.847  0.00  0.00     0.182 A 
HETATM   11  N   UNK N   1      25.477  22.344  -8.200  0.00  0.00    -0.337 N 
HETATM   12  C   UNK N   1      25.860  25.820  -7.831  0.00  0.00     0.074 A 
HETATM   13  H   UNK N   1      25.365  21.523  -8.730  0.00  0.00     0.168 HD
ENDROOT
BRANCH  12  14
HETATM   14  C   UNK N   1      26.015  26.793  -6.727  0.00  0.00    -0.007 A 
HETATM   15  C   UNK N   1      25.031  26.895  -5.735  0.00  0.00     0.014 A 
HETATM   16  C   UNK N   1      25.175  27.812  -4.693  0.00  0.00     0.010 A 
HETATM   17  C   UNK N   1      26.308  28.639  -4.630  0.00  0.00    -0.041 A 
HETATM   18  C   UNK N   1      27.290  28.540  -5.616  0.00  0.00     0.010 A 
HETATM   19  C   UNK N   1      27.144  27.624  -6.655  0.00  0.00     0.014 A 
BRANCH  17  20
HETATM   20  C   UNK N   1      26.497  29.634  -3.528  0.00  0.00     0.152 C 
BRANCH  20  21
HETATM   21  N   UNK N   1      27.246  29.070  -2.417  0.00  0.00    -0.422 N 
HETATM   22  C   UNK N   1      28.105  30.126  -1.918  0.00  0.00     0.140 C 
HETATM   23  H   UNK N   1      27.180  28.119  -2.058  0.00  0.00     0.153 HD
ENDBRANCH  20  21
ENDBRANCH  17  20
ENDBRANCH  12  14
TORSDOF 3
ENDMDL
MODEL 3
REMARK VINA RESULT:      -5.8     13.971     16.578
REMARK  3 active torsions:
REMARK  status: ('A' for Active; 'I' for Inactive)
REMARK    1  A    between atoms: C_8  and  C_13 
REMARK    2  A    between atoms: C_8  and  N_19 
REMARK    3  A    between atoms: C_16  and  C_20 
ROOT
HETATM    1  N   UNK N   1      34.755  14.879  11.583  0.00  0.00    -0.350 N 
ATOM      2  HN  UNK N   1      33.931  15.084  12.148  1.00  0.00     0.166 HD
HETATM    3  C   UNK N   1      34.852  15.406  10.318  0.00  0.00     0.182 A 
HETATM    4  N   UNK N   1      35.946  15.145   9.539  0.00  0.00    -0.337 N 
ATOM      5  HN  UNK N   1      36.027  15.532   8.599  1.00  0.00     0.168 HD
HETATM    6  C   UNK N   1      36.918  14.358  10.054  0.00  0.00     0.136 A 
HETATM    7  C   UNK N   1      36.848  13.830  11.289  0.00  0.00     0.105 A 
HETATM    8  N   UNK N   1      37.947  13.099  11.526  0.00  0.00    -0.347 N 
ATOM      9  HN  UNK N   1      38.182  12.577  12.370  1.00  0.00     0.167 HD
HETATM   10  C   UNK N   1      38.678  13.210  10.385  0.00  0.00     0.182 A 
HETATM   11  N   UNK N   1      38.058  13.988   9.457  0.00  0.00    -0.337 N 
HETATM   12  C   UNK N   1      35.742  14.082  12.101  0.00  0.00     0.074 A 
HETATM   13  H   UNK N   1      38.374  14.224   8.555  0.00  0.00     0.168 HD
ENDROOT
BRANCH  12  14
HETATM   14  C   UNK N   1      35.617  13.524  13.466  0.00  0.00    -0.007 A 
HETATM   15  C   UNK N   1      34.753  12.448  13.710  0.00  0.00     0.014 A 
HETATM   16  C   UNK N   1      34.633  11.920  14.997  0.00  0.00     0.010 A 
HETATM   17  C   UNK N   1      35.376  12.464  16.057  0.00  0.00    -0.041 A 
HETATM   18  C   UNK N   1      36.237  13.536  15.817  0.00  0.00     0.010 A 
HETATM   19  C   UNK N   1      36.355  14.061  14.532  0.00  0.00     0.014 A 
BRANCH  17  20
HETATM   20  C   UNK N   1      35.274  11.926  17.449  0.00  0.00     0.152 C 
BRANCH  20  21
HETATM   21  N   UNK N   1      35.157  12.992  18.431  0.00  0.00    -0.422 N 
HETATM   22  C   UNK N   1      35.367  12.383  19.730  0.00  0.00     0.140 C 
HETATM   23  H   UNK N   1      34.965  13.975  18.244  0.00  0.00     0.153 HD
ENDBRANCH  20  21
ENDBRANCH  17  20
ENDBRANCH  12  14
TORSDOF 3
ENDMDL
MODEL 4
REMARK VINA RESULT:      -5.8      7.434      8.472
REMARK  3 active torsions:
REMARK  status: ('A' for Active; 'I' for Inactive)
REMARK    1  A    between atoms: C_8  and  C_13 
REMARK    2  A    between atoms: C_8  and  N_19 
REMARK    3  A    between atoms: C_16  and  C_20 
ROOT
HETATM    1  N   UNK N   1      29.477  17.527   4.842  0.00  0.00    -0.350 N 
ATOM      2  HN  UNK N   1      29.438  17.539   3.823  1.00  0.00     0.166 HD
HETATM    3  C   UNK N   1      30.552  16.943   5.467  0.00  0.00     0.182 A 
HETATM    4  N   UNK N   1      30.629  16.913   6.833  0.00  0.00    -0.337 N 
ATOM      5  HN  UNK N   1      31.424  16.482   7.305  1.00  0.00     0.168 HD
HETATM    6  C   UNK N   1      29.620  17.474   7.538  0.00  0.00     0.136 A 
HETATM    7  C   UNK N   1      28.557  18.052   6.951  0.00  0.00     0.105 A 
HETATM    8  N   UNK N   1      27.724  18.517   7.893  0.00  0.00    -0.347 N 
ATOM      9  HN  UNK N   1      26.837  19.003   7.760  1.00  0.00     0.167 HD
HETATM   10  C   UNK N   1      28.330  18.196   9.067  0.00  0.00     0.182 A 
HETATM   11  N   UNK N   1      29.509  17.547   8.870  0.00  0.00    -0.337 N 
HETATM   12  C   UNK N   1      28.457  18.094   5.560  0.00  0.00     0.074 A 
HETATM   13  H   UNK N   1      30.136  17.209   9.549  0.00  0.00     0.168 HD
ENDROOT
BRANCH  12  14
HETATM   14  C   UNK N   1      27.308  18.718   4.866  0.00  0.00    -0.007 A 
HETATM   15  C   UNK N   1      27.470  19.936   4.192  0.00  0.00     0.014 A 
HETATM   16  C   UNK N   1      26.388  20.526   3.537  0.00  0.00     0.010 A 
HETATM   17  C   UNK N   1      25.129  19.904   3.547  0.00  0.00    -0.041 A 
HETATM   18  C   UNK N   1      24.965  18.691   4.216  0.00  0.00     0.010 A 
HETATM   19  C   UNK N   1      26.046  18.104   4.870  0.00  0.00     0.014 A 
BRANCH  17  20
HETATM   20  C   UNK N   1      23.947  20.506   2.856  0.00  0.00     0.152 C 
BRANCH  20  21
HETATM   21  N   UNK N   1      22.708  19.846   3.235  0.00  0.00    -0.422 N 
HETATM   22  C   UNK N   1      21.638  20.557   2.564  0.00  0.00     0.140 C 
HETATM   23  H   UNK N   1      22.611  19.041   3.852  0.00  0.00     0.153 HD
ENDBRANCH  20  21
ENDBRANCH  17  20
ENDBRANCH  12  14
TORSDOF 3
ENDMDL
MODEL 5
REMARK VINA RESULT:      -5.8     14.044     17.075
REMARK  3 active torsions:
REMARK  status: ('A' for Active; 'I' for Inactive)
REMARK    1  A    between atoms: C_8  and  C_13 
REMARK    2  A    between atoms: C_8  and  N_19 
REMARK    3  A    between atoms: C_16  and  C_20 
ROOT
HETATM    1  N   UNK N   1      36.111  13.797  14.740  0.00  0.00    -0.350 N 
ATOM      2  HN  UNK N   1      36.567  14.359  15.458  1.00  0.00     0.166 HD
HETATM    3  C   UNK N   1      36.082  14.254  13.445  0.00  0.00     0.182 A 
HETATM    4  N   UNK N   1      35.475  13.520  12.462  0.00  0.00    -0.337 N 
ATOM      5  HN  UNK N   1      35.449  13.852  11.498  1.00  0.00     0.168 HD
HETATM    6  C   UNK N   1      34.912  12.339  12.809  0.00  0.00     0.136 A 
HETATM    7  C   UNK N   1      34.927  11.869  14.068  0.00  0.00     0.105 A 
HETATM    8  N   UNK N   1      34.298  10.686  14.111  0.00  0.00    -0.347 N 
ATOM      9  HN  UNK N   1      34.147  10.086  14.922  1.00  0.00     0.167 HD
HETATM   10  C   UNK N   1      33.906  10.466  12.828  0.00  0.00     0.182 A 
HETATM   11  N   UNK N   1      34.277  11.481  12.001  0.00  0.00    -0.337 N 
HETATM   12  C   UNK N   1      35.539  12.600  15.086  0.00  0.00     0.074 A 
HETATM   13  H   UNK N   1      34.116  11.565  11.034  0.00  0.00     0.168 HD
ENDROOT
BRANCH  12  14
HETATM   14  C   UNK N   1      35.583  12.127  16.488  0.00  0.00    -0.007 A 
HETATM   15  C   UNK N   1      35.101  12.942  17.521  0.00  0.00     0.014 A 
HETATM   16  C   UNK N   1      35.141  12.497  18.844  0.00  0.00     0.010 A 
HETATM   17  C   UNK N   1      35.664  11.230  19.149  0.00  0.00    -0.041 A 
HETATM   18  C   UNK N   1      36.144  10.417  18.123  0.00  0.00     0.010 A 
HETATM   19  C   UNK N   1      36.103  10.862  16.803  0.00  0.00     0.014 A 
BRANCH  17  20
HETATM   20  C   UNK N   1      35.723  10.720  20.554  0.00  0.00     0.152 C 
BRANCH  20  21
HETATM   21  N   UNK N   1      34.435  10.825  21.220  0.00  0.00    -0.422 N 
HETATM   22  C   UNK N   1      33.702   9.616  20.899  0.00  0.00     0.140 C 
HETATM   23  H   UNK N   1      34.110  11.598  21.800  0.00  0.00     0.153 HD
ENDBRANCH  20  21
ENDBRANCH  17  20
ENDBRANCH  12  14
TORSDOF 3
ENDMDL
MODEL 6
REMARK VINA RESULT:      -5.7      6.563      9.444
REMARK  3 active torsions:
REMARK  status: ('A' for Active; 'I' for Inactive)
REMARK    1  A    between atoms: C_8  and  C_13 
REMARK    2  A    between atoms: C_8  and  N_19 
REMARK    3  A    between atoms: C_16  and  C_20 
ROOT
HETATM    1  N   UNK N   1      21.656  20.740   2.527  0.00  0.00    -0.350 N 
ATOM      2  HN  UNK N   1      22.199  21.588   2.373  1.00  0.00     0.166 HD
HETATM    3  C   UNK N   1      20.326  20.719   2.183  0.00  0.00     0.182 A 
HETATM    4  N   UNK N   1      19.575  19.592   2.380  0.00  0.00    -0.337 N 
ATOM      5  HN  UNK N   1      18.587  19.568   2.127  1.00  0.00     0.168 HD
HETATM    6  C   UNK N   1      20.183  18.511   2.920  0.00  0.00     0.136 A 
HETATM    7  C   UNK N   1      21.482  18.505   3.266  0.00  0.00     0.105 A 
HETATM    8  N   UNK N   1      21.804  17.306   3.772  0.00  0.00    -0.347 N 
ATOM      9  HN  UNK N   1      22.712  16.997   4.120  1.00  0.00     0.167 HD
HETATM   10  C   UNK N   1      20.647  16.595   3.716  0.00  0.00     0.182 A 
HETATM   11  N   UNK N   1      19.626  17.324   3.190  0.00  0.00    -0.337 N 
HETATM   12  C   UNK N   1      22.268  19.642   3.074  0.00  0.00     0.074 A 
HETATM   13  H   UNK N   1      18.694  17.044   3.042  0.00  0.00     0.168 HD
ENDROOT
BRANCH  12  14
HETATM   14  C   UNK N   1      23.702  19.686   3.438  0.00  0.00    -0.007 A 
HETATM   15  C   UNK N   1      24.593  20.467   2.689  0.00  0.00     0.014 A 
HETATM   16  C   UNK N   1      25.947  20.510   3.031  0.00  0.00     0.010 A 
HETATM   17  C   UNK N   1      26.424  19.772   4.125  0.00  0.00    -0.041 A 
HETATM   18  C   UNK N   1      25.539  18.994   4.872  0.00  0.00     0.010 A 
HETATM   19  C   UNK N   1      24.189  18.953   4.530  0.00  0.00     0.014 A 
BRANCH  17  20
HETATM   20  C   UNK N   1      27.867  19.794   4.521  0.00  0.00     0.152 C 
BRANCH  20  21
HETATM   21  N   UNK N   1      28.562  18.591   4.091  0.00  0.00    -0.422 N 
HETATM   22  C   UNK N   1      29.074  17.957   5.289  0.00  0.00     0.140 C 
HETATM   23  H   UNK N   1      28.668  18.258   3.133  0.00  0.00     0.153 HD
ENDBRANCH  20  21
ENDBRANCH  17  20
ENDBRANCH  12  14
TORSDOF 3
ENDMDL
MODEL 7
REMARK VINA RESULT:      -5.7     10.417     14.396
REMARK  3 active torsions:
REMARK  status: ('A' for Active; 'I' for Inactive)
REMARK    1  A    between atoms: C_8  and  C_13 
REMARK    2  A    between atoms: C_8  and  N_19 
REMARK    3  A    between atoms: C_16  and  C_20 
ROOT
HETATM    1  N   UNK N   1      34.476  16.478   7.234  0.00  0.00    -0.350 N 
ATOM      2  HN  UNK N   1      35.457  16.206   7.204  1.00  0.00     0.166 HD
HETATM    3  C   UNK N   1      33.898  17.038   6.120  0.00  0.00     0.182 A 
HETATM    4  N   UNK N   1      32.582  17.413   6.134  0.00  0.00    -0.337 N 
ATOM      5  HN  UNK N   1      32.145  17.829   5.312  1.00  0.00     0.168 HD
HETATM    6  C   UNK N   1      31.878  17.215   7.272  0.00  0.00     0.136 A 
HETATM    7  C   UNK N   1      32.419  16.670   8.376  0.00  0.00     0.105 A 
HETATM    8  N   UNK N   1      31.490  16.598   9.340  0.00  0.00    -0.347 N 
ATOM      9  HN  UNK N   1      31.597  16.233  10.287  1.00  0.00     0.167 HD
HETATM   10  C   UNK N   1      30.372  17.121   8.771  0.00  0.00     0.182 A 
HETATM   11  N   UNK N   1      30.590  17.512   7.486  0.00  0.00    -0.337 N 
HETATM   12  C   UNK N   1      33.758  16.280   8.385  0.00  0.00     0.074 A 
HETATM   13  H   UNK N   1      29.950  17.918   6.859  0.00  0.00     0.168 HD
ENDROOT
BRANCH  12  14
HETATM   14  C   UNK N   1      34.401  15.675   9.573  0.00  0.00    -0.007 A 
HETATM   15  C   UNK N   1      35.155  16.470  10.447  0.00  0.00     0.014 A 
HETATM   16  C   UNK N   1      35.762  15.902  11.568  0.00  0.00     0.010 A 
HETATM   17  C   UNK N   1      35.621  14.530  11.830  0.00  0.00    -0.041 A 
HETATM   18  C   UNK N   1      34.871  13.735  10.962  0.00  0.00     0.010 A 
HETATM   19  C   UNK N   1      34.266  14.304   9.844  0.00  0.00     0.014 A 
BRANCH  17  20
HETATM   20  C   UNK N   1      36.256  13.885  13.021  0.00  0.00     0.152 C 
BRANCH  20  21
HETATM   21  N   UNK N   1      36.738  14.872  13.975  0.00  0.00    -0.422 N 
HETATM   22  C   UNK N   1      36.856  14.193  15.250  0.00  0.00     0.140 C 
HETATM   23  H   UNK N   1      36.950  15.850  13.784  0.00  0.00     0.153 HD
ENDBRANCH  20  21
ENDBRANCH  17  20
ENDBRANCH  12  14
TORSDOF 3
ENDMDL
MODEL 8
REMARK VINA RESULT:      -5.6      7.782      8.485
REMARK  3 active torsions:
REMARK  status: ('A' for Active; 'I' for Inactive)
REMARK    1  A    between atoms: C_8  and  C_13 
REMARK    2  A    between atoms: C_8  and  N_19 
REMARK    3  A    between atoms: C_16  and  C_20 
ROOT
HETATM    1  N   UNK N   1      28.370  18.568   8.780  0.00  0.00    -0.350 N 
ATOM      2  HN  UNK N   1      27.530  19.080   9.044  1.00  0.00     0.166 HD
HETATM    3  C   UNK N   1      29.213  18.106   9.762  0.00  0.00     0.182 A 
HETATM    4  N   UNK N   1      30.348  17.415   9.436  0.00  0.00    -0.337 N 
ATOM      5  HN  UNK N   1      30.979  17.069  10.158  1.00  0.00     0.168 HD
HETATM    6  C   UNK N   1      30.607  17.205   8.125  0.00  0.00     0.136 A 
HETATM    7  C   UNK N   1      29.800  17.646   7.144  0.00  0.00     0.105 A 
HETATM    8  N   UNK N   1      30.307  17.293   5.955  0.00  0.00    -0.347 N 
ATOM      9  HN  UNK N   1      29.923  17.482   5.029  1.00  0.00     0.167 HD
HETATM   10  C   UNK N   1      31.450  16.623   6.261  0.00  0.00     0.182 A 
HETATM   11  N   UNK N   1      31.657  16.557   7.604  0.00  0.00    -0.337 N 
HETATM   12  C   UNK N   1      28.637  18.352   7.453  0.00  0.00     0.074 A 
HETATM   13  H   UNK N   1      32.404  16.131   8.082  0.00  0.00     0.168 HD
ENDROOT
BRANCH  12  14
HETATM   14  C   UNK N   1      27.715  18.858   6.412  0.00  0.00    -0.007 A 
HETATM   15  C   UNK N   1      27.550  20.238   6.229  0.00  0.00     0.014 A 
HETATM   16  C   UNK N   1      26.681  20.717   5.247  0.00  0.00     0.010 A 
HETATM   17  C   UNK N   1      25.967  19.821   4.435  0.00  0.00    -0.041 A 
HETATM   18  C   UNK N   1      26.129  18.447   4.615  0.00  0.00     0.010 A 
HETATM   19  C   UNK N   1      26.997  17.971   5.596  0.00  0.00     0.014 A 
BRANCH  17  20
HETATM   20  C   UNK N   1      25.027  20.298   3.373  0.00  0.00     0.152 C 
BRANCH  20  21
HETATM   21  N   UNK N   1      23.728  19.651   3.474  0.00  0.00    -0.422 N 
HETATM   22  C   UNK N   1      22.792  20.486   2.747  0.00  0.00     0.140 C 
HETATM   23  H   UNK N   1      23.517  18.780   3.960  0.00  0.00     0.153 HD
ENDBRANCH  20  21
ENDBRANCH  17  20
ENDBRANCH  12  14
TORSDOF 3
ENDMDL
MODEL 9
REMARK VINA RESULT:      -5.5      9.088     11.841
REMARK  3 active torsions:
REMARK  status: ('A' for Active; 'I' for Inactive)
REMARK    1  A    between atoms: C_8  and  C_13 
REMARK    2  A    between atoms: C_8  and  N_19 
REMARK    3  A    between atoms: C_16  and  C_20 
ROOT
HETATM    1  N   UNK N   1      29.190  15.571   4.561  0.00  0.00    -0.350 N 
ATOM      2  HN  UNK N   1      29.809  14.802   4.814  1.00  0.00     0.166 HD
HETATM    3  C   UNK N   1      28.051  15.308   3.839  0.00  0.00     0.182 A 
HETATM    4  N   UNK N   1      27.202  16.323   3.487  0.00  0.00    -0.337 N 
ATOM      5  HN  UNK N   1      26.354  16.136   2.951  1.00  0.00     0.168 HD
HETATM    6  C   UNK N   1      27.522  17.580   3.871  0.00  0.00     0.136 A 
HETATM    7  C   UNK N   1      28.630  17.864   4.577  0.00  0.00     0.105 A 
HETATM    8  N   UNK N   1      28.685  19.182   4.812  0.00  0.00    -0.347 N 
ATOM      9  HN  UNK N   1      29.402  19.699   5.321  1.00  0.00     0.167 HD
HETATM   10  C   UNK N   1      27.566  19.677   4.218  0.00  0.00     0.182 A 
HETATM   11  N   UNK N   1      26.828  18.699   3.627  0.00  0.00    -0.337 N 
HETATM   12  C   UNK N   1      29.510  16.846   4.948  0.00  0.00     0.074 A 
HETATM   13  H   UNK N   1      25.981  18.791   3.135  0.00  0.00     0.168 HD
ENDROOT
BRANCH  12  14
HETATM   14  C   UNK N   1      30.742  17.107   5.725  0.00  0.00    -0.007 A 
HETATM   15  C   UNK N   1      31.969  17.269   5.066  0.00  0.00     0.014 A 
HETATM   16  C   UNK N   1      33.132  17.514   5.798  0.00  0.00     0.010 A 
HETATM   17  C   UNK N   1      33.083  17.601   7.198  0.00  0.00    -0.041 A 
HETATM   18  C   UNK N   1      31.864  17.440   7.857  0.00  0.00     0.010 A 
HETATM   19  C   UNK N   1      30.704  17.195   7.125  0.00  0.00     0.014 A 
BRANCH  17  20
HETATM   20  C   UNK N   1      34.309  17.863   8.015  0.00  0.00     0.152 C 
BRANCH  20  21
HETATM   21  N   UNK N   1      34.112  17.506   9.411  0.00  0.00    -0.422 N 
HETATM   22  C   UNK N   1      35.039  16.429   9.698  0.00  0.00     0.140 C 
HETATM   23  H   UNK N   1      33.451  17.931  10.061  0.00  0.00     0.153 HD
ENDBRANCH  20  21
ENDBRANCH  17  20
ENDBRANCH  12  14
TORSDOF 3
ENDMDL
