MODEL 1
REMARK VINA RESULT:      -7.4      0.000      0.000
REMARK  4 active torsions:
REMARK  status: ('A' for Active; 'I' for Inactive)
REMARK    1  A    between atoms: C_2  and  N_1 
REMARK    2  A    between atoms: C_2  and  C_3 
REMARK    3  A    between atoms: C_2  and  C_9 
REMARK    4  A    between atoms: C_12  and  C_15 
ROOT
HETATM    1  C   UNK N   1      35.726  11.037  18.419  0.00  0.00    -0.032 A 
HETATM    2  C   UNK N   1      36.353  10.369  17.348  0.00  0.00     0.010 A 
HETATM    3  C   UNK N   1      36.361  10.939  16.062  0.00  0.00     0.014 A 
HETATM    4  C   UNK N   1      35.748  12.186  15.840  0.00  0.00    -0.007 A 
HETATM    5  C   UNK N   1      35.166  12.851  16.917  0.00  0.00     0.014 A 
HETATM    6  C   UNK N   1      35.157  12.287  18.178  0.00  0.00     0.010 A 
ENDROOT
BRANCH   4   7
HETATM    7  C   UNK N   1      35.676  12.789  14.488  0.00  0.00     0.074 A 
HETATM    8  N   UNK N   1      36.199  14.030  14.245  0.00  0.00    -0.350 N 
HETATM    9  C   UNK N   1      36.151  14.592  12.991  0.00  0.00     0.182 A 
ATOM     10  HN  UNK N   1      36.633  14.548  15.009  1.00  0.00     0.166 HD
HETATM   11  N   UNK N   1      35.582  13.914  11.946  0.00  0.00    -0.337 N 
HETATM   12  C   UNK N   1      35.073  12.685  12.187  0.00  0.00     0.136 A 
ATOM     13  HN  UNK N   1      35.545  14.324  11.012  1.00  0.00     0.168 HD
HETATM   14  N   UNK N   1      34.491  11.864  11.303  0.00  0.00    -0.337 N 
HETATM   15  C   UNK N   1      35.101  12.115  13.403  0.00  0.00     0.105 A 
HETATM   16  C   UNK N   1      34.168  10.766  12.037  0.00  0.00     0.182 A 
HETATM   17  H   UNK N   1      34.334  12.019  10.343  0.00  0.00     0.168 HD
HETATM   18  N   UNK N   1      34.536  10.899  13.339  0.00  0.00    -0.347 N 
ATOM     19  HN  UNK N   1      34.410  10.227  14.096  1.00  0.00     0.167 HD
ENDBRANCH   4   7
BRANCH   1  20
HETATM   20  C   UNK N   1      35.650  10.378  19.792  0.00  0.00     0.141 C 
BRANCH  20  21
HETATM   21  N   UNK N   1      36.216  11.287  20.779  0.00  0.00    -0.419 N 
HETATM   22  H   UNK N   1      36.407  11.367  21.776  0.00  0.00     0.150 HD
HETATM   23  H   UNK N   1      36.529  12.137  20.309  0.00  0.00     0.150 HD
ENDBRANCH  20  21
BRANCH  20  24
HETATM   24  C   UNK N   1      34.288   9.873  20.285  0.00  0.00    -0.032 A 
HETATM   25  C   UNK N   1      33.690  10.319  21.479  0.00  0.00     0.009 A 
HETATM   26  C   UNK N   1      32.430   9.872  21.873  0.00  0.00     0.001 A 
HETATM   27  C   UNK N   1      31.736   8.968  21.070  0.00  0.00     0.000 A 
HETATM   28  C   UNK N   1      32.308   8.512  19.880  0.00  0.00     0.001 A 
HETATM   29  C   UNK N   1      33.575   8.964  19.489  0.00  0.00     0.009 A 
ENDBRANCH  20  24
ENDBRANCH   1  20
TORSDOF 4
ENDMDL
MODEL 2
REMARK VINA RESULT:      -7.3      8.413     13.052
REMARK  4 active torsions:
REMARK  status: ('A' for Active; 'I' for Inactive)
REMARK    1  A    between atoms: C_2  and  N_1 
REMARK    2  A    between atoms: C_2  and  C_3 
REMARK    3  A    between atoms: C_2  and  C_9 
REMARK    4  A    between atoms: C_12  and  C_15 
ROOT
HETATM    1  C   UNK N   1      29.604  17.529   7.725  0.00  0.00    -0.032 A 
HETATM    2  C   UNK N   1      30.563  18.068   8.606  0.00  0.00     0.010 A 
HETATM    3  C   UNK N   1      31.849  17.504   8.688  0.00  0.00     0.014 A 
HETATM    4  C   UNK N   1      32.188  16.402   7.882  0.00  0.00    -0.007 A 
HETATM    5  C   UNK N   1      31.241  15.905   6.989  0.00  0.00     0.014 A 
HETATM    6  C   UNK N   1      29.978  16.457   6.914  0.00  0.00     0.010 A 
ENDROOT
BRANCH   4   7
HETATM    7  C   UNK N   1      33.509  15.737   7.986  0.00  0.00     0.074 A 
HETATM    8  N   UNK N   1      34.302  15.575   6.882  0.00  0.00    -0.350 N 
HETATM    9  C   UNK N   1      35.534  14.973   6.971  0.00  0.00     0.182 A 
ATOM     10  HN  UNK N   1      33.971  15.907   5.976  1.00  0.00     0.166 HD
HETATM   11  N   UNK N   1      36.006  14.528   8.176  0.00  0.00    -0.337 N 
HETATM   12  C   UNK N   1      35.224  14.695   9.266  0.00  0.00     0.136 A 
ATOM     13  HN  UNK N   1      36.921  14.082   8.250  1.00  0.00     0.168 HD
HETATM   14  N   UNK N   1      35.509  14.341  10.527  0.00  0.00    -0.337 N 
HETATM   15  C   UNK N   1      34.014  15.274   9.208  0.00  0.00     0.105 A 
HETATM   16  C   UNK N   1      34.416  14.733  11.233  0.00  0.00     0.182 A 
HETATM   17  H   UNK N   1      36.323  13.900  10.864  0.00  0.00     0.168 HD
HETATM   18  N   UNK N   1      33.477  15.313  10.437  0.00  0.00    -0.347 N 
ATOM     19  HN  UNK N   1      32.571  15.690  10.713  1.00  0.00     0.167 HD
ENDBRANCH   4   7
BRANCH   1  20
HETATM   20  C   UNK N   1      28.187  18.093   7.699  0.00  0.00     0.141 C 
BRANCH  20  21
HETATM   21  N   UNK N   1      27.897  18.687   8.995  0.00  0.00    -0.419 N 
HETATM   22  H   UNK N   1      28.184  19.448   9.609  0.00  0.00     0.150 HD
HETATM   23  H   UNK N   1      27.146  18.161   9.443  0.00  0.00     0.150 HD
ENDBRANCH  20  21
BRANCH  20  24
HETATM   24  C   UNK N   1      27.817  19.084   6.588  0.00  0.00    -0.032 A 
HETATM   25  C   UNK N   1      27.822  18.744   5.222  0.00  0.00     0.009 A 
HETATM   26  C   UNK N   1      27.436  19.658   4.243  0.00  0.00     0.001 A 
HETATM   27  C   UNK N   1      27.027  20.937   4.616  0.00  0.00     0.000 A 
HETATM   28  C   UNK N   1      27.011  21.297   5.965  0.00  0.00     0.001 A 
HETATM   29  C   UNK N   1      27.401  20.376   6.945  0.00  0.00     0.009 A 
ENDBRANCH  20  24
ENDBRANCH   1  20
TORSDOF 4
ENDMDL
MODEL 3
REMARK VINA RESULT:      -7.2      5.740     10.655
REMARK  4 active torsions:
REMARK  status: ('A' for Active; 'I' for Inactive)
REMARK    1  A    between atoms: C_2  and  N_1 
REMARK    2  A    between atoms: C_2  and  C_3 
REMARK    3  A    between atoms: C_2  and  C_9 
REMARK    4  A    between atoms: C_12  and  C_15 
ROOT
HETATM    1  C   UNK N   1      33.036  16.575   7.972  0.00  0.00    -0.032 A 
HETATM    2  C   UNK N   1      33.098  15.170   7.878  0.00  0.00     0.010 A 
HETATM    3  C   UNK N   1      34.107  14.457   8.552  0.00  0.00     0.014 A 
HETATM    4  C   UNK N   1      35.055  15.145   9.331  0.00  0.00    -0.007 A 
HETATM    5  C   UNK N   1      34.957  16.530   9.444  0.00  0.00     0.014 A 
HETATM    6  C   UNK N   1      33.969  17.227   8.778  0.00  0.00     0.010 A 
ENDROOT
BRANCH   4   7
HETATM    7  C   UNK N   1      36.173  14.438  10.001  0.00  0.00     0.074 A 
HETATM    8  N   UNK N   1      37.338  14.174   9.334  0.00  0.00    -0.350 N 
HETATM    9  C   UNK N   1      38.385  13.532   9.952  0.00  0.00     0.182 A 
ATOM     10  HN  UNK N   1      37.430  14.458   8.359  1.00  0.00     0.166 HD
HETATM   11  N   UNK N   1      38.290  13.149  11.263  0.00  0.00    -0.337 N 
HETATM   12  C   UNK N   1      37.141  13.417  11.922  0.00  0.00     0.136 A 
ATOM     13  HN  UNK N   1      39.064  12.674  11.729  1.00  0.00     0.168 HD
HETATM   14  N   UNK N   1      36.859  13.136  13.202  0.00  0.00    -0.337 N 
HETATM   15  C   UNK N   1      36.100  14.037  11.342  0.00  0.00     0.105 A 
HETATM   16  C   UNK N   1      35.598  13.615  13.373  0.00  0.00     0.182 A 
HETATM   17  H   UNK N   1      37.432  12.687  13.865  0.00  0.00     0.168 HD
HETATM   18  N   UNK N   1      35.109  14.177  12.236  0.00  0.00    -0.347 N 
ATOM     19  HN  UNK N   1      34.195  14.606  12.095  1.00  0.00     0.167 HD
ENDBRANCH   4   7
BRANCH   1  20
HETATM   20  C   UNK N   1      31.991  17.348   7.176  0.00  0.00     0.141 C 
BRANCH  20  21
HETATM   21  N   UNK N   1      31.808  16.697   5.887  0.00  0.00    -0.419 N 
HETATM   22  H   UNK N   1      32.240  16.012   5.268  0.00  0.00     0.150 HD
HETATM   23  H   UNK N   1      30.951  17.045   5.455  0.00  0.00     0.150 HD
ENDBRANCH  20  21
BRANCH  20  24
HETATM   24  C   UNK N   1      30.621  17.599   7.819  0.00  0.00    -0.032 A 
HETATM   25  C   UNK N   1      29.418  17.099   7.285  0.00  0.00     0.009 A 
HETATM   26  C   UNK N   1      28.196  17.310   7.922  0.00  0.00     0.001 A 
HETATM   27  C   UNK N   1      28.155  18.023   9.118  0.00  0.00     0.000 A 
HETATM   28  C   UNK N   1      29.335  18.527   9.669  0.00  0.00     0.001 A 
HETATM   29  C   UNK N   1      30.560  18.315   9.025  0.00  0.00     0.009 A 
ENDBRANCH  20  24
ENDBRANCH   1  20
TORSDOF 4
ENDMDL
MODEL 4
REMARK VINA RESULT:      -7.2      4.115      6.751
REMARK  4 active torsions:
REMARK  status: ('A' for Active; 'I' for Inactive)
REMARK    1  A    between atoms: C_2  and  N_1 
REMARK    2  A    between atoms: C_2  and  C_3 
REMARK    3  A    between atoms: C_2  and  C_9 
REMARK    4  A    between atoms: C_12  and  C_15 
ROOT
HETATM    1  C   UNK N   1      35.838  13.699  12.779  0.00  0.00    -0.032 A 
HETATM    2  C   UNK N   1      35.144  13.010  11.765  0.00  0.00     0.010 A 
HETATM    3  C   UNK N   1      34.676  13.699  10.631  0.00  0.00     0.014 A 
HETATM    4  C   UNK N   1      34.907  15.081  10.501  0.00  0.00    -0.007 A 
HETATM    5  C   UNK N   1      35.628  15.739  11.494  0.00  0.00     0.014 A 
HETATM    6  C   UNK N   1      36.082  15.061  12.608  0.00  0.00     0.010 A 
ENDROOT
BRANCH   4   7
HETATM    7  C   UNK N   1      34.373  15.856   9.355  0.00  0.00     0.074 A 
HETATM    8  N   UNK N   1      33.502  16.892   9.553  0.00  0.00    -0.350 N 
HETATM    9  C   UNK N   1      33.014  17.626   8.499  0.00  0.00     0.182 A 
ATOM     10  HN  UNK N   1      33.210  17.124  10.503  1.00  0.00     0.166 HD
HETATM   11  N   UNK N   1      33.398  17.341   7.216  0.00  0.00    -0.337 N 
HETATM   12  C   UNK N   1      34.263  16.322   7.023  0.00  0.00     0.136 A 
ATOM     13  HN  UNK N   1      33.041  17.884   6.428  1.00  0.00     0.168 HD
HETATM   14  N   UNK N   1      34.765  15.897   5.854  0.00  0.00    -0.337 N 
HETATM   15  C   UNK N   1      34.752  15.584   8.033  0.00  0.00     0.105 A 
HETATM   16  C   UNK N   1      35.583  14.869   6.202  0.00  0.00     0.182 A 
HETATM   17  H   UNK N   1      34.584  16.250   4.953  0.00  0.00     0.168 HD
HETATM   18  N   UNK N   1      35.590  14.657   7.546  0.00  0.00    -0.347 N 
ATOM     19  HN  UNK N   1      36.114  13.952   8.064  1.00  0.00     0.167 HD
ENDBRANCH   4   7
BRANCH   1  20
HETATM   20  C   UNK N   1      36.272  12.964  14.043  0.00  0.00     0.141 C 
BRANCH  20  21
HETATM   21  N   UNK N   1      37.566  12.341  13.800  0.00  0.00    -0.419 N 
HETATM   22  H   UNK N   1      38.423  12.460  13.263  0.00  0.00     0.150 HD
HETATM   23  H   UNK N   1      37.640  11.493  14.364  0.00  0.00     0.150 HD
ENDBRANCH  20  21
BRANCH  20  24
HETATM   24  C   UNK N   1      36.322  13.746  15.362  0.00  0.00    -0.032 A 
HETATM   25  C   UNK N   1      37.164  14.856  15.565  0.00  0.00     0.009 A 
HETATM   26  C   UNK N   1      37.150  15.570  16.762  0.00  0.00     0.001 A 
HETATM   27  C   UNK N   1      36.282  15.189  17.783  0.00  0.00     0.000 A 
HETATM   28  C   UNK N   1      35.435  14.092  17.604  0.00  0.00     0.001 A 
HETATM   29  C   UNK N   1      35.454  13.377  16.400  0.00  0.00     0.009 A 
ENDBRANCH  20  24
ENDBRANCH   1  20
TORSDOF 4
ENDMDL
MODEL 5
REMARK VINA RESULT:      -7.2      9.563     14.175
REMARK  4 active torsions:
REMARK  status: ('A' for Active; 'I' for Inactive)
REMARK    1  A    between atoms: C_2  and  N_1 
REMARK    2  A    between atoms: C_2  and  C_3 
REMARK    3  A    between atoms: C_2  and  C_9 
REMARK    4  A    between atoms: C_12  and  C_15 
ROOT
HETATM    1  C   UNK N   1      28.631  17.164   6.151  0.00  0.00    -0.032 A 
HETATM    2  C   UNK N   1      28.747  17.721   7.440  0.00  0.00     0.010 A 
HETATM    3  C   UNK N   1      30.006  17.825   8.059  0.00  0.00     0.014 A 
HETATM    4  C   UNK N   1      31.159  17.379   7.388  0.00  0.00    -0.007 A 
HETATM    5  C   UNK N   1      31.033  16.865   6.100  0.00  0.00     0.014 A 
HETATM    6  C   UNK N   1      29.795  16.761   5.497  0.00  0.00     0.010 A 
ENDROOT
BRANCH   4   7
HETATM    7  C   UNK N   1      32.495  17.410   8.031  0.00  0.00     0.074 A 
HETATM    8  N   UNK N   1      33.392  18.401   7.739  0.00  0.00    -0.350 N 
HETATM    9  C   UNK N   1      34.627  18.446   8.341  0.00  0.00     0.182 A 
ATOM     10  HN  UNK N   1      33.139  19.120   7.061  1.00  0.00     0.166 HD
HETATM   11  N   UNK N   1      34.988  17.498   9.260  0.00  0.00    -0.337 N 
HETATM   12  C   UNK N   1      34.098  16.524   9.552  0.00  0.00     0.136 A 
ATOM     13  HN  UNK N   1      35.903  17.527   9.713  1.00  0.00     0.168 HD
HETATM   14  N   UNK N   1      34.256  15.520  10.427  0.00  0.00    -0.337 N 
HETATM   15  C   UNK N   1      32.887  16.452   8.976  0.00  0.00     0.105 A 
HETATM   16  C   UNK N   1      33.084  14.836  10.356  0.00  0.00     0.182 A 
HETATM   17  H   UNK N   1      35.039  15.325  10.991  0.00  0.00     0.168 HD
HETATM   18  N   UNK N   1      32.222  15.394   9.465  0.00  0.00    -0.347 N 
ATOM     19  HN  UNK N   1      31.282  15.079   9.223  1.00  0.00     0.167 HD
ENDBRANCH   4   7
BRANCH   1  20
HETATM   20  C   UNK N   1      27.256  16.979   5.518  0.00  0.00     0.141 C 
BRANCH  20  21
HETATM   21  N   UNK N   1      26.328  16.523   6.542  0.00  0.00    -0.419 N 
HETATM   22  H   UNK N   1      26.244  15.853   7.306  0.00  0.00     0.150 HD
HETATM   23  H   UNK N   1      25.462  17.059   6.472  0.00  0.00     0.150 HD
ENDBRANCH  20  21
BRANCH  20  24
HETATM   24  C   UNK N   1      26.638  18.160   4.759  0.00  0.00    -0.032 A 
HETATM   25  C   UNK N   1      27.400  19.225   4.242  0.00  0.00     0.009 A 
HETATM   26  C   UNK N   1      26.809  20.259   3.518  0.00  0.00     0.001 A 
HETATM   27  C   UNK N   1      25.434  20.244   3.290  0.00  0.00     0.000 A 
HETATM   28  C   UNK N   1      24.656  19.197   3.791  0.00  0.00     0.001 A 
HETATM   29  C   UNK N   1      25.255  18.161   4.519  0.00  0.00     0.009 A 
ENDBRANCH  20  24
ENDBRANCH   1  20
TORSDOF 4
ENDMDL
MODEL 6
REMARK VINA RESULT:      -7.1      4.166      6.741
REMARK  4 active torsions:
REMARK  status: ('A' for Active; 'I' for Inactive)
REMARK    1  A    between atoms: C_2  and  N_1 
REMARK    2  A    between atoms: C_2  and  C_3 
REMARK    3  A    between atoms: C_2  and  C_9 
REMARK    4  A    between atoms: C_12  and  C_15 
ROOT
HETATM    1  C   UNK N   1      36.212  13.319  12.870  0.00  0.00    -0.032 A 
HETATM    2  C   UNK N   1      37.167  13.307  11.834  0.00  0.00     0.010 A 
HETATM    3  C   UNK N   1      36.826  13.768  10.549  0.00  0.00     0.014 A 
HETATM    4  C   UNK N   1      35.530  14.252  10.295  0.00  0.00    -0.007 A 
HETATM    5  C   UNK N   1      34.609  14.293  11.340  0.00  0.00     0.014 A 
HETATM    6  C   UNK N   1      34.945  13.835  12.599  0.00  0.00     0.010 A 
ENDROOT
BRANCH   4   7
HETATM    7  C   UNK N   1      35.111  14.685   8.941  0.00  0.00     0.074 A 
HETATM    8  N   UNK N   1      34.940  13.774   7.934  0.00  0.00    -0.350 N 
HETATM    9  C   UNK N   1      34.537  14.164   6.679  0.00  0.00     0.182 A 
ATOM     10  HN  UNK N   1      35.114  12.786   8.119  1.00  0.00     0.166 HD
HETATM   11  N   UNK N   1      34.288  15.483   6.407  0.00  0.00    -0.337 N 
HETATM   12  C   UNK N   1      34.451  16.380   7.404  0.00  0.00     0.136 A 
ATOM     13  HN  UNK N   1      33.986  15.779   5.478  1.00  0.00     0.168 HD
HETATM   14  N   UNK N   1      34.247  17.703   7.342  0.00  0.00    -0.337 N 
HETATM   15  C   UNK N   1      34.849  16.028   8.637  0.00  0.00     0.105 A 
HETATM   16  C   UNK N   1      34.538  18.139   8.596  0.00  0.00     0.182 A 
HETATM   17  H   UNK N   1      33.953  18.236   6.567  0.00  0.00     0.168 HD
HETATM   18  N   UNK N   1      34.912  17.120   9.415  0.00  0.00    -0.347 N 
ATOM     19  HN  UNK N   1      35.181  17.174  10.397  1.00  0.00     0.167 HD
ENDBRANCH   4   7
BRANCH   1  20
HETATM   20  C   UNK N   1      36.562  12.743  14.238  0.00  0.00     0.141 C 
BRANCH  20  21
HETATM   21  N   UNK N   1      37.909  12.194  14.184  0.00  0.00    -0.419 N 
HETATM   22  H   UNK N   1      38.806  12.319  13.716  0.00  0.00     0.150 HD
HETATM   23  H   UNK N   1      37.980  11.417  14.842  0.00  0.00     0.150 HD
ENDBRANCH  20  21
BRANCH  20  24
HETATM   24  C   UNK N   1      36.430  13.650  15.468  0.00  0.00    -0.032 A 
HETATM   25  C   UNK N   1      35.597  13.346  16.561  0.00  0.00     0.009 A 
HETATM   26  C   UNK N   1      35.536  14.173  17.682  0.00  0.00     0.001 A 
HETATM   27  C   UNK N   1      36.319  15.325  17.733  0.00  0.00     0.000 A 
HETATM   28  C   UNK N   1      37.155  15.647  16.661  0.00  0.00     0.001 A 
HETATM   29  C   UNK N   1      37.212  14.814  15.537  0.00  0.00     0.009 A 
ENDBRANCH  20  24
ENDBRANCH   1  20
TORSDOF 4
ENDMDL
MODEL 7
REMARK VINA RESULT:      -7.0      8.883     13.009
REMARK  4 active torsions:
REMARK  status: ('A' for Active; 'I' for Inactive)
REMARK    1  A    between atoms: C_2  and  N_1 
REMARK    2  A    between atoms: C_2  and  C_3 
REMARK    3  A    between atoms: C_2  and  C_9 
REMARK    4  A    between atoms: C_12  and  C_15 
ROOT
HETATM    1  C   UNK N   1      30.485  17.054   6.412  0.00  0.00    -0.032 A 
HETATM    2  C   UNK N   1      30.317  16.680   7.759  0.00  0.00     0.010 A 
HETATM    3  C   UNK N   1      31.437  16.440   8.576  0.00  0.00     0.014 A 
HETATM    4  C   UNK N   1      32.734  16.580   8.051  0.00  0.00    -0.007 A 
HETATM    5  C   UNK N   1      32.885  16.987   6.727  0.00  0.00     0.014 A 
HETATM    6  C   UNK N   1      31.783  17.218   5.927  0.00  0.00     0.010 A 
ENDROOT
BRANCH   4   7
HETATM    7  C   UNK N   1      33.939  16.271   8.857  0.00  0.00     0.074 A 
HETATM    8  N   UNK N   1      34.316  17.081   9.894  0.00  0.00    -0.350 N 
HETATM    9  C   UNK N   1      35.423  16.795  10.657  0.00  0.00     0.182 A 
ATOM     10  HN  UNK N   1      33.765  17.913  10.104  1.00  0.00     0.166 HD
HETATM   11  N   UNK N   1      36.175  15.680  10.402  0.00  0.00    -0.337 N 
HETATM   12  C   UNK N   1      35.797  14.878   9.382  0.00  0.00     0.136 A 
ATOM     13  HN  UNK N   1      36.997  15.460  10.966  1.00  0.00     0.168 HD
HETATM   14  N   UNK N   1      36.389  13.742   8.985  0.00  0.00    -0.337 N 
HETATM   15  C   UNK N   1      34.724  15.136   8.617  0.00  0.00     0.105 A 
HETATM   16  C   UNK N   1      35.625  13.322   7.942  0.00  0.00     0.182 A 
HETATM   17  H   UNK N   1      37.191  13.313   9.361  0.00  0.00     0.168 HD
HETATM   18  N   UNK N   1      34.588  14.168   7.697  0.00  0.00    -0.347 N 
ATOM     19  HN  UNK N   1      33.872  14.085   6.976  1.00  0.00     0.167 HD
ENDBRANCH   4   7
BRANCH   1  20
HETATM   20  C   UNK N   1      29.269  17.235   5.510  0.00  0.00     0.141 C 
BRANCH  20  21
HETATM   21  N   UNK N   1      28.359  16.120   5.724  0.00  0.00    -0.419 N 
HETATM   22  H   UNK N   1      27.650  15.777   6.372  0.00  0.00     0.150 HD
HETATM   23  H   UNK N   1      28.467  15.449   4.962  0.00  0.00     0.150 HD
ENDBRANCH  20  21
BRANCH  20  24
HETATM   24  C   UNK N   1      28.488  18.554   5.593  0.00  0.00    -0.032 A 
HETATM   25  C   UNK N   1      28.072  19.272   4.456  0.00  0.00     0.009 A 
HETATM   26  C   UNK N   1      27.325  20.444   4.570  0.00  0.00     0.001 A 
HETATM   27  C   UNK N   1      26.973  20.919   5.831  0.00  0.00     0.000 A 
HETATM   28  C   UNK N   1      27.373  20.222   6.974  0.00  0.00     0.001 A 
HETATM   29  C   UNK N   1      28.124  19.046   6.856  0.00  0.00     0.009 A 
ENDBRANCH  20  24
ENDBRANCH   1  20
TORSDOF 4
ENDMDL
MODEL 8
REMARK VINA RESULT:      -6.9      4.566      7.562
REMARK  4 active torsions:
REMARK  status: ('A' for Active; 'I' for Inactive)
REMARK    1  A    between atoms: C_2  and  N_1 
REMARK    2  A    between atoms: C_2  and  C_3 
REMARK    3  A    between atoms: C_2  and  C_9 
REMARK    4  A    between atoms: C_12  and  C_15 
ROOT
HETATM    1  C   UNK N   1      35.672  14.337  11.529  0.00  0.00    -0.032 A 
HETATM    2  C   UNK N   1      35.238  13.554  10.441  0.00  0.00     0.010 A 
HETATM    3  C   UNK N   1      34.648  14.163   9.319  0.00  0.00     0.014 A 
HETATM    4  C   UNK N   1      34.497  15.561   9.274  0.00  0.00    -0.007 A 
HETATM    5  C   UNK N   1      34.966  16.324  10.341  0.00  0.00     0.014 A 
HETATM    6  C   UNK N   1      35.540  15.723  11.443  0.00  0.00     0.010 A 
ENDROOT
BRANCH   4   7
HETATM    7  C   UNK N   1      33.821  16.236   8.140  0.00  0.00     0.074 A 
HETATM    8  N   UNK N   1      34.490  16.487   6.972  0.00  0.00    -0.350 N 
HETATM    9  C   UNK N   1      33.868  17.098   5.910  0.00  0.00     0.182 A 
ATOM     10  HN  UNK N   1      35.470  16.215   6.890  1.00  0.00     0.166 HD
HETATM   11  N   UNK N   1      32.552  17.465   5.992  0.00  0.00    -0.337 N 
HETATM   12  C   UNK N   1      31.891  17.210   7.143  0.00  0.00     0.136 A 
ATOM     13  HN  UNK N   1      32.083  17.917   5.206  1.00  0.00     0.168 HD
HETATM   14  N   UNK N   1      30.606  17.478   7.413  0.00  0.00    -0.337 N 
HETATM   15  C   UNK N   1      32.475  16.619   8.198  0.00  0.00     0.105 A 
HETATM   16  C   UNK N   1      30.435  17.022   8.682  0.00  0.00     0.182 A 
HETATM   17  H   UNK N   1      29.939  17.906   6.828  0.00  0.00     0.168 HD
HETATM   18  N   UNK N   1      31.579  16.486   9.188  0.00  0.00    -0.347 N 
ATOM     19  HN  UNK N   1      31.722  16.077  10.111  1.00  0.00     0.167 HD
ENDBRANCH   4   7
BRANCH   1  20
HETATM   20  C   UNK N   1      36.236  13.666  12.777  0.00  0.00     0.141 C 
BRANCH  20  21
HETATM   21  N   UNK N   1      36.698  14.698  13.695  0.00  0.00    -0.419 N 
HETATM   22  H   UNK N   1      36.375  15.296  14.453  0.00  0.00     0.150 HD
HETATM   23  H   UNK N   1      37.685  14.885  13.517  0.00  0.00     0.150 HD
ENDBRANCH  20  21
BRANCH  20  24
HETATM   24  C   UNK N   1      35.349  12.669  13.534  0.00  0.00    -0.032 A 
HETATM   25  C   UNK N   1      34.847  11.491  12.951  0.00  0.00     0.009 A 
HETATM   26  C   UNK N   1      34.080  10.586  13.683  0.00  0.00     0.001 A 
HETATM   27  C   UNK N   1      33.804  10.842  15.025  0.00  0.00     0.000 A 
HETATM   28  C   UNK N   1      34.294  12.003  15.627  0.00  0.00     0.001 A 
HETATM   29  C   UNK N   1      35.063  12.910  14.887  0.00  0.00     0.009 A 
ENDBRANCH  20  24
ENDBRANCH   1  20
TORSDOF 4
ENDMDL
MODEL 9
REMARK VINA RESULT:      -6.8     14.778     18.287
REMARK  4 active torsions:
REMARK  status: ('A' for Active; 'I' for Inactive)
REMARK    1  A    between atoms: C_2  and  N_1 
REMARK    2  A    between atoms: C_2  and  C_3 
REMARK    3  A    between atoms: C_2  and  C_9 
REMARK    4  A    between atoms: C_12  and  C_15 
ROOT
HETATM    1  C   UNK N   1      26.361  19.123   4.236  0.00  0.00    -0.032 A 
HETATM    2  C   UNK N   1      25.928  20.128   3.348  0.00  0.00     0.010 A 
HETATM    3  C   UNK N   1      24.565  20.251   3.025  0.00  0.00     0.014 A 
HETATM    4  C   UNK N   1      23.624  19.374   3.594  0.00  0.00    -0.007 A 
HETATM    5  C   UNK N   1      24.063  18.410   4.499  0.00  0.00     0.014 A 
HETATM    6  C   UNK N   1      25.403  18.289   4.811  0.00  0.00     0.010 A 
ENDROOT
BRANCH   4   7
HETATM    7  C   UNK N   1      22.188  19.427   3.229  0.00  0.00     0.074 A 
HETATM    8  N   UNK N   1      21.606  20.603   2.840  0.00  0.00    -0.350 N 
HETATM    9  C   UNK N   1      20.279  20.659   2.485  0.00  0.00     0.182 A 
ATOM     10  HN  UNK N   1      22.167  21.454   2.813  1.00  0.00     0.166 HD
HETATM   11  N   UNK N   1      19.505  19.529   2.503  0.00  0.00    -0.337 N 
HETATM   12  C   UNK N   1      20.084  18.368   2.880  0.00  0.00     0.136 A 
ATOM     13  HN  UNK N   1      18.520  19.564   2.238  1.00  0.00     0.168 HD
HETATM   14  N   UNK N   1      19.505  17.162   2.951  0.00  0.00    -0.337 N 
HETATM   15  C   UNK N   1      21.376  18.285   3.238  0.00  0.00     0.105 A 
HETATM   16  C   UNK N   1      20.505  16.341   3.367  0.00  0.00     0.182 A 
HETATM   17  H   UNK N   1      18.570  16.925   2.748  0.00  0.00     0.168 HD
HETATM   18  N   UNK N   1      21.672  17.014   3.551  0.00  0.00    -0.347 N 
ATOM     19  HN  UNK N   1      22.569  16.637   3.857  1.00  0.00     0.167 HD
ENDBRANCH   4   7
BRANCH   1  20
HETATM   20  C   UNK N   1      27.849  18.943   4.520  0.00  0.00     0.141 C 
BRANCH  20  21
HETATM   21  N   UNK N   1      28.548  20.162   4.142  0.00  0.00    -0.419 N 
HETATM   22  H   UNK N   1      28.920  20.653   3.329  0.00  0.00     0.150 HD
HETATM   23  H   UNK N   1      28.726  20.719   4.979  0.00  0.00     0.150 HD
ENDBRANCH  20  21
BRANCH  20  24
HETATM   24  C   UNK N   1      28.277  18.527   5.933  0.00  0.00    -0.032 A 
HETATM   25  C   UNK N   1      29.086  17.405   6.191  0.00  0.00     0.009 A 
HETATM   26  C   UNK N   1      29.493  17.083   7.485  0.00  0.00     0.001 A 
HETATM   27  C   UNK N   1      29.098  17.887   8.553  0.00  0.00     0.000 A 
HETATM   28  C   UNK N   1      28.296  19.007   8.322  0.00  0.00     0.001 A 
HETATM   29  C   UNK N   1      27.890  19.326   7.020  0.00  0.00     0.009 A 
ENDBRANCH  20  24
ENDBRANCH   1  20
TORSDOF 4
ENDMDL
