MODEL 1
REMARK VINA RESULT:      -8.2      0.000      0.000
REMARK  3 active torsions:
REMARK  status: ('A' for Active; 'I' for Inactive)
REMARK    1  A    between atoms: C_5  and  C_8 
REMARK    2  A    between atoms: C_8  and  C_14 
REMARK    3  A    between atoms: C_17  and  C_20 
ROOT
HETATM    1  C   UNK N   1      22.173  15.639   6.040  0.00  0.00    -0.045 A 
HETATM    2  C   UNK N   1      22.515  14.272   6.087  0.00  0.00     0.009 A 
HETATM    3  C   UNK N   1      22.333  13.535   7.244  0.00  0.00     0.014 A 
HETATM    4  C   UNK N   1      21.730  14.112   8.358  0.00  0.00    -0.007 A 
HETATM    5  C   UNK N   1      21.274  15.440   8.291  0.00  0.00     0.014 A 
HETATM    6  C   UNK N   1      21.526  16.212   7.148  0.00  0.00     0.009 A 
ENDROOT
BRANCH   1   7
HETATM    7  C   UNK N   1      22.745  16.480   4.898  0.00  0.00     0.017 C 
HETATM    8  C   UNK N   1      24.124  15.975   4.412  0.00  0.00     0.038 C 
HETATM    9  C   UNK N   1      25.250  16.544   5.273  0.00  0.00     0.115 C 
HETATM   10  N   UNK N   1      25.323  18.014   5.198  0.00  0.00    -0.421 N 
HETATM   11  C   UNK N   1      24.066  18.654   4.777  0.00  0.00     0.115 C 
HETATM   12  H   UNK N   1      26.169  18.541   5.419  0.00  0.00     0.153 HD
HETATM   13  C   UNK N   1      22.849  17.947   5.380  0.00  0.00     0.038 C 
BRANCH   7  14
HETATM   14  C   UNK N   1      21.721  16.295   3.776  0.00  0.00    -0.045 A 
HETATM   15  C   UNK N   1      20.718  17.270   3.601  0.00  0.00     0.010 A 
HETATM   16  C   UNK N   1      19.983  17.329   2.418  0.00  0.00     0.024 A 
HETATM   17  C   UNK N   1      20.249  16.428   1.387  0.00  0.00     0.034 A 
HETATM   18 Cl   UNK N   1      19.411  16.584  -0.142  0.00  0.00    -0.084 Cl
HETATM   19  C   UNK N   1      21.212  15.429   1.559  0.00  0.00     0.024 A 
HETATM   20  C   UNK N   1      21.949  15.364   2.745  0.00  0.00     0.010 A 
ENDBRANCH   7  14
ENDBRANCH   1   7
BRANCH   4  21
HETATM   21  C   UNK N   1      21.722  13.365   9.626  0.00  0.00     0.074 A 
HETATM   22  N   UNK N   1      20.524  13.033  10.204  0.00  0.00    -0.350 N 
HETATM   23  C   UNK N   1      20.466  12.276  11.348  0.00  0.00     0.182 A 
ATOM     24  HN  UNK N   1      19.657  13.353   9.775  1.00  0.00     0.166 HD
HETATM   25  N   UNK N   1      21.616  11.859  11.959  0.00  0.00    -0.337 N 
HETATM   26  C   UNK N   1      22.797  12.212  11.397  0.00  0.00     0.136 A 
ATOM     27  HN  UNK N   1      21.585  11.299  12.811  1.00  0.00     0.168 HD
HETATM   28  N   UNK N   1      24.021  11.934  11.858  0.00  0.00    -0.337 N 
HETATM   29  C   UNK N   1      22.876  12.931  10.262  0.00  0.00     0.105 A 
HETATM   30  C   UNK N   1      24.851  12.519  10.950  0.00  0.00     0.182 A 
HETATM   31  H   UNK N   1      24.265  11.425  12.664  0.00  0.00     0.168 HD
HETATM   32  N   UNK N   1      24.164  13.139   9.953  0.00  0.00    -0.347 N 
ATOM     33  HN  UNK N   1      24.543  13.646   9.152  1.00  0.00     0.167 HD
ENDBRANCH   4  21
TORSDOF 3
ENDMDL
MODEL 2
REMARK VINA RESULT:      -8.1      2.280      3.644
REMARK  3 active torsions:
REMARK  status: ('A' for Active; 'I' for Inactive)
REMARK    1  A    between atoms: C_5  and  C_8 
REMARK    2  A    between atoms: C_8  and  C_14 
REMARK    3  A    between atoms: C_17  and  C_20 
ROOT
HETATM    1  C   UNK N   1      21.336  15.605   6.118  0.00  0.00    -0.045 A 
HETATM    2  C   UNK N   1      21.353  14.196   6.111  0.00  0.00     0.009 A 
HETATM    3  C   UNK N   1      21.376  13.481   7.295  0.00  0.00     0.014 A 
HETATM    4  C   UNK N   1      21.302  14.143   8.518  0.00  0.00    -0.007 A 
HETATM    5  C   UNK N   1      21.165  15.542   8.543  0.00  0.00     0.014 A 
HETATM    6  C   UNK N   1      21.218  16.274   7.349  0.00  0.00     0.009 A 
ENDROOT
BRANCH   1   7
HETATM    7  C   UNK N   1      21.701  16.331   4.822  0.00  0.00     0.017 C 
HETATM    8  C   UNK N   1      20.728  17.485   4.485  0.00  0.00     0.038 C 
HETATM    9  C   UNK N   1      19.499  16.965   3.740  0.00  0.00     0.115 C 
HETATM   10  N   UNK N   1      19.846  16.354   2.444  0.00  0.00    -0.421 N 
HETATM   11  C   UNK N   1      21.245  15.903   2.353  0.00  0.00     0.115 C 
HETATM   12  H   UNK N   1      19.178  16.254   1.679  0.00  0.00     0.153 HD
HETATM   13  C   UNK N   1      21.724  15.293   3.674  0.00  0.00     0.038 C 
BRANCH   7  14
HETATM   14  C   UNK N   1      23.083  16.914   5.121  0.00  0.00    -0.045 A 
HETATM   15  C   UNK N   1      24.171  16.035   5.296  0.00  0.00     0.010 A 
HETATM   16  C   UNK N   1      25.483  16.506   5.236  0.00  0.00     0.024 A 
HETATM   17  C   UNK N   1      25.727  17.856   4.985  0.00  0.00     0.034 A 
HETATM   18 Cl   UNK N   1      27.372  18.419   4.787  0.00  0.00    -0.084 Cl
HETATM   19  C   UNK N   1      24.660  18.749   4.849  0.00  0.00     0.024 A 
HETATM   20  C   UNK N   1      23.343  18.282   4.912  0.00  0.00     0.010 A 
ENDBRANCH   7  14
ENDBRANCH   1   7
BRANCH   4  21
HETATM   21  C   UNK N   1      21.518  13.374   9.754  0.00  0.00     0.074 A 
HETATM   22  N   UNK N   1      20.437  12.977  10.498  0.00  0.00    -0.350 N 
HETATM   23  C   UNK N   1      20.586  12.199  11.619  0.00  0.00     0.182 A 
ATOM     24  HN  UNK N   1      19.501  13.264  10.212  1.00  0.00     0.166 HD
HETATM   25  N   UNK N   1      21.832  11.825  12.039  0.00  0.00    -0.337 N 
HETATM   26  C   UNK N   1      22.897  12.242  11.315  0.00  0.00     0.136 A 
ATOM     27  HN  UNK N   1      21.955  11.250  12.873  1.00  0.00     0.168 HD
HETATM   28  N   UNK N   1      24.188  12.013  11.579  0.00  0.00    -0.337 N 
HETATM   29  C   UNK N   1      22.773  12.983  10.199  0.00  0.00     0.105 A 
HETATM   30  C   UNK N   1      24.845  12.651  10.571  0.00  0.00     0.182 A 
HETATM   31  H   UNK N   1      24.574  11.502  12.327  0.00  0.00     0.168 HD
HETATM   32  N   UNK N   1      23.989  13.256   9.704  0.00  0.00    -0.347 N 
ATOM     33  HN  UNK N   1      24.220  13.794   8.868  1.00  0.00     0.167 HD
ENDBRANCH   4  21
TORSDOF 3
ENDMDL
MODEL 3
REMARK VINA RESULT:      -8.0      8.387     10.706
REMARK  3 active torsions:
REMARK  status: ('A' for Active; 'I' for Inactive)
REMARK    1  A    between atoms: C_5  and  C_8 
REMARK    2  A    between atoms: C_8  and  C_14 
REMARK    3  A    between atoms: C_17  and  C_20 
ROOT
HETATM    1  C   UNK N   1      31.155  16.758   6.371  0.00  0.00    -0.045 A 
HETATM    2  C   UNK N   1      30.994  16.056   7.582  0.00  0.00     0.009 A 
HETATM    3  C   UNK N   1      32.048  15.916   8.467  0.00  0.00     0.014 A 
HETATM    4  C   UNK N   1      33.268  16.537   8.211  0.00  0.00    -0.007 A 
HETATM    5  C   UNK N   1      33.412  17.340   7.067  0.00  0.00     0.014 A 
HETATM    6  C   UNK N   1      32.371  17.421   6.131  0.00  0.00     0.009 A 
ENDROOT
BRANCH   1   7
HETATM    7  C   UNK N   1      30.104  16.552   5.280  0.00  0.00     0.017 C 
HETATM    8  C   UNK N   1      29.418  15.167   5.360  0.00  0.00     0.038 C 
HETATM    9  C   UNK N   1      30.245  14.105   4.636  0.00  0.00     0.115 C 
HETATM   10  N   UNK N   1      30.385  14.390   3.197  0.00  0.00    -0.421 N 
HETATM   11  C   UNK N   1      30.186  15.806   2.846  0.00  0.00     0.115 C 
HETATM   12  H   UNK N   1      30.601  13.670   2.506  0.00  0.00     0.153 HD
HETATM   13  C   UNK N   1      30.788  16.735   3.904  0.00  0.00     0.038 C 
BRANCH   7  14
HETATM   14  C   UNK N   1      29.069  17.639   5.576  0.00  0.00    -0.045 A 
HETATM   15  C   UNK N   1      28.795  17.972   6.918  0.00  0.00     0.010 A 
HETATM   16  C   UNK N   1      28.130  19.156   7.235  0.00  0.00     0.024 A 
HETATM   17  C   UNK N   1      27.743  20.031   6.220  0.00  0.00     0.034 A 
HETATM   18 Cl   UNK N   1      27.021  21.572   6.629  0.00  0.00    -0.084 Cl
HETATM   19  C   UNK N   1      27.970  19.697   4.881  0.00  0.00     0.024 A 
HETATM   20  C   UNK N   1      28.633  18.509   4.559  0.00  0.00     0.010 A 
ENDBRANCH   7  14
ENDBRANCH   1   7
BRANCH   4  21
HETATM   21  C   UNK N   1      34.420  16.216   9.069  0.00  0.00     0.074 A 
HETATM   22  N   UNK N   1      34.636  16.949  10.208  0.00  0.00    -0.350 N 
HETATM   23  C   UNK N   1      35.656  16.641  11.074  0.00  0.00     0.182 A 
ATOM     24  HN  UNK N   1      34.026  17.739  10.417  1.00  0.00     0.166 HD
HETATM   25  N   UNK N   1      36.505  15.606  10.801  0.00  0.00    -0.337 N 
HETATM   26  C   UNK N   1      36.302  14.902   9.662  0.00  0.00     0.136 A 
ATOM     27  HN  UNK N   1      37.268  15.370  11.436  1.00  0.00     0.168 HD
HETATM   28  N   UNK N   1      37.038  13.884   9.204  0.00  0.00    -0.337 N 
HETATM   29  C   UNK N   1      35.294  15.170   8.812  0.00  0.00     0.105 A 
HETATM   30  C   UNK N   1      36.432  13.545   8.033  0.00  0.00     0.182 A 
HETATM   31  H   UNK N   1      37.833  13.476   9.616  0.00  0.00     0.168 HD
HETATM   32  N   UNK N   1      35.348  14.326   7.772  0.00  0.00    -0.347 N 
ATOM     33  HN  UNK N   1      34.721  14.279   6.968  1.00  0.00     0.167 HD
ENDBRANCH   4  21
TORSDOF 3
ENDMDL
MODEL 4
REMARK VINA RESULT:      -7.8      7.985     10.488
REMARK  3 active torsions:
REMARK  status: ('A' for Active; 'I' for Inactive)
REMARK    1  A    between atoms: C_5  and  C_8 
REMARK    2  A    between atoms: C_8  and  C_14 
REMARK    3  A    between atoms: C_17  and  C_20 
ROOT
HETATM    1  C   UNK N   1      30.847  16.790   6.182  0.00  0.00    -0.045 A 
HETATM    2  C   UNK N   1      30.804  16.162   7.443  0.00  0.00     0.009 A 
HETATM    3  C   UNK N   1      31.965  15.742   8.066  0.00  0.00     0.014 A 
HETATM    4  C   UNK N   1      33.206  16.007   7.493  0.00  0.00    -0.007 A 
HETATM    5  C   UNK N   1      33.275  16.736   6.294  0.00  0.00     0.014 A 
HETATM    6  C   UNK N   1      32.099  17.095   5.622  0.00  0.00     0.009 A 
ENDROOT
BRANCH   1   7
HETATM    7  C   UNK N   1      29.546  16.874   5.381  0.00  0.00     0.017 C 
HETATM    8  C   UNK N   1      28.525  15.782   5.776  0.00  0.00     0.038 C 
HETATM    9  C   UNK N   1      28.796  14.481   5.024  0.00  0.00     0.115 C 
HETATM   10  N   UNK N   1      28.656  14.638   3.565  0.00  0.00    -0.421 N 
HETATM   11  C   UNK N   1      28.804  16.027   3.097  0.00  0.00     0.115 C 
HETATM   12  H   UNK N   1      28.473  13.856   2.936  0.00  0.00     0.153 HD
HETATM   13  C   UNK N   1      29.894  16.767   3.877  0.00  0.00     0.038 C 
BRANCH   7  14
HETATM   14  C   UNK N   1      28.985  18.245   5.763  0.00  0.00    -0.045 A 
HETATM   15  C   UNK N   1      28.599  19.133   4.739  0.00  0.00     0.010 A 
HETATM   16  C   UNK N   1      27.788  20.233   5.019  0.00  0.00     0.024 A 
HETATM   17  C   UNK N   1      27.339  20.452   6.321  0.00  0.00     0.034 A 
HETATM   18 Cl   UNK N   1      26.222  21.761   6.646  0.00  0.00    -0.084 Cl
HETATM   19  C   UNK N   1      27.745  19.605   7.356  0.00  0.00     0.024 A 
HETATM   20  C   UNK N   1      28.561  18.504   7.080  0.00  0.00     0.010 A 
ENDBRANCH   7  14
ENDBRANCH   1   7
BRANCH   4  21
HETATM   21  C   UNK N   1      34.405  15.387   8.081  0.00  0.00     0.074 A 
HETATM   22  N   UNK N   1      35.043  14.381   7.403  0.00  0.00    -0.350 N 
HETATM   23  C   UNK N   1      36.203  13.821   7.878  0.00  0.00     0.182 A 
ATOM     24  HN  UNK N   1      34.649  14.040   6.526  1.00  0.00     0.166 HD
HETATM   25  N   UNK N   1      36.735  14.239   9.066  0.00  0.00    -0.337 N 
HETATM   26  C   UNK N   1      36.086  15.215   9.744  0.00  0.00     0.136 A 
ATOM     27  HN  UNK N   1      37.595  13.828   9.431  1.00  0.00     0.168 HD
HETATM   28  N   UNK N   1      36.424  15.732  10.929  0.00  0.00    -0.337 N 
HETATM   29  C   UNK N   1      34.962  15.795   9.284  0.00  0.00     0.105 A 
HETATM   30  C   UNK N   1      35.452  16.655  11.172  0.00  0.00     0.182 A 
HETATM   31  H   UNK N   1      37.196  15.500  11.495  0.00  0.00     0.168 HD
HETATM   32  N   UNK N   1      34.538  16.712  10.165  0.00  0.00    -0.347 N 
ATOM     33  HN  UNK N   1      33.718  17.316  10.097  1.00  0.00     0.167 HD
ENDBRANCH   4  21
TORSDOF 3
ENDMDL
MODEL 5
REMARK VINA RESULT:      -7.8      4.027      8.289
REMARK  3 active torsions:
REMARK  status: ('A' for Active; 'I' for Inactive)
REMARK    1  A    between atoms: C_5  and  C_8 
REMARK    2  A    between atoms: C_8  and  C_14 
REMARK    3  A    between atoms: C_17  and  C_20 
ROOT
HETATM    1  C   UNK N   1      22.721  14.675   6.689  0.00  0.00    -0.045 A 
HETATM    2  C   UNK N   1      23.933  14.964   6.030  0.00  0.00     0.009 A 
HETATM    3  C   UNK N   1      24.123  16.178   5.395  0.00  0.00     0.014 A 
HETATM    4  C   UNK N   1      23.147  17.170   5.466  0.00  0.00    -0.007 A 
HETATM    5  C   UNK N   1      21.982  16.943   6.218  0.00  0.00     0.014 A 
HETATM    6  C   UNK N   1      21.753  15.688   6.798  0.00  0.00     0.009 A 
ENDROOT
BRANCH   1   7
HETATM    7  C   UNK N   1      22.421  13.213   7.025  0.00  0.00     0.017 C 
HETATM    8  C   UNK N   1      23.394  12.227   6.338  0.00  0.00     0.038 C 
HETATM    9  C   UNK N   1      22.931  11.900   4.919  0.00  0.00     0.115 C 
HETATM   10  N   UNK N   1      21.617  11.232   4.899  0.00  0.00    -0.421 N 
HETATM   11  C   UNK N   1      20.808  11.470   6.106  0.00  0.00     0.115 C 
HETATM   12  H   UNK N   1      21.297  10.657   4.119  0.00  0.00     0.153 HD
HETATM   13  C   UNK N   1      20.962  12.909   6.608  0.00  0.00     0.038 C 
BRANCH   7  14
HETATM   14  C   UNK N   1      22.631  13.149   8.539  0.00  0.00    -0.045 A 
HETATM   15  C   UNK N   1      21.503  13.078   9.381  0.00  0.00     0.010 A 
HETATM   16  C   UNK N   1      21.633  12.687  10.713  0.00  0.00     0.024 A 
HETATM   17  C   UNK N   1      22.888  12.344  11.219  0.00  0.00     0.034 A 
HETATM   18 Cl   UNK N   1      23.028  11.735  12.853  0.00  0.00    -0.084 Cl
HETATM   19  C   UNK N   1      24.023  12.448  10.409  0.00  0.00     0.024 A 
HETATM   20  C   UNK N   1      23.896  12.844   9.074  0.00  0.00     0.010 A 
ENDBRANCH   7  14
ENDBRANCH   1   7
BRANCH   4  21
HETATM   21  C   UNK N   1      23.296  18.371   4.629  0.00  0.00     0.074 A 
HETATM   22  N   UNK N   1      24.518  18.985   4.542  0.00  0.00    -0.350 N 
HETATM   23  C   UNK N   1      24.721  20.065   3.720  0.00  0.00     0.182 A 
ATOM     24  HN  UNK N   1      25.295  18.631   5.101  1.00  0.00     0.166 HD
HETATM   25  N   UNK N   1      23.689  20.576   2.985  0.00  0.00    -0.337 N 
HETATM   26  C   UNK N   1      22.476  19.981   3.094  0.00  0.00     0.136 A 
ATOM     27  HN  UNK N   1      23.826  21.380   2.372  1.00  0.00     0.168 HD
HETATM   28  N   UNK N   1      21.343  20.349   2.488  0.00  0.00    -0.337 N 
HETATM   29  C   UNK N   1      22.262  18.906   3.874  0.00  0.00     0.105 A 
HETATM   30  C   UNK N   1      20.425  19.448   2.937  0.00  0.00     0.182 A 
HETATM   31  H   UNK N   1      21.203  21.097   1.863  0.00  0.00     0.168 HD
HETATM   32  N   UNK N   1      20.973  18.544   3.793  0.00  0.00    -0.347 N 
ATOM     33  HN  UNK N   1      20.509  17.767   4.266  1.00  0.00     0.167 HD
ENDBRANCH   4  21
TORSDOF 3
ENDMDL
MODEL 6
REMARK VINA RESULT:      -7.7      6.886     10.391
REMARK  3 active torsions:
REMARK  status: ('A' for Active; 'I' for Inactive)
REMARK    1  A    between atoms: C_5  and  C_8 
REMARK    2  A    between atoms: C_8  and  C_14 
REMARK    3  A    between atoms: C_17  and  C_20 
ROOT
HETATM    1  C   UNK N   1      30.596  16.216   5.794  0.00  0.00    -0.045 A 
HETATM    2  C   UNK N   1      29.927  17.319   6.360  0.00  0.00     0.009 A 
HETATM    3  C   UNK N   1      28.546  17.396   6.344  0.00  0.00     0.014 A 
HETATM    4  C   UNK N   1      27.789  16.343   5.838  0.00  0.00    -0.007 A 
HETATM    5  C   UNK N   1      28.435  15.183   5.377  0.00  0.00     0.014 A 
HETATM    6  C   UNK N   1      29.835  15.133   5.322  0.00  0.00     0.009 A 
ENDROOT
BRANCH   1   7
HETATM    7  C   UNK N   1      32.089  16.362   5.493  0.00  0.00     0.017 C 
HETATM    8  C   UNK N   1      32.396  17.532   4.529  0.00  0.00     0.038 C 
HETATM    9  C   UNK N   1      32.239  17.096   3.073  0.00  0.00     0.115 C 
HETATM   10  N   UNK N   1      33.183  16.026   2.704  0.00  0.00    -0.421 N 
HETATM   11  C   UNK N   1      33.691  15.256   3.852  0.00  0.00     0.115 C 
HETATM   12  H   UNK N   1      33.460  15.837   1.740  0.00  0.00     0.153 HD
HETATM   13  C   UNK N   1      32.598  15.027   4.900  0.00  0.00     0.038 C 
BRANCH   7  14
HETATM   14  C   UNK N   1      32.696  16.672   6.863  0.00  0.00    -0.045 A 
HETATM   15  C   UNK N   1      32.641  15.689   7.871  0.00  0.00     0.010 A 
HETATM   16  C   UNK N   1      33.453  15.782   9.001  0.00  0.00     0.024 A 
HETATM   17  C   UNK N   1      34.343  16.848   9.132  0.00  0.00     0.034 A 
HETATM   18 Cl   UNK N   1      35.448  16.896  10.490  0.00  0.00    -0.084 Cl
HETATM   19  C   UNK N   1      34.382  17.854   8.162  0.00  0.00     0.024 A 
HETATM   20  C   UNK N   1      33.566  17.766   7.030  0.00  0.00     0.010 A 
ENDBRANCH   7  14
ENDBRANCH   1   7
BRANCH   4  21
HETATM   21  C   UNK N   1      26.340  16.532   5.661  0.00  0.00     0.074 A 
HETATM   22  N   UNK N   1      25.467  15.723   6.341  0.00  0.00    -0.350 N 
HETATM   23  C   UNK N   1      24.109  15.908   6.262  0.00  0.00     0.182 A 
ATOM     24  HN  UNK N   1      25.834  14.967   6.918  1.00  0.00     0.166 HD
HETATM   25  N   UNK N   1      23.592  16.895   5.471  0.00  0.00    -0.337 N 
HETATM   26  C   UNK N   1      24.459  17.675   4.782  0.00  0.00     0.136 A 
ATOM     27  HN  UNK N   1      22.585  17.040   5.402  1.00  0.00     0.168 HD
HETATM   28  N   UNK N   1      24.152  18.664   3.936  0.00  0.00    -0.337 N 
HETATM   29  C   UNK N   1      25.794  17.528   4.865  0.00  0.00     0.105 A 
HETATM   30  C   UNK N   1      25.363  19.112   3.504  0.00  0.00     0.182 A 
HETATM   31  H   UNK N   1      23.258  18.992   3.683  0.00  0.00     0.168 HD
HETATM   32  N   UNK N   1      26.393  18.425   4.069  0.00  0.00    -0.347 N 
ATOM     33  HN  UNK N   1      27.394  18.562   3.920  1.00  0.00     0.167 HD
ENDBRANCH   4  21
TORSDOF 3
ENDMDL
MODEL 7
REMARK VINA RESULT:      -7.7      9.551     11.923
REMARK  3 active torsions:
REMARK  status: ('A' for Active; 'I' for Inactive)
REMARK    1  A    between atoms: C_5  and  C_8 
REMARK    2  A    between atoms: C_8  and  C_14 
REMARK    3  A    between atoms: C_17  and  C_20 
ROOT
HETATM    1  C   UNK N   1      33.151  15.260   6.577  0.00  0.00    -0.045 A 
HETATM    2  C   UNK N   1      34.447  15.727   6.877  0.00  0.00     0.009 A 
HETATM    3  C   UNK N   1      35.109  15.303   8.015  0.00  0.00     0.014 A 
HETATM    4  C   UNK N   1      34.536  14.342   8.844  0.00  0.00    -0.007 A 
HETATM    5  C   UNK N   1      33.297  13.777   8.499  0.00  0.00     0.014 A 
HETATM    6  C   UNK N   1      32.590  14.259   7.389  0.00  0.00     0.009 A 
ENDROOT
BRANCH   1   7
HETATM    7  C   UNK N   1      32.330  16.039   5.548  0.00  0.00     0.017 C 
HETATM    8  C   UNK N   1      31.574  15.119   4.562  0.00  0.00     0.038 C 
HETATM    9  C   UNK N   1      32.473  14.708   3.397  0.00  0.00     0.115 C 
HETATM   10  N   UNK N   1      32.914  15.864   2.595  0.00  0.00    -0.421 N 
HETATM   11  C   UNK N   1      32.860  17.146   3.317  0.00  0.00     0.115 C 
HETATM   12  H   UNK N   1      33.227  15.782   1.627  0.00  0.00     0.153 HD
HETATM   13  C   UNK N   1      33.285  16.983   4.779  0.00  0.00     0.038 C 
BRANCH   7  14
HETATM   14  C   UNK N   1      31.314  16.795   6.407  0.00  0.00    -0.045 A 
HETATM   15  C   UNK N   1      29.939  16.604   6.162  0.00  0.00     0.010 A 
HETATM   16  C   UNK N   1      28.988  16.992   7.105  0.00  0.00     0.024 A 
HETATM   17  C   UNK N   1      29.396  17.562   8.311  0.00  0.00     0.034 A 
HETATM   18 Cl   UNK N   1      28.209  17.933   9.542  0.00  0.00    -0.084 Cl
HETATM   19  C   UNK N   1      30.753  17.796   8.553  0.00  0.00     0.024 A 
HETATM   20  C   UNK N   1      31.709  17.411   7.608  0.00  0.00     0.010 A 
ENDBRANCH   7  14
ENDBRANCH   1   7
BRANCH   4  21
HETATM   21  C   UNK N   1      35.175  14.052  10.138  0.00  0.00     0.074 A 
HETATM   22  N   UNK N   1      34.427  14.110  11.286  0.00  0.00    -0.350 N 
HETATM   23  C   UNK N   1      34.962  13.780  12.506  0.00  0.00     0.182 A 
ATOM     24  HN  UNK N   1      33.452  14.405  11.232  1.00  0.00     0.166 HD
HETATM   25  N   UNK N   1      36.274  13.412  12.608  0.00  0.00    -0.337 N 
HETATM   26  C   UNK N   1      37.015  13.381  11.474  0.00  0.00     0.136 A 
ATOM     27  HN  UNK N   1      36.683  13.167  13.510  1.00  0.00     0.168 HD
HETATM   28  N   UNK N   1      38.314  13.083  11.370  0.00  0.00    -0.337 N 
HETATM   29  C   UNK N   1      36.504  13.676  10.264  0.00  0.00     0.105 A 
HETATM   30  C   UNK N   1      38.572  13.210  10.039  0.00  0.00     0.182 A 
HETATM   31  H   UNK N   1      38.938  12.829  12.088  0.00  0.00     0.168 HD
HETATM   32  N   UNK N   1      37.465  13.574   9.336  0.00  0.00    -0.347 N 
ATOM     33  HN  UNK N   1      37.386  13.733   8.330  1.00  0.00     0.167 HD
ENDBRANCH   4  21
TORSDOF 3
ENDMDL
MODEL 8
REMARK VINA RESULT:      -7.7      2.305      3.916
REMARK  3 active torsions:
REMARK  status: ('A' for Active; 'I' for Inactive)
REMARK    1  A    between atoms: C_5  and  C_8 
REMARK    2  A    between atoms: C_8  and  C_14 
REMARK    3  A    between atoms: C_17  and  C_20 
ROOT
HETATM    1  C   UNK N   1      22.131  15.040   5.091  0.00  0.00    -0.045 A 
HETATM    2  C   UNK N   1      22.602  13.715   5.175  0.00  0.00     0.009 A 
HETATM    3  C   UNK N   1      22.906  13.146   6.399  0.00  0.00     0.014 A 
HETATM    4  C   UNK N   1      22.675  13.850   7.578  0.00  0.00    -0.007 A 
HETATM    5  C   UNK N   1      22.095  15.128   7.521  0.00  0.00     0.014 A 
HETATM    6  C   UNK N   1      21.856  15.736   6.281  0.00  0.00     0.009 A 
ENDROOT
BRANCH   1   7
HETATM    7  C   UNK N   1      22.184  15.733   3.729  0.00  0.00     0.017 C 
HETATM    8  C   UNK N   1      20.829  16.353   3.316  0.00  0.00     0.038 C 
HETATM    9  C   UNK N   1      19.930  15.313   2.649  0.00  0.00     0.115 C 
HETATM   10  N   UNK N   1      20.515  14.785   1.403  0.00  0.00    -0.421 N 
HETATM   11  C   UNK N   1      21.977  14.938   1.318  0.00  0.00     0.115 C 
HETATM   12  H   UNK N   1      19.956  14.353   0.666  0.00  0.00     0.153 HD
HETATM   13  C   UNK N   1      22.645  14.697   2.675  0.00  0.00     0.038 C 
BRANCH   7  14
HETATM   14  C   UNK N   1      23.203  16.854   3.942  0.00  0.00    -0.045 A 
HETATM   15  C   UNK N   1      24.576  16.560   3.821  0.00  0.00     0.010 A 
HETATM   16  C   UNK N   1      25.512  17.583   3.674  0.00  0.00     0.024 A 
HETATM   17  C   UNK N   1      25.089  18.912   3.630  0.00  0.00     0.034 A 
HETATM   18 Cl   UNK N   1      26.252  20.183   3.321  0.00  0.00    -0.084 Cl
HETATM   19  C   UNK N   1      23.736  19.224   3.790  0.00  0.00     0.024 A 
HETATM   20  C   UNK N   1      22.795  18.201   3.941  0.00  0.00     0.010 A 
ENDBRANCH   7  14
ENDBRANCH   1   7
BRANCH   4  21
HETATM   21  C   UNK N   1      23.182  13.296   8.844  0.00  0.00     0.074 A 
HETATM   22  N   UNK N   1      24.534  13.233   9.058  0.00  0.00    -0.350 N 
HETATM   23  C   UNK N   1      25.051  12.790  10.250  0.00  0.00     0.182 A 
ATOM     24  HN  UNK N   1      25.171  13.523   8.316  1.00  0.00     0.166 HD
HETATM   25  N   UNK N   1      24.220  12.369  11.249  0.00  0.00    -0.337 N 
HETATM   26  C   UNK N   1      22.885  12.409  11.022  0.00  0.00     0.136 A 
ATOM     27  HN  UNK N   1      24.592  12.035  12.138  1.00  0.00     0.168 HD
HETATM   28  N   UNK N   1      21.916  12.012  11.854  0.00  0.00    -0.337 N 
HETATM   29  C   UNK N   1      22.356  12.863   9.872  0.00  0.00     0.105 A 
HETATM   30  C   UNK N   1      20.771  12.244  11.155  0.00  0.00     0.182 A 
HETATM   31  H   UNK N   1      22.009  11.638  12.760  0.00  0.00     0.168 HD
HETATM   32  N   UNK N   1      21.020  12.774   9.926  0.00  0.00    -0.347 N 
ATOM     33  HN  UNK N   1      20.343  13.042   9.211  1.00  0.00     0.167 HD
ENDBRANCH   4  21
TORSDOF 3
ENDMDL
MODEL 9
REMARK VINA RESULT:      -7.6      8.925     11.173
REMARK  3 active torsions:
REMARK  status: ('A' for Active; 'I' for Inactive)
REMARK    1  A    between atoms: C_5  and  C_8 
REMARK    2  A    between atoms: C_8  and  C_14 
REMARK    3  A    between atoms: C_17  and  C_20 
ROOT
HETATM    1  C   UNK N   1      32.341  16.235   6.496  0.00  0.00    -0.045 A 
HETATM    2  C   UNK N   1      32.109  15.182   7.403  0.00  0.00     0.009 A 
HETATM    3  C   UNK N   1      32.950  14.977   8.482  0.00  0.00     0.014 A 
HETATM    4  C   UNK N   1      33.996  15.860   8.737  0.00  0.00    -0.007 A 
HETATM    5  C   UNK N   1      34.171  16.984   7.911  0.00  0.00     0.014 A 
HETATM    6  C   UNK N   1      33.369  17.152   6.774  0.00  0.00     0.009 A 
ENDROOT
BRANCH   1   7
HETATM    7  C   UNK N   1      31.636  16.179   5.140  0.00  0.00     0.017 C 
HETATM    8  C   UNK N   1      31.930  14.874   4.363  0.00  0.00     0.038 C 
HETATM    9  C   UNK N   1      33.235  14.987   3.576  0.00  0.00     0.115 C 
HETATM   10  N   UNK N   1      33.182  16.048   2.554  0.00  0.00    -0.421 N 
HETATM   11  C   UNK N   1      32.167  17.081   2.818  0.00  0.00     0.115 C 
HETATM   12  H   UNK N   1      33.794  16.064   1.737  0.00  0.00     0.153 HD
HETATM   13  C   UNK N   1      32.077  17.409   4.311  0.00  0.00     0.038 C 
BRANCH   7  14
HETATM   14  C   UNK N   1      30.152  16.216   5.512  0.00  0.00    -0.045 A 
HETATM   15  C   UNK N   1      29.568  17.449   5.863  0.00  0.00     0.010 A 
HETATM   16  C   UNK N   1      28.182  17.599   5.883  0.00  0.00     0.024 A 
HETATM   17  C   UNK N   1      27.360  16.526   5.537  0.00  0.00     0.034 A 
HETATM   18 Cl   UNK N   1      25.627  16.754   5.442  0.00  0.00    -0.084 Cl
HETATM   19  C   UNK N   1      27.922  15.284   5.225  0.00  0.00     0.024 A 
HETATM   20  C   UNK N   1      29.311  15.129   5.208  0.00  0.00     0.010 A 
ENDBRANCH   7  14
ENDBRANCH   1   7
BRANCH   4  21
HETATM   21  C   UNK N   1      34.980  15.513   9.774  0.00  0.00     0.074 A 
HETATM   22  N   UNK N   1      34.796  15.963  11.055  0.00  0.00    -0.350 N 
HETATM   23  C   UNK N   1      35.649  15.607  12.070  0.00  0.00     0.182 A 
ATOM     24  HN  UNK N   1      34.007  16.576  11.261  1.00  0.00     0.166 HD
HETATM   25  N   UNK N   1      36.730  14.811  11.815  0.00  0.00    -0.337 N 
HETATM   26  C   UNK N   1      36.922  14.390  10.542  0.00  0.00     0.136 A 
ATOM     27  HN  UNK N   1      37.373  14.542  12.560  1.00  0.00     0.168 HD
HETATM   28  N   UNK N   1      37.931  13.640  10.086  0.00  0.00    -0.337 N 
HETATM   29  C   UNK N   1      36.084  14.706   9.537  0.00  0.00     0.105 A 
HETATM   30  C   UNK N   1      37.670  13.515   8.756  0.00  0.00     0.182 A 
HETATM   31  H   UNK N   1      38.687  13.265  10.594  0.00  0.00     0.168 HD
HETATM   32  N   UNK N   1      36.529  14.164   8.395  0.00  0.00    -0.347 N 
ATOM     33  HN  UNK N   1      36.110  14.225   7.466  1.00  0.00     0.167 HD
ENDBRANCH   4  21
TORSDOF 3
ENDMDL
