REMARK  5 active torsions:
REMARK  status: ('A' for Active; 'I' for Inactive)
REMARK    1  A    between atoms: N_1  and  C_2 
REMARK    2  A    between atoms: C_2  and  C_3 
REMARK    3  A    between atoms: C_3  and  C_4 
REMARK    4  A    between atoms: C_3  and  C_11 
REMARK    5  A    between atoms: C_14  and  C_17 
ROOT
HETATM    1  C   UNK N   1       1.179  -0.347  -0.019  0.00  0.00    -0.048 A 
HETATM    2  C   UNK N   1       2.399  -1.044  -0.087  0.00  0.00     0.009 A 
HETATM    3  C   UNK N   1       2.429  -2.444  -0.035  0.00  0.00     0.013 A 
HETATM    4  C   UNK N   1       1.234  -3.172   0.064  0.00  0.00    -0.023 A 
HETATM    5  C   UNK N   1       0.020  -2.486   0.131  0.00  0.00     0.013 A 
HETATM    6  C   UNK N   1      -0.003  -1.095   0.092  0.00  0.00     0.009 A 
ENDROOT
BRANCH   1   7
HETATM    7  C   UNK N   1       1.164   1.182  -0.166  0.00  0.00     0.068 C 
BRANCH   7   8
HETATM    8  C   UNK N   1       2.098   1.864   0.842  0.00  0.00     0.125 C 
BRANCH   8   9
HETATM    9  N   UNK N   1       3.497   1.613   0.529  0.00  0.00    -0.429 N 
HETATM   10  H   UNK N   1       3.834   0.676   0.309  0.00  0.00     0.149 HD
HETATM   11  H   UNK N   1       4.155   2.392   0.529  0.00  0.00     0.149 HD
ENDBRANCH   8   9
ENDBRANCH   7   8
BRANCH   7  12
HETATM   12  C   UNK N   1      -0.187   1.896  -0.086  0.00  0.00    -0.048 A 
HETATM   13  C   UNK N   1      -1.351   1.279   0.405  0.00  0.00     0.009 A 
HETATM   14  C   UNK N   1      -2.566   1.962   0.449  0.00  0.00     0.024 A 
HETATM   15  C   UNK N   1      -2.639   3.279   0.001  0.00  0.00     0.034 A 
HETATM   16 Cl   UNK N   1      -4.170   4.124   0.033  0.00  0.00    -0.084 Cl
HETATM   17  C   UNK N   1      -1.492   3.917  -0.478  0.00  0.00     0.024 A 
HETATM   18  C   UNK N   1      -0.272   3.232  -0.514  0.00  0.00     0.009 A 
ENDBRANCH   7  12
ENDBRANCH   1   7
BRANCH   4  19
HETATM   19  C   UNK N   1       1.240  -4.643   0.063  0.00  0.00     0.008 A 
HETATM   20  C   UNK N   1       2.339  -5.473   0.019  0.00  0.00     0.120 A 
HETATM   21  N   UNK N   1       1.895  -6.744   0.011  0.00  0.00    -0.311 N 
HETATM   22  N   UNK N   1       0.568  -6.740   0.045  0.00  0.00    -0.311 N 
HETATM   23  H   UNK N   1       2.463  -7.547  -0.016  0.00  0.00     0.186 HD
HETATM   24  C   UNK N   1       0.134  -5.468   0.078  0.00  0.00     0.120 A 
ATOM     25  HN  UNK N   1      -0.026  -7.569   0.046  1.00  0.00     0.186 HD
ENDBRANCH   4  19
TORSDOF 5
