MODEL 1
REMARK VINA RESULT:      -7.0      0.000      0.000
REMARK  5 active torsions:
REMARK  status: ('A' for Active; 'I' for Inactive)
REMARK    1  A    between atoms: N_1  and  C_2 
REMARK    2  A    between atoms: C_2  and  C_3 
REMARK    3  A    between atoms: C_3  and  C_4 
REMARK    4  A    between atoms: C_3  and  C_11 
REMARK    5  A    between atoms: C_14  and  C_17 
ROOT
HETATM    1  C   UNK N   1      35.353  11.552  18.806  0.00  0.00    -0.048 A 
HETATM    2  C   UNK N   1      35.823  10.837  17.690  0.00  0.00     0.009 A 
HETATM    3  C   UNK N   1      35.994  11.472  16.452  0.00  0.00     0.013 A 
HETATM    4  C   UNK N   1      35.717  12.840  16.317  0.00  0.00    -0.023 A 
HETATM    5  C   UNK N   1      35.251  13.555  17.421  0.00  0.00     0.013 A 
HETATM    6  C   UNK N   1      35.071  12.917  18.645  0.00  0.00     0.009 A 
ENDROOT
BRANCH   1   7
HETATM    7  C   UNK N   1      35.257  10.856  20.173  0.00  0.00     0.068 C 
BRANCH   7   8
HETATM    8  C   UNK N   1      36.565  10.149  20.549  0.00  0.00     0.125 C 
BRANCH   8   9
HETATM    9  N   UNK N   1      37.231  10.813  21.660  0.00  0.00    -0.429 N 
HETATM   10  H   UNK N   1      36.739  11.021  22.529  0.00  0.00     0.149 HD
HETATM   11  H   UNK N   1      38.212  11.075  21.569  0.00  0.00     0.149 HD
ENDBRANCH   8   9
ENDBRANCH   7   8
BRANCH   7  12
HETATM   12  C   UNK N   1      34.122   9.853  20.387  0.00  0.00    -0.048 A 
HETATM   13  C   UNK N   1      33.241   9.916  21.481  0.00  0.00     0.009 A 
HETATM   14  C   UNK N   1      32.227   8.973  21.647  0.00  0.00     0.024 A 
HETATM   15  C   UNK N   1      32.075   7.946  20.718  0.00  0.00     0.034 A 
HETATM   16 Cl   UNK N   1      30.819   6.750  20.942  0.00  0.00    -0.084 Cl
HETATM   17  C   UNK N   1      32.931   7.872  19.615  0.00  0.00     0.024 A 
HETATM   18  C   UNK N   1      33.943   8.824  19.447  0.00  0.00     0.009 A 
ENDBRANCH   7  12
ENDBRANCH   1   7
BRANCH   4  19
HETATM   19  C   UNK N   1      35.944  13.537  15.041  0.00  0.00     0.008 A 
HETATM   20  C   UNK N   1      35.394  13.233  13.815  0.00  0.00     0.120 A 
HETATM   21  N   UNK N   1      35.886  14.105  12.915  0.00  0.00    -0.311 N 
HETATM   22  N   UNK N   1      36.720  14.937  13.529  0.00  0.00    -0.311 N 
HETATM   23  H   UNK N   1      35.664  14.124  11.957  0.00  0.00     0.186 HD
HETATM   24  C   UNK N   1      36.778  14.617  14.833  0.00  0.00     0.120 A 
ATOM     25  HN  UNK N   1      37.233  15.696  13.081  1.00  0.00     0.186 HD
ENDBRANCH   4  19
TORSDOF 5
ENDMDL
MODEL 2
REMARK VINA RESULT:      -6.8     24.411     27.854
REMARK  5 active torsions:
REMARK  status: ('A' for Active; 'I' for Inactive)
REMARK    1  A    between atoms: N_1  and  C_2 
REMARK    2  A    between atoms: C_2  and  C_3 
REMARK    3  A    between atoms: C_3  and  C_4 
REMARK    4  A    between atoms: C_3  and  C_11 
REMARK    5  A    between atoms: C_14  and  C_17 
ROOT
HETATM    1  C   UNK N   1      27.737  24.109  -4.577  0.00  0.00    -0.048 A 
HETATM    2  C   UNK N   1      28.453  23.507  -5.627  0.00  0.00     0.009 A 
HETATM    3  C   UNK N   1      29.570  22.703  -5.366  0.00  0.00     0.013 A 
HETATM    4  C   UNK N   1      29.978  22.471  -4.044  0.00  0.00    -0.023 A 
HETATM    5  C   UNK N   1      29.271  23.065  -2.997  0.00  0.00     0.013 A 
HETATM    6  C   UNK N   1      28.170  23.872  -3.263  0.00  0.00     0.009 A 
ENDROOT
BRANCH   1   7
HETATM    7  C   UNK N   1      26.464  24.913  -4.882  0.00  0.00     0.068 C 
BRANCH   7   8
HETATM    8  C   UNK N   1      25.895  24.581  -6.268  0.00  0.00     0.125 C 
BRANCH   8   9
HETATM    9  N   UNK N   1      25.156  23.327  -6.256  0.00  0.00    -0.429 N 
HETATM   10  H   UNK N   1      25.615  22.437  -6.448  0.00  0.00     0.149 HD
HETATM   11  H   UNK N   1      24.158  23.340  -6.051  0.00  0.00     0.149 HD
ENDBRANCH   8   9
ENDBRANCH   7   8
BRANCH   7  12
HETATM   12  C   UNK N   1      26.537  26.437  -4.776  0.00  0.00    -0.048 A 
HETATM   13  C   UNK N   1      27.053  27.252  -5.799  0.00  0.00     0.009 A 
HETATM   14  C   UNK N   1      27.113  28.638  -5.657  0.00  0.00     0.024 A 
HETATM   15  C   UNK N   1      26.658  29.236  -4.484  0.00  0.00     0.034 A 
HETATM   16 Cl   UNK N   1      26.759  30.972  -4.298  0.00  0.00    -0.084 Cl
HETATM   17  C   UNK N   1      26.128  28.448  -3.460  0.00  0.00     0.024 A 
HETATM   18  C   UNK N   1      26.061  27.057  -3.608  0.00  0.00     0.009 A 
ENDBRANCH   7  12
ENDBRANCH   1   7
BRANCH   4  19
HETATM   19  C   UNK N   1      31.114  21.585  -3.746  0.00  0.00     0.008 A 
HETATM   20  C   UNK N   1      32.121  21.800  -2.830  0.00  0.00     0.120 A 
HETATM   21  N   UNK N   1      32.967  20.754  -2.895  0.00  0.00    -0.311 N 
HETATM   22  N   UNK N   1      32.531  19.901  -3.814  0.00  0.00    -0.311 N 
HETATM   23  H   UNK N   1      33.778  20.640  -2.350  0.00  0.00     0.186 HD
HETATM   24  C   UNK N   1      31.397  20.380  -4.354  0.00  0.00     0.120 A 
ATOM     25  HN  UNK N   1      32.984  19.023  -4.068  1.00  0.00     0.186 HD
ENDBRANCH   4  19
TORSDOF 5
ENDMDL
MODEL 3
REMARK VINA RESULT:      -6.6     11.969     16.216
REMARK  5 active torsions:
REMARK  status: ('A' for Active; 'I' for Inactive)
REMARK    1  A    between atoms: N_1  and  C_2 
REMARK    2  A    between atoms: C_2  and  C_3 
REMARK    3  A    between atoms: C_3  and  C_4 
REMARK    4  A    between atoms: C_3  and  C_11 
REMARK    5  A    between atoms: C_14  and  C_17 
ROOT
HETATM    1  C   UNK N   1      29.980  16.782   5.173  0.00  0.00    -0.048 A 
HETATM    2  C   UNK N   1      31.279  17.084   4.727  0.00  0.00     0.009 A 
HETATM    3  C   UNK N   1      32.317  17.310   5.641  0.00  0.00     0.013 A 
HETATM    4  C   UNK N   1      32.076  17.215   7.020  0.00  0.00    -0.023 A 
HETATM    5  C   UNK N   1      30.789  16.915   7.469  0.00  0.00     0.013 A 
HETATM    6  C   UNK N   1      29.759  16.704   6.557  0.00  0.00     0.009 A 
ENDROOT
BRANCH   1   7
HETATM    7  C   UNK N   1      28.879  16.453   4.153  0.00  0.00     0.068 C 
BRANCH   7   8
HETATM    8  C   UNK N   1      29.458  16.136   2.768  0.00  0.00     0.125 C 
BRANCH   8   9
HETATM    9  N   UNK N   1      29.623  14.703   2.573  0.00  0.00    -0.429 N 
HETATM   10  H   UNK N   1      29.946  14.320   1.685  0.00  0.00     0.149 HD
HETATM   11  H   UNK N   1      29.411  14.068   3.342  0.00  0.00     0.149 HD
ENDBRANCH   8   9
ENDBRANCH   7   8
BRANCH   7  12
HETATM   12  C   UNK N   1      27.760  17.476   3.953  0.00  0.00    -0.048 A 
HETATM   13  C   UNK N   1      26.454  17.118   3.575  0.00  0.00     0.009 A 
HETATM   14  C   UNK N   1      25.465  18.084   3.390  0.00  0.00     0.024 A 
HETATM   15  C   UNK N   1      25.766  19.431   3.580  0.00  0.00     0.034 A 
HETATM   16 Cl   UNK N   1      24.531  20.642   3.322  0.00  0.00    -0.084 Cl
HETATM   17  C   UNK N   1      27.053  19.809   3.970  0.00  0.00     0.024 A 
HETATM   18  C   UNK N   1      28.042  18.837   4.162  0.00  0.00     0.009 A 
ENDBRANCH   7  12
ENDBRANCH   1   7
BRANCH   4  19
HETATM   19  C   UNK N   1      33.164  17.392   7.993  0.00  0.00     0.008 A 
HETATM   20  C   UNK N   1      33.420  16.624   9.109  0.00  0.00     0.120 A 
HETATM   21  N   UNK N   1      34.492  17.147   9.732  0.00  0.00    -0.311 N 
HETATM   22  N   UNK N   1      34.912  18.209   9.055  0.00  0.00    -0.311 N 
HETATM   23  H   UNK N   1      34.899  16.799  10.558  0.00  0.00     0.186 HD
HETATM   24  C   UNK N   1      34.121  18.387   7.983  0.00  0.00     0.120 A 
ATOM     25  HN  UNK N   1      35.708  18.795   9.308  1.00  0.00     0.186 HD
ENDBRANCH   4  19
TORSDOF 5
ENDMDL
MODEL 4
REMARK VINA RESULT:      -6.6      8.878     12.949
REMARK  5 active torsions:
REMARK  status: ('A' for Active; 'I' for Inactive)
REMARK    1  A    between atoms: N_1  and  C_2 
REMARK    2  A    between atoms: C_2  and  C_3 
REMARK    3  A    between atoms: C_3  and  C_4 
REMARK    4  A    between atoms: C_3  and  C_11 
REMARK    5  A    between atoms: C_14  and  C_17 
ROOT
HETATM    1  C   UNK N   1      32.503  16.786   8.685  0.00  0.00    -0.048 A 
HETATM    2  C   UNK N   1      32.381  15.463   9.146  0.00  0.00     0.009 A 
HETATM    3  C   UNK N   1      33.466  14.810   9.746  0.00  0.00     0.013 A 
HETATM    4  C   UNK N   1      34.687  15.479   9.916  0.00  0.00    -0.023 A 
HETATM    5  C   UNK N   1      34.814  16.793   9.461  0.00  0.00     0.013 A 
HETATM    6  C   UNK N   1      33.737  17.433   8.854  0.00  0.00     0.009 A 
ENDROOT
BRANCH   1   7
HETATM    7  C   UNK N   1      31.277  17.511   8.111  0.00  0.00     0.068 C 
BRANCH   7   8
HETATM    8  C   UNK N   1      30.064  17.415   9.045  0.00  0.00     0.125 C 
BRANCH   8   9
HETATM    9  N   UNK N   1      29.987  18.560   9.940  0.00  0.00    -0.429 N 
HETATM   10  H   UNK N   1      30.806  18.897  10.446  0.00  0.00     0.149 HD
HETATM   11  H   UNK N   1      29.094  19.036  10.064  0.00  0.00     0.149 HD
ENDBRANCH   8   9
ENDBRANCH   7   8
BRANCH   7  12
HETATM   12  C   UNK N   1      30.801  17.115   6.711  0.00  0.00    -0.048 A 
HETATM   13  C   UNK N   1      29.490  16.685   6.441  0.00  0.00     0.009 A 
HETATM   14  C   UNK N   1      29.102  16.321   5.152  0.00  0.00     0.024 A 
HETATM   15  C   UNK N   1      30.020  16.380   4.107  0.00  0.00     0.034 A 
HETATM   16 Cl   UNK N   1      29.537  15.898   2.496  0.00  0.00    -0.084 Cl
HETATM   17  C   UNK N   1      31.325  16.818   4.349  0.00  0.00     0.024 A 
HETATM   18  C   UNK N   1      31.711  17.190   5.642  0.00  0.00     0.009 A 
ENDBRANCH   7  12
ENDBRANCH   1   7
BRANCH   4  19
HETATM   19  C   UNK N   1      35.819  14.831  10.594  0.00  0.00     0.008 A 
HETATM   20  C   UNK N   1      37.018  14.446  10.034  0.00  0.00     0.120 A 
HETATM   21  N   UNK N   1      37.758  13.871  11.001  0.00  0.00    -0.311 N 
HETATM   22  N   UNK N   1      37.070  13.879  12.136  0.00  0.00    -0.311 N 
HETATM   23  H   UNK N   1      38.664  13.504  10.885  0.00  0.00     0.186 HD
HETATM   24  C   UNK N   1      35.877  14.461  11.922  0.00  0.00     0.120 A 
ATOM     25  HN  UNK N   1      37.396  13.504  13.027  1.00  0.00     0.186 HD
ENDBRANCH   4  19
TORSDOF 5
ENDMDL
MODEL 5
REMARK VINA RESULT:      -6.5      4.694      9.122
REMARK  5 active torsions:
REMARK  status: ('A' for Active; 'I' for Inactive)
REMARK    1  A    between atoms: N_1  and  C_2 
REMARK    2  A    between atoms: C_2  and  C_3 
REMARK    3  A    between atoms: C_3  and  C_4 
REMARK    4  A    between atoms: C_3  and  C_11 
REMARK    5  A    between atoms: C_14  and  C_17 
ROOT
HETATM    1  C   UNK N   1      35.728  13.103  13.263  0.00  0.00    -0.048 A 
HETATM    2  C   UNK N   1      36.557  13.853  14.115  0.00  0.00     0.009 A 
HETATM    3  C   UNK N   1      36.419  13.770  15.507  0.00  0.00     0.013 A 
HETATM    4  C   UNK N   1      35.460  12.915  16.070  0.00  0.00    -0.023 A 
HETATM    5  C   UNK N   1      34.634  12.167  15.230  0.00  0.00     0.013 A 
HETATM    6  C   UNK N   1      34.767  12.263  13.848  0.00  0.00     0.009 A 
ENDROOT
BRANCH   1   7
HETATM    7  C   UNK N   1      35.956  13.144  11.744  0.00  0.00     0.068 C 
BRANCH   7   8
HETATM    8  C   UNK N   1      37.443  13.030  11.385  0.00  0.00     0.125 C 
BRANCH   8   9
HETATM    9  N   UNK N   1      37.652  12.142  10.251  0.00  0.00    -0.429 N 
HETATM   10  H   UNK N   1      36.869  11.720   9.753  0.00  0.00     0.149 HD
HETATM   11  H   UNK N   1      38.604  11.937   9.948  0.00  0.00     0.149 HD
ENDBRANCH   8   9
ENDBRANCH   7   8
BRANCH   7  12
HETATM   12  C   UNK N   1      35.393  14.336  10.967  0.00  0.00    -0.048 A 
HETATM   13  C   UNK N   1      35.895  15.642  11.100  0.00  0.00     0.009 A 
HETATM   14  C   UNK N   1      35.344  16.704  10.382  0.00  0.00     0.024 A 
HETATM   15  C   UNK N   1      34.277  16.476   9.516  0.00  0.00     0.034 A 
HETATM   16 Cl   UNK N   1      33.571  17.814   8.637  0.00  0.00    -0.084 Cl
HETATM   17  C   UNK N   1      33.770  15.184   9.358  0.00  0.00     0.024 A 
HETATM   18  C   UNK N   1      34.330  14.119  10.073  0.00  0.00     0.009 A 
ENDBRANCH   7  12
ENDBRANCH   1   7
BRANCH   4  19
HETATM   19  C   UNK N   1      35.337  12.770  17.529  0.00  0.00     0.008 A 
HETATM   20  C   UNK N   1      35.326  11.598  18.254  0.00  0.00     0.120 A 
HETATM   21  N   UNK N   1      35.171  11.918  19.552  0.00  0.00    -0.311 N 
HETATM   22  N   UNK N   1      35.081  13.237  19.666  0.00  0.00    -0.311 N 
HETATM   23  H   UNK N   1      35.130  11.277  20.297  0.00  0.00     0.186 HD
HETATM   24  C   UNK N   1      35.180  13.791  18.445  0.00  0.00     0.120 A 
ATOM     25  HN  UNK N   1      34.958  13.749  20.540  1.00  0.00     0.186 HD
ENDBRANCH   4  19
TORSDOF 5
ENDMDL
MODEL 6
REMARK VINA RESULT:      -6.5     15.128     18.689
REMARK  5 active torsions:
REMARK  status: ('A' for Active; 'I' for Inactive)
REMARK    1  A    between atoms: N_1  and  C_2 
REMARK    2  A    between atoms: C_2  and  C_3 
REMARK    3  A    between atoms: C_3  and  C_4 
REMARK    4  A    between atoms: C_3  and  C_11 
REMARK    5  A    between atoms: C_14  and  C_17 
ROOT
HETATM    1  C   UNK N   1      26.244  18.885   4.082  0.00  0.00    -0.048 A 
HETATM    2  C   UNK N   1      25.196  18.055   4.522  0.00  0.00     0.009 A 
HETATM    3  C   UNK N   1      23.863  18.363   4.220  0.00  0.00     0.013 A 
HETATM    4  C   UNK N   1      23.557  19.496   3.451  0.00  0.00    -0.023 A 
HETATM    5  C   UNK N   1      24.592  20.322   3.011  0.00  0.00     0.013 A 
HETATM    6  C   UNK N   1      25.914  20.019   3.325  0.00  0.00     0.009 A 
ENDROOT
BRANCH   1   7
HETATM    7  C   UNK N   1      27.701  18.481   4.351  0.00  0.00     0.068 C 
BRANCH   7   8
HETATM    8  C   UNK N   1      28.025  17.092   3.784  0.00  0.00     0.125 C 
BRANCH   8   9
HETATM    9  N   UNK N   1      29.237  17.114   2.978  0.00  0.00    -0.429 N 
HETATM   10  H   UNK N   1      29.498  16.324   2.388  0.00  0.00     0.149 HD
HETATM   11  H   UNK N   1      29.838  17.937   3.003  0.00  0.00     0.149 HD
ENDBRANCH   8   9
ENDBRANCH   7   8
BRANCH   7  12
HETATM   12  C   UNK N   1      28.196  18.505   5.798  0.00  0.00    -0.048 A 
HETATM   13  C   UNK N   1      27.774  19.464   6.735  0.00  0.00     0.009 A 
HETATM   14  C   UNK N   1      28.260  19.459   8.043  0.00  0.00     0.024 A 
HETATM   15  C   UNK N   1      29.180  18.490   8.437  0.00  0.00     0.034 A 
HETATM   16 Cl   UNK N   1      29.807  18.501  10.070  0.00  0.00    -0.084 Cl
HETATM   17  C   UNK N   1      29.603  17.518   7.527  0.00  0.00     0.024 A 
HETATM   18  C   UNK N   1      29.108  17.521   6.218  0.00  0.00     0.009 A 
ENDBRANCH   7  12
ENDBRANCH   1   7
BRANCH   4  19
HETATM   19  C   UNK N   1      22.169  19.805   3.076  0.00  0.00     0.008 A 
HETATM   20  C   UNK N   1      21.742  20.555   2.001  0.00  0.00     0.120 A 
HETATM   21  N   UNK N   1      20.398  20.607   2.043  0.00  0.00    -0.311 N 
HETATM   22  N   UNK N   1      19.970  19.925   3.098  0.00  0.00    -0.311 N 
HETATM   23  H   UNK N   1      19.824  21.075   1.395  0.00  0.00     0.186 HD
HETATM   24  C   UNK N   1      21.030  19.420   3.753  0.00  0.00     0.120 A 
ATOM     25  HN  UNK N   1      18.994  19.804   3.369  1.00  0.00     0.186 HD
ENDBRANCH   4  19
TORSDOF 5
ENDMDL
MODEL 7
REMARK VINA RESULT:      -6.5     17.224     19.478
REMARK  5 active torsions:
REMARK  status: ('A' for Active; 'I' for Inactive)
REMARK    1  A    between atoms: N_1  and  C_2 
REMARK    2  A    between atoms: C_2  and  C_3 
REMARK    3  A    between atoms: C_3  and  C_4 
REMARK    4  A    between atoms: C_3  and  C_11 
REMARK    5  A    between atoms: C_14  and  C_17 
ROOT
HETATM    1  C   UNK N   1      20.173  16.303   6.435  0.00  0.00    -0.048 A 
HETATM    2  C   UNK N   1      20.985  17.418   6.159  0.00  0.00     0.009 A 
HETATM    3  C   UNK N   1      21.058  17.949   4.864  0.00  0.00     0.013 A 
HETATM    4  C   UNK N   1      20.301  17.385   3.826  0.00  0.00    -0.023 A 
HETATM    5  C   UNK N   1      19.492  16.280   4.094  0.00  0.00     0.013 A 
HETATM    6  C   UNK N   1      19.433  15.748   5.379  0.00  0.00     0.009 A 
ENDROOT
BRANCH   1   7
HETATM    7  C   UNK N   1      20.041  15.793   7.878  0.00  0.00     0.068 C 
BRANCH   7   8
HETATM    8  C   UNK N   1      19.935  16.945   8.885  0.00  0.00     0.125 C 
BRANCH   8   9
HETATM    9  N   UNK N   1      18.567  17.424   9.008  0.00  0.00    -0.429 N 
HETATM   10  H   UNK N   1      17.963  17.122   9.772  0.00  0.00     0.149 HD
HETATM   11  H   UNK N   1      18.204  18.078   8.315  0.00  0.00     0.149 HD
ENDBRANCH   8   9
ENDBRANCH   7   8
BRANCH   7  12
HETATM   12  C   UNK N   1      21.112  14.832   8.398  0.00  0.00    -0.048 A 
HETATM   13  C   UNK N   1      22.267  14.504   7.667  0.00  0.00     0.009 A 
HETATM   14  C   UNK N   1      23.213  13.614   8.173  0.00  0.00     0.024 A 
HETATM   15  C   UNK N   1      23.020  13.033   9.425  0.00  0.00     0.034 A 
HETATM   16 Cl   UNK N   1      24.195  11.896  10.045  0.00  0.00    -0.084 Cl
HETATM   17  C   UNK N   1      21.886  13.355  10.176  0.00  0.00     0.024 A 
HETATM   18  C   UNK N   1      20.942  14.255   9.669  0.00  0.00     0.009 A 
ENDBRANCH   7  12
ENDBRANCH   1   7
BRANCH   4  19
HETATM   19  C   UNK N   1      20.320  17.963   2.474  0.00  0.00     0.008 A 
HETATM   20  C   UNK N   1      20.522  19.282   2.132  0.00  0.00     0.120 A 
HETATM   21  N   UNK N   1      20.436  19.379   0.792  0.00  0.00    -0.311 N 
HETATM   22  N   UNK N   1      20.186  18.178   0.286  0.00  0.00    -0.311 N 
HETATM   23  H   UNK N   1      20.541  20.207   0.272  0.00  0.00     0.186 HD
HETATM   24  C   UNK N   1      20.110  17.286   1.290  0.00  0.00     0.120 A 
ATOM     25  HN  UNK N   1      20.071  17.966  -0.705  1.00  0.00     0.186 HD
ENDBRANCH   4  19
TORSDOF 5
ENDMDL
MODEL 8
REMARK VINA RESULT:      -6.5     16.441     19.504
REMARK  5 active torsions:
REMARK  status: ('A' for Active; 'I' for Inactive)
REMARK    1  A    between atoms: N_1  and  C_2 
REMARK    2  A    between atoms: C_2  and  C_3 
REMARK    3  A    between atoms: C_3  and  C_4 
REMARK    4  A    between atoms: C_3  and  C_11 
REMARK    5  A    between atoms: C_14  and  C_17 
ROOT
HETATM    1  C   UNK N   1      20.868  15.778   6.862  0.00  0.00    -0.048 A 
HETATM    2  C   UNK N   1      21.538  14.566   6.614  0.00  0.00     0.009 A 
HETATM    3  C   UNK N   1      21.829  13.680   7.660  0.00  0.00     0.013 A 
HETATM    4  C   UNK N   1      21.434  13.984   8.971  0.00  0.00    -0.023 A 
HETATM    5  C   UNK N   1      20.768  15.184   9.224  0.00  0.00     0.013 A 
HETATM    6  C   UNK N   1      20.493  16.066   8.183  0.00  0.00     0.009 A 
ENDROOT
BRANCH   1   7
HETATM    7  C   UNK N   1      20.482  16.691   5.688  0.00  0.00     0.068 C 
BRANCH   7   8
HETATM    8  C   UNK N   1      19.812  15.909   4.550  0.00  0.00     0.125 C 
BRANCH   8   9
HETATM    9  N   UNK N   1      18.426  15.595   4.861  0.00  0.00    -0.429 N 
HETATM   10  H   UNK N   1      18.086  14.633   4.866  0.00  0.00     0.149 HD
HETATM   11  H   UNK N   1      17.780  16.353   5.080  0.00  0.00     0.149 HD
ENDBRANCH   8   9
ENDBRANCH   7   8
BRANCH   7  12
HETATM   12  C   UNK N   1      21.579  17.553   5.061  0.00  0.00    -0.048 A 
HETATM   13  C   UNK N   1      22.927  17.481   5.453  0.00  0.00     0.009 A 
HETATM   14  C   UNK N   1      23.895  18.295   4.864  0.00  0.00     0.024 A 
HETATM   15  C   UNK N   1      23.530  19.198   3.868  0.00  0.00     0.034 A 
HETATM   16 Cl   UNK N   1      24.741  20.235   3.150  0.00  0.00    -0.084 Cl
HETATM   17  C   UNK N   1      22.198  19.277   3.452  0.00  0.00     0.024 A 
HETATM   18  C   UNK N   1      21.230  18.454   4.040  0.00  0.00     0.009 A 
ENDBRANCH   7  12
ENDBRANCH   1   7
BRANCH   4  19
HETATM   19  C   UNK N   1      21.680  13.042  10.074  0.00  0.00     0.008 A 
HETATM   20  C   UNK N   1      22.875  12.442  10.409  0.00  0.00     0.120 A 
HETATM   21  N   UNK N   1      22.650  11.637  11.464  0.00  0.00    -0.311 N 
HETATM   22  N   UNK N   1      21.367  11.709  11.799  0.00  0.00    -0.311 N 
HETATM   23  H   UNK N   1      23.328  11.085  11.916  0.00  0.00     0.186 HD
HETATM   24  C   UNK N   1      20.744  12.561  10.967  0.00  0.00     0.120 A 
ATOM     25  HN  UNK N   1      20.926  11.198  12.564  1.00  0.00     0.186 HD
ENDBRANCH   4  19
TORSDOF 5
ENDMDL
MODEL 9
REMARK VINA RESULT:      -6.4      8.228     11.377
REMARK  5 active torsions:
REMARK  status: ('A' for Active; 'I' for Inactive)
REMARK    1  A    between atoms: N_1  and  C_2 
REMARK    2  A    between atoms: C_2  and  C_3 
REMARK    3  A    between atoms: C_3  and  C_4 
REMARK    4  A    between atoms: C_3  and  C_11 
REMARK    5  A    between atoms: C_14  and  C_17 
ROOT
HETATM    1  C   UNK N   1      33.777  16.169   8.583  0.00  0.00    -0.048 A 
HETATM    2  C   UNK N   1      33.559  17.551   8.436  0.00  0.00     0.009 A 
HETATM    3  C   UNK N   1      32.259  18.069   8.366  0.00  0.00     0.013 A 
HETATM    4  C   UNK N   1      31.152  17.213   8.464  0.00  0.00    -0.023 A 
HETATM    5  C   UNK N   1      31.361  15.840   8.610  0.00  0.00     0.013 A 
HETATM    6  C   UNK N   1      32.655  15.330   8.666  0.00  0.00     0.009 A 
ENDROOT
BRANCH   1   7
HETATM    7  C   UNK N   1      35.207  15.634   8.746  0.00  0.00     0.068 C 
BRANCH   7   8
HETATM    8  C   UNK N   1      35.562  14.608   7.662  0.00  0.00     0.125 C 
BRANCH   8   9
HETATM    9  N   UNK N   1      35.523  15.198   6.333  0.00  0.00    -0.429 N 
HETATM   10  H   UNK N   1      36.160  14.895   5.596  0.00  0.00     0.149 HD
HETATM   11  H   UNK N   1      34.844  15.932   6.133  0.00  0.00     0.149 HD
ENDBRANCH   8   9
ENDBRANCH   7   8
BRANCH   7  12
HETATM   12  C   UNK N   1      35.594  15.022  10.093  0.00  0.00    -0.048 A 
HETATM   13  C   UNK N   1      35.989  13.681  10.240  0.00  0.00     0.009 A 
HETATM   14  C   UNK N   1      36.321  13.159  11.490  0.00  0.00     0.024 A 
HETATM   15  C   UNK N   1      36.265  13.972  12.619  0.00  0.00     0.034 A 
HETATM   16 Cl   UNK N   1      36.657  13.307  14.189  0.00  0.00    -0.084 Cl
HETATM   17  C   UNK N   1      35.889  15.312  12.496  0.00  0.00     0.024 A 
HETATM   18  C   UNK N   1      35.563  15.836  11.239  0.00  0.00     0.009 A 
ENDBRANCH   7  12
ENDBRANCH   1   7
BRANCH   4  19
HETATM   19  C   UNK N   1      29.780  17.743   8.449  0.00  0.00     0.008 A 
HETATM   20  C   UNK N   1      28.936  17.844   7.364  0.00  0.00     0.120 A 
HETATM   21  N   UNK N   1      27.788  18.405   7.787  0.00  0.00    -0.311 N 
HETATM   22  N   UNK N   1      27.882  18.660   9.086  0.00  0.00    -0.311 N 
HETATM   23  H   UNK N   1      27.004  18.596   7.223  0.00  0.00     0.186 HD
HETATM   24  C   UNK N   1      29.091  18.266   9.524  0.00  0.00     0.120 A 
ATOM     25  HN  UNK N   1      27.155  19.087   9.660  1.00  0.00     0.186 HD
ENDBRANCH   4  19
TORSDOF 5
ENDMDL
