MODEL 1
REMARK VINA RESULT:      -7.1      0.000      0.000
REMARK  3 active torsions:
REMARK  status: ('A' for Active; 'I' for Inactive)
REMARK    1  A    between atoms: C_5  and  C_8 
REMARK    2  A    between atoms: C_8  and  C_14 
REMARK    3  A    between atoms: C_17  and  C_20 
ROOT
HETATM    1  C   UNK N   1      27.169  24.663  -5.730  0.00  0.00     0.017 C 
HETATM    2  C   UNK N   1      25.916  23.843  -5.338  0.00  0.00     0.038 C 
HETATM    3  C   UNK N   1      25.536  22.850  -6.437  0.00  0.00     0.115 C 
HETATM    4  N   UNK N   1      25.146  23.541  -7.679  0.00  0.00    -0.421 N 
HETATM    5  C   UNK N   1      25.822  24.837  -7.878  0.00  0.00     0.115 C 
HETATM    6  C   UNK N   1      27.226  24.847  -7.266  0.00  0.00     0.038 C 
HETATM    7  H   UNK N   1      24.472  23.158  -8.340  0.00  0.00     0.153 HD
ENDROOT
BRANCH   1   8
HETATM    8  C   UNK N   1      27.156  25.994  -4.982  0.00  0.00    -0.045 A 
HETATM    9  C   UNK N   1      27.967  27.048  -5.443  0.00  0.00     0.010 A 
HETATM   10  C   UNK N   1      27.747  28.356  -5.010  0.00  0.00     0.024 A 
HETATM   11  C   UNK N   1      26.701  28.630  -4.127  0.00  0.00     0.034 A 
HETATM   12 Cl   UNK N   1      26.342  30.286  -3.692  0.00  0.00    -0.084 Cl
HETATM   13  C   UNK N   1      25.911  27.591  -3.631  0.00  0.00     0.024 A 
HETATM   14  C   UNK N   1      26.135  26.279  -4.056  0.00  0.00     0.010 A 
ENDBRANCH   1   8
BRANCH   1  15
HETATM   15  C   UNK N   1      28.475  24.012  -5.276  0.00  0.00    -0.045 A 
HETATM   16  C   UNK N   1      28.621  23.694  -3.909  0.00  0.00     0.009 A 
HETATM   17  C   UNK N   1      29.655  22.879  -3.472  0.00  0.00     0.013 A 
HETATM   18  C   UNK N   1      30.599  22.398  -4.379  0.00  0.00    -0.023 A 
HETATM   19  C   UNK N   1      30.518  22.774  -5.730  0.00  0.00     0.013 A 
HETATM   20  C   UNK N   1      29.447  23.557  -6.181  0.00  0.00     0.009 A 
BRANCH  18  21
HETATM   21  C   UNK N   1      31.621  21.444  -3.917  0.00  0.00     0.008 A 
HETATM   22  C   UNK N   1      31.935  20.239  -4.510  0.00  0.00     0.120 A 
HETATM   23  N   UNK N   1      32.958  19.700  -3.817  0.00  0.00    -0.311 N 
HETATM   24  N   UNK N   1      33.286  20.512  -2.828  0.00  0.00    -0.311 N 
HETATM   25  H   UNK N   1      33.391  18.838  -4.017  0.00  0.00     0.186 HD
HETATM   26  C   UNK N   1      32.490  21.600  -2.862  0.00  0.00     0.120 A 
ATOM     27  HN  UNK N   1      34.024  20.342  -2.146  1.00  0.00     0.186 HD
ENDBRANCH  18  21
ENDBRANCH   1  15
TORSDOF 3
ENDMDL
MODEL 2
REMARK VINA RESULT:      -7.1     18.827     22.645
REMARK  3 active torsions:
REMARK  status: ('A' for Active; 'I' for Inactive)
REMARK    1  A    between atoms: C_5  and  C_8 
REMARK    2  A    between atoms: C_8  and  C_14 
REMARK    3  A    between atoms: C_17  and  C_20 
ROOT
HETATM    1  C   UNK N   1      35.938  13.142  11.711  0.00  0.00     0.017 C 
HETATM    2  C   UNK N   1      35.303  11.885  11.068  0.00  0.00     0.038 C 
HETATM    3  C   UNK N   1      36.269  10.700  11.094  0.00  0.00     0.115 C 
HETATM    4  N   UNK N   1      37.469  10.961  10.280  0.00  0.00    -0.421 N 
HETATM    5  C   UNK N   1      37.846  12.385  10.214  0.00  0.00     0.115 C 
HETATM    6  C   UNK N   1      37.470  13.134  11.497  0.00  0.00     0.038 C 
HETATM    7  H   UNK N   1      37.990  10.225   9.805  0.00  0.00     0.153 HD
ENDROOT
BRANCH   1   8
HETATM    8  C   UNK N   1      35.273  14.392  11.139  0.00  0.00    -0.045 A 
HETATM    9  C   UNK N   1      35.934  15.631  11.250  0.00  0.00     0.010 A 
HETATM   10  C   UNK N   1      35.539  16.718  10.469  0.00  0.00     0.024 A 
HETATM   11  C   UNK N   1      34.494  16.576   9.555  0.00  0.00     0.034 A 
HETATM   12 Cl   UNK N   1      34.090  17.898   8.483  0.00  0.00    -0.084 Cl
HETATM   13  C   UNK N   1      33.803  15.365   9.461  0.00  0.00     0.024 A 
HETATM   14  C   UNK N   1      34.191  14.277  10.247  0.00  0.00     0.010 A 
ENDBRANCH   1   8
BRANCH   1  15
HETATM   15  C   UNK N   1      35.664  13.247  13.211  0.00  0.00    -0.045 A 
HETATM   16  C   UNK N   1      34.653  12.432  13.762  0.00  0.00     0.009 A 
HETATM   17  C   UNK N   1      34.525  12.285  15.136  0.00  0.00     0.013 A 
HETATM   18  C   UNK N   1      35.370  12.983  15.997  0.00  0.00    -0.023 A 
HETATM   19  C   UNK N   1      36.326  13.865  15.468  0.00  0.00     0.013 A 
HETATM   20  C   UNK N   1      36.489  13.978  14.080  0.00  0.00     0.009 A 
BRANCH  18  21
HETATM   21  C   UNK N   1      35.293  12.728  17.445  0.00  0.00     0.008 A 
HETATM   22  C   UNK N   1      35.371  11.494  18.058  0.00  0.00     0.120 A 
HETATM   23  N   UNK N   1      35.317  11.698  19.389  0.00  0.00    -0.311 N 
HETATM   24  N   UNK N   1      35.209  12.993  19.625  0.00  0.00    -0.311 N 
HETATM   25  H   UNK N   1      35.353  10.992  20.076  0.00  0.00     0.186 HD
HETATM   26  C   UNK N   1      35.200  13.660  18.453  0.00  0.00     0.120 A 
ATOM     27  HN  UNK N   1      35.143  13.420  20.548  1.00  0.00     0.186 HD
ENDBRANCH  18  21
ENDBRANCH   1  15
TORSDOF 3
ENDMDL
MODEL 3
REMARK VINA RESULT:      -7.1     10.793     12.982
REMARK  3 active torsions:
REMARK  status: ('A' for Active; 'I' for Inactive)
REMARK    1  A    between atoms: C_5  and  C_8 
REMARK    2  A    between atoms: C_8  and  C_14 
REMARK    3  A    between atoms: C_17  and  C_20 
ROOT
HETATM    1  C   UNK N   1      28.813  16.269   4.274  0.00  0.00     0.017 C 
HETATM    2  C   UNK N   1      28.199  14.940   4.776  0.00  0.00     0.038 C 
HETATM    3  C   UNK N   1      28.934  13.733   4.192  0.00  0.00     0.115 C 
HETATM    4  N   UNK N   1      28.794  13.670   2.726  0.00  0.00    -0.421 N 
HETATM    5  C   UNK N   1      28.648  14.990   2.084  0.00  0.00     0.115 C 
HETATM    6  C   UNK N   1      29.398  16.083   2.853  0.00  0.00     0.038 C 
HETATM    7  H   UNK N   1      28.796  12.795   2.204  0.00  0.00     0.153 HD
ENDROOT
BRANCH   1   8
HETATM    8  C   UNK N   1      27.755  17.368   4.332  0.00  0.00    -0.045 A 
HETATM    9  C   UNK N   1      28.145  18.707   4.138  0.00  0.00     0.010 A 
HETATM   10  C   UNK N   1      27.196  19.689   3.854  0.00  0.00     0.024 A 
HETATM   11  C   UNK N   1      25.849  19.344   3.739  0.00  0.00     0.034 A 
HETATM   12 Cl   UNK N   1      24.679  20.549   3.250  0.00  0.00    -0.084 Cl
HETATM   13  C   UNK N   1      25.440  18.027   3.966  0.00  0.00     0.024 A 
HETATM   14  C   UNK N   1      26.388  17.042   4.259  0.00  0.00     0.010 A 
ENDBRANCH   1   8
BRANCH   1  15
HETATM   15  C   UNK N   1      29.922  16.794   5.184  0.00  0.00    -0.045 A 
HETATM   16  C   UNK N   1      29.681  16.836   6.573  0.00  0.00     0.009 A 
HETATM   17  C   UNK N   1      30.716  17.052   7.471  0.00  0.00     0.013 A 
HETATM   18  C   UNK N   1      32.011  17.282   7.007  0.00  0.00    -0.023 A 
HETATM   19  C   UNK N   1      32.254  17.328   5.624  0.00  0.00     0.013 A 
HETATM   20  C   UNK N   1      31.219  17.062   4.717  0.00  0.00     0.009 A 
BRANCH  18  21
HETATM   21  C   UNK N   1      33.113  17.397   7.976  0.00  0.00     0.008 A 
HETATM   22  C   UNK N   1      34.110  18.350   7.962  0.00  0.00     0.120 A 
HETATM   23  N   UNK N   1      34.884  18.143   9.046  0.00  0.00    -0.311 N 
HETATM   24  N   UNK N   1      34.415  17.111   9.724  0.00  0.00    -0.311 N 
HETATM   25  H   UNK N   1      35.674  18.678   9.294  0.00  0.00     0.186 HD
HETATM   26  C   UNK N   1      33.320  16.630   9.099  0.00  0.00     0.120 A 
ATOM     27  HN  UNK N   1      34.817  16.737  10.582  1.00  0.00     0.186 HD
ENDBRANCH  18  21
ENDBRANCH   1  15
TORSDOF 3
ENDMDL
MODEL 4
REMARK VINA RESULT:      -7.0     13.398     16.668
REMARK  3 active torsions:
REMARK  status: ('A' for Active; 'I' for Inactive)
REMARK    1  A    between atoms: C_5  and  C_8 
REMARK    2  A    between atoms: C_8  and  C_14 
REMARK    3  A    between atoms: C_17  and  C_20 
ROOT
HETATM    1  C   UNK N   1      32.633  16.359   7.037  0.00  0.00     0.017 C 
HETATM    2  C   UNK N   1      32.401  15.132   6.121  0.00  0.00     0.038 C 
HETATM    3  C   UNK N   1      33.558  14.944   5.141  0.00  0.00     0.115 C 
HETATM    4  N   UNK N   1      33.669  16.080   4.208  0.00  0.00    -0.421 N 
HETATM    5  C   UNK N   1      33.215  17.363   4.776  0.00  0.00     0.115 C 
HETATM    6  C   UNK N   1      33.455  17.434   6.287  0.00  0.00     0.038 C 
HETATM    7  H   UNK N   1      34.027  15.987   3.259  0.00  0.00     0.153 HD
ENDROOT
BRANCH   1   8
HETATM    8  C   UNK N   1      31.286  16.887   7.525  0.00  0.00    -0.045 A 
HETATM    9  C   UNK N   1      31.260  17.872   8.530  0.00  0.00     0.010 A 
HETATM   10  C   UNK N   1      30.101  18.612   8.769  0.00  0.00     0.024 A 
HETATM   11  C   UNK N   1      28.962  18.391   7.995  0.00  0.00     0.034 A 
HETATM   12 Cl   UNK N   1      27.556  19.411   8.204  0.00  0.00    -0.084 Cl
HETATM   13  C   UNK N   1      28.959  17.391   7.019  0.00  0.00     0.024 A 
HETATM   14  C   UNK N   1      30.116  16.643   6.783  0.00  0.00     0.010 A 
ENDBRANCH   1   8
BRANCH   1  15
HETATM   15  C   UNK N   1      33.368  16.007   8.329  0.00  0.00    -0.045 A 
HETATM   16  C   UNK N   1      33.041  14.795   8.973  0.00  0.00     0.009 A 
HETATM   17  C   UNK N   1      33.836  14.291   9.992  0.00  0.00     0.013 A 
HETATM   18  C   UNK N   1      34.950  15.007  10.430  0.00  0.00    -0.023 A 
HETATM   19  C   UNK N   1      35.241  16.256   9.859  0.00  0.00     0.013 A 
HETATM   20  C   UNK N   1      34.468  16.743   8.796  0.00  0.00     0.009 A 
BRANCH  18  21
HETATM   21  C   UNK N   1      35.844  14.404  11.434  0.00  0.00     0.008 A 
HETATM   22  C   UNK N   1      36.842  13.485  11.185  0.00  0.00     0.120 A 
HETATM   23  N   UNK N   1      37.461  13.232  12.355  0.00  0.00    -0.311 N 
HETATM   24  N   UNK N   1      36.894  13.947  13.309  0.00  0.00    -0.311 N 
HETATM   25  H   UNK N   1      38.217  12.612  12.478  0.00  0.00     0.186 HD
HETATM   26  C   UNK N   1      35.899  14.687  12.778  0.00  0.00     0.120 A 
ATOM     27  HN  UNK N   1      37.165  13.939  14.292  1.00  0.00     0.186 HD
ENDBRANCH  18  21
ENDBRANCH   1  15
TORSDOF 3
ENDMDL
MODEL 5
REMARK VINA RESULT:      -7.0     24.651     28.620
REMARK  3 active torsions:
REMARK  status: ('A' for Active; 'I' for Inactive)
REMARK    1  A    between atoms: C_5  and  C_8 
REMARK    2  A    between atoms: C_8  and  C_14 
REMARK    3  A    between atoms: C_17  and  C_20 
ROOT
HETATM    1  C   UNK N   1      35.802   9.540  19.501  0.00  0.00     0.017 C 
HETATM    2  C   UNK N   1      36.064  10.312  20.817  0.00  0.00     0.038 C 
HETATM    3  C   UNK N   1      37.561  10.421  21.108  0.00  0.00     0.115 C 
HETATM    4  N   UNK N   1      38.167   9.097  21.334  0.00  0.00    -0.421 N 
HETATM    5  C   UNK N   1      37.505   8.005  20.596  0.00  0.00     0.115 C 
HETATM    6  C   UNK N   1      36.915   8.491  19.268  0.00  0.00     0.038 C 
HETATM    7  H   UNK N   1      38.969   8.949  21.944  0.00  0.00     0.153 HD
ENDROOT
BRANCH   1   8
HETATM    8  C   UNK N   1      34.409   8.916  19.550  0.00  0.00    -0.045 A 
HETATM    9  C   UNK N   1      34.216   7.628  19.015  0.00  0.00     0.010 A 
HETATM   10  C   UNK N   1      33.072   6.894  19.328  0.00  0.00     0.024 A 
HETATM   11  C   UNK N   1      32.116   7.428  20.194  0.00  0.00     0.034 A 
HETATM   12 Cl   UNK N   1      30.751   6.453  20.691  0.00  0.00    -0.084 Cl
HETATM   13  C   UNK N   1      32.275   8.720  20.703  0.00  0.00     0.024 A 
HETATM   14  C   UNK N   1      33.416   9.460  20.385  0.00  0.00     0.010 A 
ENDBRANCH   1   8
BRANCH   1  15
HETATM   15  C   UNK N   1      35.740  10.453  18.277  0.00  0.00    -0.045 A 
HETATM   16  C   UNK N   1      35.230  11.758  18.443  0.00  0.00     0.009 A 
HETATM   17  C   UNK N   1      35.381  12.715  17.451  0.00  0.00     0.013 A 
HETATM   18  C   UNK N   1      36.002  12.384  16.246  0.00  0.00    -0.023 A 
HETATM   19  C   UNK N   1      36.439  11.068  16.030  0.00  0.00     0.013 A 
HETATM   20  C   UNK N   1      36.331  10.112  17.050  0.00  0.00     0.009 A 
BRANCH  18  21
HETATM   21  C   UNK N   1      36.253  13.441  15.252  0.00  0.00     0.008 A 
HETATM   22  C   UNK N   1      36.993  14.587  15.455  0.00  0.00     0.120 A 
HETATM   23  N   UNK N   1      37.029  15.258  14.286  0.00  0.00    -0.311 N 
HETATM   24  N   UNK N   1      36.348  14.584  13.378  0.00  0.00    -0.311 N 
HETATM   25  H   UNK N   1      37.491  16.115  14.134  0.00  0.00     0.186 HD
HETATM   26  C   UNK N   1      35.862  13.455  13.933  0.00  0.00     0.120 A 
ATOM     27  HN  UNK N   1      36.211  14.872  12.410  1.00  0.00     0.186 HD
ENDBRANCH  18  21
ENDBRANCH   1  15
TORSDOF 3
ENDMDL
MODEL 6
REMARK VINA RESULT:      -7.0     24.783     28.694
REMARK  3 active torsions:
REMARK  status: ('A' for Active; 'I' for Inactive)
REMARK    1  A    between atoms: C_5  and  C_8 
REMARK    2  A    between atoms: C_8  and  C_14 
REMARK    3  A    between atoms: C_17  and  C_20 
ROOT
HETATM    1  C   UNK N   1      35.086   9.908  19.624  0.00  0.00     0.017 C 
HETATM    2  C   UNK N   1      34.383   8.563  19.318  0.00  0.00     0.038 C 
HETATM    3  C   UNK N   1      32.883   8.644  19.598  0.00  0.00     0.115 C 
HETATM    4  N   UNK N   1      32.611   8.881  21.028  0.00  0.00    -0.421 N 
HETATM    5  C   UNK N   1      33.664   9.651  21.715  0.00  0.00     0.115 C 
HETATM    6  C   UNK N   1      34.352  10.643  20.771  0.00  0.00     0.038 C 
HETATM    7  H   UNK N   1      31.773   8.543  21.498  0.00  0.00     0.153 HD
ENDROOT
BRANCH   1   8
HETATM    8  C   UNK N   1      36.557   9.647  19.943  0.00  0.00    -0.045 A 
HETATM    9  C   UNK N   1      37.179  10.391  20.964  0.00  0.00     0.010 A 
HETATM   10  C   UNK N   1      38.393   9.971  21.509  0.00  0.00     0.024 A 
HETATM   11  C   UNK N   1      38.989   8.793  21.056  0.00  0.00     0.034 A 
HETATM   12 Cl   UNK N   1      40.439   8.197  21.834  0.00  0.00    -0.084 Cl
HETATM   13  C   UNK N   1      38.404   8.064  20.018  0.00  0.00     0.024 A 
HETATM   14  C   UNK N   1      37.193   8.487  19.464  0.00  0.00     0.010 A 
ENDBRANCH   1   8
BRANCH   1  15
HETATM   15  C   UNK N   1      35.143  10.840  18.415  0.00  0.00    -0.045 A 
HETATM   16  C   UNK N   1      35.167  12.231  18.646  0.00  0.00     0.009 A 
HETATM   17  C   UNK N   1      35.474  13.119  17.626  0.00  0.00     0.013 A 
HETATM   18  C   UNK N   1      35.720  12.647  16.337  0.00  0.00    -0.023 A 
HETATM   19  C   UNK N   1      35.617  11.272  16.069  0.00  0.00     0.013 A 
HETATM   20  C   UNK N   1      35.354  10.370  17.109  0.00  0.00     0.009 A 
BRANCH  18  21
HETATM   21  C   UNK N   1      36.155  13.592  15.295  0.00  0.00     0.008 A 
HETATM   22  C   UNK N   1      35.730  13.607  13.982  0.00  0.00     0.120 A 
HETATM   23  N   UNK N   1      36.319  14.658  13.377  0.00  0.00    -0.311 N 
HETATM   24  N   UNK N   1      37.084  15.288  14.250  0.00  0.00    -0.311 N 
HETATM   25  H   UNK N   1      36.197  14.914  12.434  0.00  0.00     0.186 HD
HETATM   26  C   UNK N   1      37.003  14.666  15.444  0.00  0.00     0.120 A 
ATOM     27  HN  UNK N   1      37.648  16.113  14.051  1.00  0.00     0.186 HD
ENDBRANCH  18  21
ENDBRANCH   1  15
TORSDOF 3
ENDMDL
MODEL 7
REMARK VINA RESULT:      -6.9      2.537      3.845
REMARK  3 active torsions:
REMARK  status: ('A' for Active; 'I' for Inactive)
REMARK    1  A    between atoms: C_5  and  C_8 
REMARK    2  A    between atoms: C_8  and  C_14 
REMARK    3  A    between atoms: C_17  and  C_20 
ROOT
HETATM    1  C   UNK N   1      27.651  26.623  -4.529  0.00  0.00     0.017 C 
HETATM    2  C   UNK N   1      28.268  28.042  -4.470  0.00  0.00     0.038 C 
HETATM    3  C   UNK N   1      28.041  28.689  -3.104  0.00  0.00     0.115 C 
HETATM    4  N   UNK N   1      26.607  28.903  -2.837  0.00  0.00    -0.421 N 
HETATM    5  C   UNK N   1      25.727  27.912  -3.483  0.00  0.00     0.115 C 
HETATM    6  C   UNK N   1      26.407  26.545  -3.612  0.00  0.00     0.038 C 
HETATM    7  H   UNK N   1      26.256  29.666  -2.259  0.00  0.00     0.153 HD
ENDROOT
BRANCH   1   8
HETATM    8  C   UNK N   1      27.332  26.271  -5.980  0.00  0.00    -0.045 A 
HETATM    9  C   UNK N   1      26.286  25.370  -6.253  0.00  0.00     0.010 A 
HETATM   10  C   UNK N   1      25.747  25.276  -7.536  0.00  0.00     0.024 A 
HETATM   11  C   UNK N   1      26.232  26.093  -8.558  0.00  0.00     0.034 A 
HETATM   12 Cl   UNK N   1      25.465  26.070 -10.130  0.00  0.00    -0.084 Cl
HETATM   13  C   UNK N   1      27.296  26.965  -8.313  0.00  0.00     0.024 A 
HETATM   14  C   UNK N   1      27.843  27.056  -7.030  0.00  0.00     0.010 A 
ENDBRANCH   1   8
BRANCH   1  15
HETATM   15  C   UNK N   1      28.630  25.530  -4.104  0.00  0.00    -0.045 A 
HETATM   16  C   UNK N   1      28.108  24.362  -3.509  0.00  0.00     0.009 A 
HETATM   17  C   UNK N   1      28.898  23.235  -3.336  0.00  0.00     0.013 A 
HETATM   18  C   UNK N   1      30.242  23.257  -3.707  0.00  0.00    -0.023 A 
HETATM   19  C   UNK N   1      30.800  24.439  -4.222  0.00  0.00     0.013 A 
HETATM   20  C   UNK N   1      29.992  25.562  -4.443  0.00  0.00     0.009 A 
BRANCH  18  21
HETATM   21  C   UNK N   1      31.034  22.019  -3.621  0.00  0.00     0.008 A 
HETATM   22  C   UNK N   1      30.805  20.858  -4.330  0.00  0.00     0.120 A 
HETATM   23  N   UNK N   1      31.782  19.987  -4.009  0.00  0.00    -0.311 N 
HETATM   24  N   UNK N   1      32.598  20.553  -3.137  0.00  0.00    -0.311 N 
HETATM   25  H   UNK N   1      31.873  19.074  -4.367  0.00  0.00     0.186 HD
HETATM   26  C   UNK N   1      32.174  21.807  -2.881  0.00  0.00     0.120 A 
ATOM     27  HN  UNK N   1      33.418  20.111  -2.724  1.00  0.00     0.186 HD
ENDBRANCH  18  21
ENDBRANCH   1  15
TORSDOF 3
ENDMDL
MODEL 8
REMARK VINA RESULT:      -6.6     15.602     16.773
REMARK  3 active torsions:
REMARK  status: ('A' for Active; 'I' for Inactive)
REMARK    1  A    between atoms: C_5  and  C_8 
REMARK    2  A    between atoms: C_8  and  C_14 
REMARK    3  A    between atoms: C_17  and  C_20 
ROOT
HETATM    1  C   UNK N   1      21.462  15.698   5.285  0.00  0.00     0.017 C 
HETATM    2  C   UNK N   1      20.418  16.817   5.049  0.00  0.00     0.038 C 
HETATM    3  C   UNK N   1      19.182  16.280   4.328  0.00  0.00     0.115 C 
HETATM    4  N   UNK N   1      19.511  15.796   2.976  0.00  0.00    -0.421 N 
HETATM    5  C   UNK N   1      20.884  15.273   2.847  0.00  0.00     0.115 C 
HETATM    6  C   UNK N   1      21.378  14.645   4.154  0.00  0.00     0.038 C 
HETATM    7  H   UNK N   1      18.850  15.821   2.200  0.00  0.00     0.153 HD
ENDROOT
BRANCH   1   8
HETATM    8  C   UNK N   1      22.851  16.320   5.405  0.00  0.00    -0.045 A 
HETATM    9  C   UNK N   1      23.979  15.478   5.430  0.00  0.00     0.010 A 
HETATM   10  C   UNK N   1      25.255  15.995   5.205  0.00  0.00     0.024 A 
HETATM   11  C   UNK N   1      25.419  17.353   4.932  0.00  0.00     0.034 A 
HETATM   12 Cl   UNK N   1      27.001  17.973   4.516  0.00  0.00    -0.084 Cl
HETATM   13  C   UNK N   1      24.314  18.209   4.941  0.00  0.00     0.024 A 
HETATM   14  C   UNK N   1      23.036  17.696   5.174  0.00  0.00     0.010 A 
ENDBRANCH   1   8
BRANCH   1  15
HETATM   15  C   UNK N   1      21.276  14.982   6.622  0.00  0.00    -0.045 A 
HETATM   16  C   UNK N   1      21.377  13.575   6.645  0.00  0.00     0.009 A 
HETATM   17  C   UNK N   1      21.476  12.886   7.845  0.00  0.00     0.013 A 
HETATM   18  C   UNK N   1      21.427  13.576   9.056  0.00  0.00    -0.023 A 
HETATM   19  C   UNK N   1      21.241  14.968   9.054  0.00  0.00     0.013 A 
HETATM   20  C   UNK N   1      21.190  15.671   7.842  0.00  0.00     0.009 A 
BRANCH  18  21
HETATM   21  C   UNK N   1      21.647  12.842  10.313  0.00  0.00     0.008 A 
HETATM   22  C   UNK N   1      20.665  12.364  11.156  0.00  0.00     0.120 A 
HETATM   23  N   UNK N   1      21.278  11.704  12.159  0.00  0.00    -0.311 N 
HETATM   24  N   UNK N   1      22.585  11.753  11.975  0.00  0.00    -0.311 N 
HETATM   25  H   UNK N   1      20.823  11.255  12.909  0.00  0.00     0.186 HD
HETATM   26  C   UNK N   1      22.850  12.439  10.844  0.00  0.00     0.120 A 
ATOM     27  HN  UNK N   1      23.283  11.339  12.591  1.00  0.00     0.186 HD
ENDBRANCH  18  21
ENDBRANCH   1  15
TORSDOF 3
ENDMDL
MODEL 9
REMARK VINA RESULT:      -6.6     12.246     13.380
REMARK  3 active torsions:
REMARK  status: ('A' for Active; 'I' for Inactive)
REMARK    1  A    between atoms: C_5  and  C_8 
REMARK    2  A    between atoms: C_8  and  C_14 
REMARK    3  A    between atoms: C_17  and  C_20 
ROOT
HETATM    1  C   UNK N   1      21.326  17.415   3.650  0.00  0.00     0.017 C 
HETATM    2  C   UNK N   1      20.808  16.343   2.660  0.00  0.00     0.038 C 
HETATM    3  C   UNK N   1      20.358  16.975   1.343  0.00  0.00     0.115 C 
HETATM    4  N   UNK N   1      19.208  17.876   1.540  0.00  0.00    -0.421 N 
HETATM    5  C   UNK N   1      19.176  18.521   2.866  0.00  0.00     0.115 C 
HETATM    6  C   UNK N   1      20.586  18.754   3.420  0.00  0.00     0.038 C 
HETATM    7  H   UNK N   1      18.500  18.039   0.826  0.00  0.00     0.153 HD
ENDROOT
BRANCH   1   8
HETATM    8  C   UNK N   1      21.171  16.898   5.079  0.00  0.00    -0.045 A 
HETATM    9  C   UNK N   1      21.138  17.821   6.141  0.00  0.00     0.010 A 
HETATM   10  C   UNK N   1      20.674  17.439   7.400  0.00  0.00     0.024 A 
HETATM   11  C   UNK N   1      20.218  16.137   7.608  0.00  0.00     0.034 A 
HETATM   12 Cl   UNK N   1      19.510  15.697   9.147  0.00  0.00    -0.084 Cl
HETATM   13  C   UNK N   1      20.279  15.198   6.574  0.00  0.00     0.024 A 
HETATM   14  C   UNK N   1      20.751  15.576   5.315  0.00  0.00     0.010 A 
ENDBRANCH   1   8
BRANCH   1  15
HETATM   15  C   UNK N   1      22.827  17.668   3.523  0.00  0.00    -0.045 A 
HETATM   16  C   UNK N   1      23.281  19.003   3.529  0.00  0.00     0.009 A 
HETATM   17  C   UNK N   1      24.629  19.298   3.676  0.00  0.00     0.013 A 
HETATM   18  C   UNK N   1      25.565  18.269   3.773  0.00  0.00    -0.023 A 
HETATM   19  C   UNK N   1      25.140  16.934   3.683  0.00  0.00     0.013 A 
HETATM   20  C   UNK N   1      23.775  16.633   3.583  0.00  0.00     0.009 A 
BRANCH  18  21
HETATM   21  C   UNK N   1      26.974  18.601   4.041  0.00  0.00     0.008 A 
HETATM   22  C   UNK N   1      27.501  19.870   4.161  0.00  0.00     0.120 A 
HETATM   23  N   UNK N   1      28.808  19.740   4.463  0.00  0.00    -0.311 N 
HETATM   24  N   UNK N   1      29.111  18.456   4.533  0.00  0.00    -0.311 N 
HETATM   25  H   UNK N   1      29.437  20.484   4.609  0.00  0.00     0.186 HD
HETATM   26  C   UNK N   1      28.005  17.724   4.287  0.00  0.00     0.120 A 
ATOM     27  HN  UNK N   1      30.035  18.079   4.739  1.00  0.00     0.186 HD
ENDBRANCH  18  21
ENDBRANCH   1  15
TORSDOF 3
ENDMDL
