MODEL 1
REMARK VINA RESULT:      -5.7      0.000      0.000
REMARK  4 active torsions:
REMARK  status: ('A' for Active; 'I' for Inactive)
REMARK    1  A    between atoms: C_9  and  C_11 
REMARK    2  A    between atoms: C_9  and  C_12 
REMARK    3  A    between atoms: C_9  and  C_14 
REMARK    4  A    between atoms: C_14  and  N_15 
ROOT
HETATM    1  C   UNK N   1      28.700  17.311   6.447  0.00  0.00     0.068 C 
ENDROOT
BRANCH   1   2
HETATM    2  C   UNK N   1      28.037  18.510   5.765  0.00  0.00    -0.048 A 
HETATM    3  C   UNK N   1      27.707  19.628   6.554  0.00  0.00     0.008 A 
HETATM    4  C   UNK N   1      27.095  20.749   5.987  0.00  0.00     0.001 A 
HETATM    5  C   UNK N   1      26.796  20.768   4.623  0.00  0.00     0.000 A 
HETATM    6  C   UNK N   1      27.111  19.667   3.827  0.00  0.00     0.001 A 
HETATM    7  C   UNK N   1      27.728  18.548   4.395  0.00  0.00     0.008 A 
ENDBRANCH   1   2
BRANCH   1   8
HETATM    8  C   UNK N   1      30.175  17.414   6.864  0.00  0.00    -0.048 A 
HETATM    9  C   UNK N   1      31.175  17.183   5.902  0.00  0.00     0.009 A 
HETATM   10  C   UNK N   1      32.530  17.286   6.235  0.00  0.00     0.024 A 
HETATM   11  C   UNK N   1      32.906  17.630   7.534  0.00  0.00     0.034 A 
HETATM   12  C   UNK N   1      31.930  17.865   8.501  0.00  0.00     0.024 A 
HETATM   13 Cl   UNK N   1      34.600  17.779   7.949  0.00  0.00    -0.084 Cl
HETATM   14  C   UNK N   1      30.577  17.756   8.167  0.00  0.00     0.009 A 
ENDBRANCH   1   8
BRANCH   1  15
HETATM   15  C   UNK N   1      27.835  16.938   7.659  0.00  0.00     0.125 C 
BRANCH  15  16
HETATM   16  N   UNK N   1      26.642  16.210   7.254  0.00  0.00    -0.429 N 
HETATM   17  H   UNK N   1      26.001  16.542   6.533  0.00  0.00     0.149 HD
HETATM   18  H   UNK N   1      26.436  15.323   7.715  0.00  0.00     0.149 HD
ENDBRANCH  15  16
ENDBRANCH   1  15
TORSDOF 4
ENDMDL
MODEL 2
REMARK VINA RESULT:      -5.6      3.504      5.831
REMARK  4 active torsions:
REMARK  status: ('A' for Active; 'I' for Inactive)
REMARK    1  A    between atoms: C_9  and  C_11 
REMARK    2  A    between atoms: C_9  and  C_12 
REMARK    3  A    between atoms: C_9  and  C_14 
REMARK    4  A    between atoms: C_14  and  N_15 
ROOT
HETATM    1  C   UNK N   1      28.921  17.373   5.370  0.00  0.00     0.068 C 
ENDROOT
BRANCH   1   2
HETATM    2  C   UNK N   1      29.175  17.591   6.863  0.00  0.00    -0.048 A 
HETATM    3  C   UNK N   1      28.084  17.938   7.683  0.00  0.00     0.008 A 
HETATM    4  C   UNK N   1      28.258  18.155   9.053  0.00  0.00     0.001 A 
HETATM    5  C   UNK N   1      29.526  18.036   9.625  0.00  0.00     0.000 A 
HETATM    6  C   UNK N   1      30.619  17.699   8.827  0.00  0.00     0.001 A 
HETATM    7  C   UNK N   1      30.443  17.477   7.458  0.00  0.00     0.008 A 
ENDBRANCH   1   2
BRANCH   1   8
HETATM    8  C   UNK N   1      27.849  18.219   4.667  0.00  0.00    -0.048 A 
HETATM    9  C   UNK N   1      26.700  17.583   4.162  0.00  0.00     0.009 A 
HETATM   10  C   UNK N   1      25.690  18.318   3.532  0.00  0.00     0.024 A 
HETATM   11  C   UNK N   1      25.809  19.702   3.405  0.00  0.00     0.034 A 
HETATM   12  C   UNK N   1      26.939  20.351   3.902  0.00  0.00     0.024 A 
HETATM   13 Cl   UNK N   1      24.539  20.628   2.636  0.00  0.00    -0.084 Cl
HETATM   14  C   UNK N   1      27.949  19.613   4.525  0.00  0.00     0.009 A 
ENDBRANCH   1   8
BRANCH   1  15
HETATM   15  C   UNK N   1      30.268  17.526   4.650  0.00  0.00     0.125 C 
BRANCH  15  16
HETATM   16  N   UNK N   1      30.208  16.995   3.296  0.00  0.00    -0.429 N 
HETATM   17  H   UNK N   1      30.513  17.518   2.475  0.00  0.00     0.149 HD
HETATM   18  H   UNK N   1      29.843  16.052   3.162  0.00  0.00     0.149 HD
ENDBRANCH  15  16
ENDBRANCH   1  15
TORSDOF 4
ENDMDL
MODEL 3
REMARK VINA RESULT:      -5.6     14.096     16.560
REMARK  4 active torsions:
REMARK  status: ('A' for Active; 'I' for Inactive)
REMARK    1  A    between atoms: C_9  and  C_11 
REMARK    2  A    between atoms: C_9  and  C_12 
REMARK    3  A    between atoms: C_9  and  C_14 
REMARK    4  A    between atoms: C_14  and  N_15 
ROOT
HETATM    1  C   UNK N   1      35.265  10.975  20.174  0.00  0.00     0.068 C 
ENDROOT
BRANCH   1   2
HETATM    2  C   UNK N   1      35.376  11.766  18.869  0.00  0.00    -0.048 A 
HETATM    3  C   UNK N   1      35.149  13.155  18.908  0.00  0.00     0.008 A 
HETATM    4  C   UNK N   1      35.231  13.928  17.747  0.00  0.00     0.001 A 
HETATM    5  C   UNK N   1      35.534  13.323  16.525  0.00  0.00     0.000 A 
HETATM    6  C   UNK N   1      35.757  11.948  16.466  0.00  0.00     0.001 A 
HETATM    7  C   UNK N   1      35.679  11.177  17.630  0.00  0.00     0.008 A 
ENDBRANCH   1   2
BRANCH   1   8
HETATM    8  C   UNK N   1      34.153   9.924  20.315  0.00  0.00    -0.048 A 
HETATM    9  C   UNK N   1      33.258  10.017  21.396  0.00  0.00     0.009 A 
HETATM   10  C   UNK N   1      32.220   9.092  21.551  0.00  0.00     0.024 A 
HETATM   11  C   UNK N   1      32.054   8.065  20.621  0.00  0.00     0.034 A 
HETATM   12  C   UNK N   1      32.930   7.959  19.541  0.00  0.00     0.024 A 
HETATM   13 Cl   UNK N   1      30.745   6.919  20.799  0.00  0.00    -0.084 Cl
HETATM   14  C   UNK N   1      33.970   8.880  19.392  0.00  0.00     0.009 A 
ENDBRANCH   1   8
BRANCH   1  15
HETATM   15  C   UNK N   1      36.634  10.331  20.437  0.00  0.00     0.125 C 
BRANCH  15  16
HETATM   16  N   UNK N   1      37.169  10.734  21.729  0.00  0.00    -0.429 N 
HETATM   17  H   UNK N   1      38.108  11.114  21.852  0.00  0.00     0.149 HD
HETATM   18  H   UNK N   1      36.576  10.631  22.552  0.00  0.00     0.149 HD
ENDBRANCH  15  16
ENDBRANCH   1  15
TORSDOF 4
ENDMDL
MODEL 4
REMARK VINA RESULT:      -5.5     11.464     13.283
REMARK  4 active torsions:
REMARK  status: ('A' for Active; 'I' for Inactive)
REMARK    1  A    between atoms: C_9  and  C_11 
REMARK    2  A    between atoms: C_9  and  C_12 
REMARK    3  A    between atoms: C_9  and  C_14 
REMARK    4  A    between atoms: C_14  and  N_15 
ROOT
HETATM    1  C   UNK N   1      36.262  12.360  14.823  0.00  0.00     0.068 C 
ENDROOT
BRANCH   1   2
HETATM    2  C   UNK N   1      35.883  12.350  16.306  0.00  0.00    -0.048 A 
HETATM    3  C   UNK N   1      35.540  13.572  16.916  0.00  0.00     0.008 A 
HETATM    4  C   UNK N   1      35.191  13.625  18.268  0.00  0.00     0.001 A 
HETATM    5  C   UNK N   1      35.186  12.458  19.035  0.00  0.00     0.000 A 
HETATM    6  C   UNK N   1      35.528  11.240  18.450  0.00  0.00     0.001 A 
HETATM    7  C   UNK N   1      35.873  11.188  17.095  0.00  0.00     0.008 A 
ENDBRANCH   1   2
BRANCH   1   8
HETATM    8  C   UNK N   1      35.728  11.244  13.912  0.00  0.00    -0.048 A 
HETATM    9  C   UNK N   1      34.350  11.193  13.629  0.00  0.00     0.009 A 
HETATM   10  C   UNK N   1      33.826  10.206  12.789  0.00  0.00     0.024 A 
HETATM   11  C   UNK N   1      34.671   9.259  12.211  0.00  0.00     0.034 A 
HETATM   12  C   UNK N   1      36.040   9.294  12.477  0.00  0.00     0.024 A 
HETATM   13 Cl   UNK N   1      34.021   8.034  11.143  0.00  0.00    -0.084 Cl
HETATM   14  C   UNK N   1      36.560  10.278  13.322  0.00  0.00     0.009 A 
ENDBRANCH   1   8
BRANCH   1  15
HETATM   15  C   UNK N   1      35.869  13.733  14.259  0.00  0.00     0.125 C 
BRANCH  15  16
HETATM   16  N   UNK N   1      36.733  14.117  13.153  0.00  0.00    -0.429 N 
HETATM   17  H   UNK N   1      36.591  14.962  12.599  0.00  0.00     0.149 HD
HETATM   18  H   UNK N   1      37.520  13.511  12.920  0.00  0.00     0.149 HD
ENDBRANCH  15  16
ENDBRANCH   1  15
TORSDOF 4
ENDMDL
MODEL 5
REMARK VINA RESULT:      -5.5     11.292     14.192
REMARK  4 active torsions:
REMARK  status: ('A' for Active; 'I' for Inactive)
REMARK    1  A    between atoms: C_9  and  C_11 
REMARK    2  A    between atoms: C_9  and  C_12 
REMARK    3  A    between atoms: C_9  and  C_14 
REMARK    4  A    between atoms: C_14  and  N_15 
ROOT
HETATM    1  C   UNK N   1      26.690  24.684  -4.517  0.00  0.00     0.068 C 
ENDROOT
BRANCH   1   2
HETATM    2  C   UNK N   1      27.895  23.975  -3.895  0.00  0.00    -0.048 A 
HETATM    3  C   UNK N   1      28.980  23.644  -4.730  0.00  0.00     0.008 A 
HETATM    4  C   UNK N   1      30.104  22.991  -4.218  0.00  0.00     0.001 A 
HETATM    5  C   UNK N   1      30.161  22.652  -2.865  0.00  0.00     0.000 A 
HETATM    6  C   UNK N   1      29.093  22.967  -2.024  0.00  0.00     0.001 A 
HETATM    7  C   UNK N   1      27.971  23.624  -2.537  0.00  0.00     0.008 A 
ENDBRANCH   1   2
BRANCH   1   8
HETATM    8  C   UNK N   1      26.638  26.219  -4.498  0.00  0.00    -0.048 A 
HETATM    9  C   UNK N   1      26.223  26.874  -3.324  0.00  0.00     0.009 A 
HETATM   10  C   UNK N   1      26.180  28.270  -3.257  0.00  0.00     0.024 A 
HETATM   11  C   UNK N   1      26.561  29.035  -4.361  0.00  0.00     0.034 A 
HETATM   12  C   UNK N   1      26.978  28.404  -5.532  0.00  0.00     0.024 A 
HETATM   13 Cl   UNK N   1      26.527  30.782  -4.274  0.00  0.00    -0.084 Cl
HETATM   14  C   UNK N   1      27.014  27.009  -5.598  0.00  0.00     0.009 A 
ENDBRANCH   1   8
BRANCH   1  15
HETATM   15  C   UNK N   1      26.551  24.171  -5.958  0.00  0.00     0.125 C 
BRANCH  15  16
HETATM   16  N   UNK N   1      25.280  23.491  -6.157  0.00  0.00    -0.429 N 
HETATM   17  H   UNK N   1      25.013  22.644  -5.654  0.00  0.00     0.149 HD
HETATM   18  H   UNK N   1      24.623  23.880  -6.833  0.00  0.00     0.149 HD
ENDBRANCH  15  16
ENDBRANCH   1  15
TORSDOF 4
ENDMDL
MODEL 6
REMARK VINA RESULT:      -5.3     10.329     13.362
REMARK  4 active torsions:
REMARK  status: ('A' for Active; 'I' for Inactive)
REMARK    1  A    between atoms: C_9  and  C_11 
REMARK    2  A    between atoms: C_9  and  C_12 
REMARK    3  A    between atoms: C_9  and  C_14 
REMARK    4  A    between atoms: C_14  and  N_15 
ROOT
HETATM    1  C   UNK N   1      35.608  11.363  15.604  0.00  0.00     0.068 C 
ENDROOT
BRANCH   1   2
HETATM    2  C   UNK N   1      35.521  11.733  17.087  0.00  0.00    -0.048 A 
HETATM    3  C   UNK N   1      35.820  10.742  18.041  0.00  0.00     0.008 A 
HETATM    4  C   UNK N   1      35.753  11.020  19.408  0.00  0.00     0.001 A 
HETATM    5  C   UNK N   1      35.378  12.292  19.845  0.00  0.00     0.000 A 
HETATM    6  C   UNK N   1      35.073  13.285  18.915  0.00  0.00     0.001 A 
HETATM    7  C   UNK N   1      35.146  13.006  17.547  0.00  0.00     0.008 A 
ENDBRANCH   1   2
BRANCH   1   8
HETATM    8  C   UNK N   1      35.700  12.488  14.561  0.00  0.00    -0.048 A 
HETATM    9  C   UNK N   1      34.986  12.362  13.356  0.00  0.00     0.009 A 
HETATM   10  C   UNK N   1      35.026  13.371  12.388  0.00  0.00     0.024 A 
HETATM   11  C   UNK N   1      35.776  14.527  12.614  0.00  0.00     0.034 A 
HETATM   12  C   UNK N   1      36.489  14.670  13.804  0.00  0.00     0.024 A 
HETATM   13 Cl   UNK N   1      35.814  15.800  11.414  0.00  0.00    -0.084 Cl
HETATM   14  C   UNK N   1      36.451  13.658  14.767  0.00  0.00     0.009 A 
ENDBRANCH   1   8
BRANCH   1  15
HETATM   15  C   UNK N   1      36.789  10.396  15.441  0.00  0.00     0.125 C 
BRANCH  15  16
HETATM   16  N   UNK N   1      36.390   9.189  14.734  0.00  0.00    -0.429 N 
HETATM   17  H   UNK N   1      35.569   9.137  14.131  0.00  0.00     0.149 HD
HETATM   18  H   UNK N   1      36.962   8.351  14.847  0.00  0.00     0.149 HD
ENDBRANCH  15  16
ENDBRANCH   1  15
TORSDOF 4
ENDMDL
MODEL 7
REMARK VINA RESULT:      -5.3      2.875      5.768
REMARK  4 active torsions:
REMARK  status: ('A' for Active; 'I' for Inactive)
REMARK    1  A    between atoms: C_9  and  C_11 
REMARK    2  A    between atoms: C_9  and  C_12 
REMARK    3  A    between atoms: C_9  and  C_14 
REMARK    4  A    between atoms: C_14  and  N_15 
ROOT
HETATM    1  C   UNK N   1      30.140  16.482   6.208  0.00  0.00     0.068 C 
ENDROOT
BRANCH   1   2
HETATM    2  C   UNK N   1      31.496  17.003   6.692  0.00  0.00    -0.048 A 
HETATM    3  C   UNK N   1      32.549  17.089   5.762  0.00  0.00     0.008 A 
HETATM    4  C   UNK N   1      33.810  17.552   6.148  0.00  0.00     0.001 A 
HETATM    5  C   UNK N   1      34.041  17.930   7.472  0.00  0.00     0.000 A 
HETATM    6  C   UNK N   1      33.010  17.847   8.409  0.00  0.00     0.001 A 
HETATM    7  C   UNK N   1      31.748  17.388   8.019  0.00  0.00     0.008 A 
ENDBRANCH   1   2
BRANCH   1   8
HETATM    8  C   UNK N   1      29.070  17.491   5.766  0.00  0.00    -0.048 A 
HETATM    9  C   UNK N   1      28.524  18.370   6.719  0.00  0.00     0.009 A 
HETATM   10  C   UNK N   1      27.561  19.317   6.355  0.00  0.00     0.024 A 
HETATM   11  C   UNK N   1      27.136  19.407   5.028  0.00  0.00     0.034 A 
HETATM   12  C   UNK N   1      27.668  18.547   4.069  0.00  0.00     0.024 A 
HETATM   13 Cl   UNK N   1      25.947  20.604   4.565  0.00  0.00    -0.084 Cl
HETATM   14  C   UNK N   1      28.625  17.597   4.437  0.00  0.00     0.009 A 
ENDBRANCH   1   8
BRANCH   1  15
HETATM   15  C   UNK N   1      30.413  15.476   5.081  0.00  0.00     0.125 C 
BRANCH  15  16
HETATM   16  N   UNK N   1      30.383  14.107   5.575  0.00  0.00    -0.429 N 
HETATM   17  H   UNK N   1      31.195  13.490   5.564  0.00  0.00     0.149 HD
HETATM   18  H   UNK N   1      29.506  13.748   5.951  0.00  0.00     0.149 HD
ENDBRANCH  15  16
ENDBRANCH   1  15
TORSDOF 4
ENDMDL
MODEL 8
REMARK VINA RESULT:      -5.2      9.705     12.059
REMARK  4 active torsions:
REMARK  status: ('A' for Active; 'I' for Inactive)
REMARK    1  A    between atoms: C_9  and  C_11 
REMARK    2  A    between atoms: C_9  and  C_12 
REMARK    3  A    between atoms: C_9  and  C_14 
REMARK    4  A    between atoms: C_14  and  N_15 
ROOT
HETATM    1  C   UNK N   1      34.414  11.782  13.813  0.00  0.00     0.068 C 
ENDROOT
BRANCH   1   2
HETATM    2  C   UNK N   1      34.717  11.803  15.312  0.00  0.00    -0.048 A 
HETATM    3  C   UNK N   1      34.853  13.052  15.949  0.00  0.00     0.008 A 
HETATM    4  C   UNK N   1      35.136  13.132  17.315  0.00  0.00     0.001 A 
HETATM    5  C   UNK N   1      35.295  11.966  18.066  0.00  0.00     0.000 A 
HETATM    6  C   UNK N   1      35.170  10.721  17.452  0.00  0.00     0.001 A 
HETATM    7  C   UNK N   1      34.882  10.642  16.086  0.00  0.00     0.008 A 
ENDBRANCH   1   2
BRANCH   1   8
HETATM    8  C   UNK N   1      35.476  12.301  12.831  0.00  0.00    -0.048 A 
HETATM    9  C   UNK N   1      35.219  13.480  12.107  0.00  0.00     0.009 A 
HETATM   10  C   UNK N   1      36.166  13.997  11.218  0.00  0.00     0.024 A 
HETATM   11  C   UNK N   1      37.390  13.350  11.046  0.00  0.00     0.034 A 
HETATM   12  C   UNK N   1      37.664  12.182  11.757  0.00  0.00     0.024 A 
HETATM   13 Cl   UNK N   1      38.586  14.005   9.949  0.00  0.00    -0.084 Cl
HETATM   14  C   UNK N   1      36.714  11.664  12.640  0.00  0.00     0.009 A 
ENDBRANCH   1   8
BRANCH   1  15
HETATM   15  C   UNK N   1      34.017  10.345  13.446  0.00  0.00     0.125 C 
BRANCH  15  16
HETATM   16  N   UNK N   1      33.494  10.269  12.091  0.00  0.00    -0.429 N 
HETATM   17  H   UNK N   1      34.030   9.904  11.303  0.00  0.00     0.149 HD
HETATM   18  H   UNK N   1      32.543  10.597  11.919  0.00  0.00     0.149 HD
ENDBRANCH  15  16
ENDBRANCH   1  15
TORSDOF 4
ENDMDL
MODEL 9
REMARK VINA RESULT:      -5.2     13.496     14.500
REMARK  4 active torsions:
REMARK  status: ('A' for Active; 'I' for Inactive)
REMARK    1  A    between atoms: C_9  and  C_11 
REMARK    2  A    between atoms: C_9  and  C_12 
REMARK    3  A    between atoms: C_9  and  C_14 
REMARK    4  A    between atoms: C_14  and  N_15 
ROOT
HETATM    1  C   UNK N   1      26.741  28.731  -3.253  0.00  0.00     0.068 C 
ENDROOT
BRANCH   1   2
HETATM    2  C   UNK N   1      26.341  27.412  -3.920  0.00  0.00    -0.048 A 
HETATM    3  C   UNK N   1      25.579  27.465  -5.103  0.00  0.00     0.008 A 
HETATM    4  C   UNK N   1      25.180  26.294  -5.752  0.00  0.00     0.001 A 
HETATM    5  C   UNK N   1      25.529  25.049  -5.224  0.00  0.00     0.000 A 
HETATM    6  C   UNK N   1      26.279  24.977  -4.050  0.00  0.00     0.001 A 
HETATM    7  C   UNK N   1      26.681  26.150  -3.405  0.00  0.00     0.008 A 
ENDBRANCH   1   2
BRANCH   1   8
HETATM    8  C   UNK N   1      28.192  28.917  -2.785  0.00  0.00    -0.048 A 
HETATM    9  C   UNK N   1      29.236  28.400  -3.573  0.00  0.00     0.009 A 
HETATM   10  C   UNK N   1      30.572  28.565  -3.193  0.00  0.00     0.024 A 
HETATM   11  C   UNK N   1      30.886  29.257  -2.023  0.00  0.00     0.034 A 
HETATM   12  C   UNK N   1      29.865  29.778  -1.230  0.00  0.00     0.024 A 
HETATM   13 Cl   UNK N   1      32.557  29.481  -1.554  0.00  0.00    -0.084 Cl
HETATM   14  C   UNK N   1      28.530  29.608  -1.609  0.00  0.00     0.009 A 
ENDBRANCH   1   8
BRANCH   1  15
HETATM   15  C   UNK N   1      26.347  29.865  -4.210  0.00  0.00     0.125 C 
BRANCH  15  16
HETATM   16  N   UNK N   1      25.948  31.059  -3.480  0.00  0.00    -0.429 N 
HETATM   17  H   UNK N   1      26.613  31.748  -3.128  0.00  0.00     0.149 HD
HETATM   18  H   UNK N   1      24.954  31.215  -3.313  0.00  0.00     0.149 HD
ENDBRANCH  15  16
ENDBRANCH   1  15
TORSDOF 4
ENDMDL
