REMARK  7 active torsions:
REMARK  status: ('A' for Active; 'I' for Inactive)
REMARK       I    between atoms: C_2  and  N_3 
REMARK    1  A    between atoms: C_2  and  C_5 
REMARK    2  A    between atoms: N_3  and  O_4 
REMARK    3  A    between atoms: C_5  and  C_6 
REMARK    4  A    between atoms: C_5  and  N_17 
REMARK    5  A    between atoms: C_6  and  C_7 
REMARK    6  A    between atoms: N_17  and  S_18 
REMARK    7  A    between atoms: S_18  and  C_21 
ROOT
HETATM    1  C   UNK N   1       7.490   8.482  -0.155  0.00  0.00     0.191 C 
ENDROOT
BRANCH   1   2
HETATM    2  C   UNK N   1       6.444   7.434  -0.439  0.00  0.00     0.264 C 
HETATM    3  O   UNK N   1       6.255   7.056  -1.589  0.00  0.00    -0.269 OA
HETATM    4  N   UNK N   1       5.685   6.943   0.567  0.00  0.00    -0.236 N 
HETATM    5  H   UNK N   1       5.845   7.249   1.489  0.00  0.00     0.197 HD
BRANCH   4   6
HETATM    6  O   UNK N   1       4.720   6.046   0.326  0.00  0.00    -0.287 OA
HETATM    7  H   UNK N   1       3.808   6.327   0.151  0.00  0.00     0.244 HD
ENDBRANCH   4   6
ENDBRANCH   1   2
BRANCH   1   8
HETATM    8  C   UNK N   1       7.119   9.769  -0.901  0.00  0.00     0.074 C 
BRANCH   8   9
HETATM    9  C   UNK N   1       5.890  10.494  -0.422  0.00  0.00    -0.055 A 
HETATM   10  C   UNK N   1       4.669   9.824  -0.248  0.00  0.00     0.008 A 
HETATM   11  C   UNK N   1       3.517  10.527   0.112  0.00  0.00     0.013 A 
HETATM   12  C   UNK N   1       3.568  11.912   0.269  0.00  0.00    -0.026 A 
HETATM   13  C   UNK N   1       2.412  12.627   0.593  0.00  0.00     0.012 A 
HETATM   14  C   UNK N   1       4.791  12.596   0.084  0.00  0.00    -0.025 A 
HETATM   15  C   UNK N   1       2.465  14.018   0.725  0.00  0.00     0.001 A 
HETATM   16  C   UNK N   1       3.674  14.696   0.537  0.00  0.00     0.001 A 
HETATM   17  C   UNK N   1       4.837  13.987   0.219  0.00  0.00     0.012 A 
HETATM   18  C   UNK N   1       5.945  11.883  -0.256  0.00  0.00     0.019 A 
ENDBRANCH   8   9
ENDBRANCH   1   8
BRANCH   1  19
HETATM   19  N   UNK N   1       8.800   8.055  -0.655  0.00  0.00    -0.301 N 
HETATM   20  H   UNK N   1       9.242   8.455  -1.483  0.00  0.00     0.173 HD
BRANCH  19  21
HETATM   21  S   UNK N   1       9.545   6.769   0.323  0.00  0.00     0.259 S 
HETATM   22  O   UNK N   1       9.541   7.256   1.781  0.00  0.00    -0.201 OA
HETATM   23  O   UNK N   1      11.038   6.884  -0.023  0.00  0.00    -0.201 OA
BRANCH  21  24
HETATM   24  C   UNK N   1       8.982   5.084   0.096  0.00  0.00     0.080 A 
HETATM   25  C   UNK N   1       9.819   4.126  -0.491  0.00  0.00     0.026 A 
HETATM   26  C   UNK N   1       9.352   2.824  -0.710  0.00  0.00     0.014 A 
HETATM   27  C   UNK N   1       8.043   2.483  -0.353  0.00  0.00    -0.026 A 
HETATM   28  C   UNK N   1       7.556   1.194  -0.588  0.00  0.00     0.012 A 
HETATM   29  C   UNK N   1       7.205   3.450   0.243  0.00  0.00    -0.025 A 
HETATM   30  C   UNK N   1       6.240   0.870  -0.238  0.00  0.00     0.001 A 
HETATM   31  C   UNK N   1       5.411   1.831   0.351  0.00  0.00     0.001 A 
HETATM   32  C   UNK N   1       5.893   3.120   0.593  0.00  0.00     0.012 A 
HETATM   33  C   UNK N   1       7.683   4.738   0.467  0.00  0.00     0.037 A 
ENDBRANCH  21  24
ENDBRANCH  19  21
ENDBRANCH   1  19
TORSDOF 7
