MODEL 1
REMARK VINA RESULT:      -7.5      0.000      0.000
REMARK  7 active torsions:
REMARK  status: ('A' for Active; 'I' for Inactive)
REMARK       I    between atoms: C_2  and  N_3 
REMARK    1  A    between atoms: C_2  and  C_5 
REMARK    2  A    between atoms: N_3  and  O_4 
REMARK    3  A    between atoms: C_5  and  C_6 
REMARK    4  A    between atoms: C_5  and  N_17 
REMARK    5  A    between atoms: C_6  and  C_7 
REMARK    6  A    between atoms: N_17  and  S_18 
REMARK    7  A    between atoms: S_18  and  C_21 
ROOT
HETATM    1  C   UNK N   1      30.692  23.377  -4.030  0.00  0.00     0.191 C 
ENDROOT
BRANCH   1   2
HETATM    2  C   UNK N   1      31.233  22.636  -2.834  0.00  0.00     0.264 C 
HETATM    3  O   UNK N   1      30.773  22.857  -1.720  0.00  0.00    -0.269 OA
HETATM    4  N   UNK N   1      32.254  21.762  -2.982  0.00  0.00    -0.236 N 
HETATM    5  H   UNK N   1      32.616  21.588  -3.881  0.00  0.00     0.197 HD
BRANCH   4   6
HETATM    6  O   UNK N   1      32.778  21.130  -1.924  0.00  0.00    -0.287 OA
HETATM    7  H   UNK N   1      33.142  21.627  -1.174  0.00  0.00     0.244 HD
ENDBRANCH   4   6
ENDBRANCH   1   2
BRANCH   1   8
HETATM    8  C   UNK N   1      29.375  22.723  -4.466  0.00  0.00     0.074 C 
BRANCH   8   9
HETATM    9  C   UNK N   1      28.258  23.653  -4.855  0.00  0.00    -0.055 A 
HETATM   10  C   UNK N   1      27.684  23.609  -6.135  0.00  0.00     0.008 A 
HETATM   11  C   UNK N   1      26.709  24.537  -6.510  0.00  0.00     0.013 A 
HETATM   12  C   UNK N   1      26.322  25.537  -5.618  0.00  0.00    -0.026 A 
HETATM   13  C   UNK N   1      25.375  26.491  -5.999  0.00  0.00     0.012 A 
HETATM   14  C   UNK N   1      26.904  25.596  -4.331  0.00  0.00    -0.025 A 
HETATM   15  C   UNK N   1      25.009  27.506  -5.109  0.00  0.00     0.001 A 
HETATM   16  C   UNK N   1      25.588  27.567  -3.837  0.00  0.00     0.001 A 
HETATM   17  C   UNK N   1      26.532  26.612  -3.446  0.00  0.00     0.012 A 
HETATM   18  C   UNK N   1      27.864  24.651  -3.956  0.00  0.00     0.019 A 
ENDBRANCH   8   9
ENDBRANCH   1   8
BRANCH   1  19
HETATM   19  N   UNK N   1      31.618  23.280  -5.162  0.00  0.00    -0.301 N 
HETATM   20  H   UNK N   1      31.977  22.394  -5.519  0.00  0.00     0.173 HD
BRANCH  19  21
HETATM   21  S   UNK N   1      32.057  24.859  -5.854  0.00  0.00     0.259 S 
HETATM   22  O   UNK N   1      32.833  24.579  -7.151  0.00  0.00    -0.201 OA
HETATM   23  O   UNK N   1      33.187  25.345  -4.932  0.00  0.00    -0.201 OA
BRANCH  21  24
HETATM   24  C   UNK N   1      30.789  26.115  -5.997  0.00  0.00     0.080 A 
HETATM   25  C   UNK N   1      30.067  26.266  -7.188  0.00  0.00     0.026 A 
HETATM   26  C   UNK N   1      29.112  27.284  -7.308  0.00  0.00     0.014 A 
HETATM   27  C   UNK N   1      28.888  28.159  -6.239  0.00  0.00    -0.026 A 
HETATM   28  C   UNK N   1      27.955  29.194  -6.353  0.00  0.00     0.012 A 
HETATM   29  C   UNK N   1      29.614  27.999  -5.039  0.00  0.00    -0.025 A 
HETATM   30  C   UNK N   1      27.750  30.070  -5.281  0.00  0.00     0.001 A 
HETATM   31  C   UNK N   1      28.472  29.911  -4.094  0.00  0.00     0.001 A 
HETATM   32  C   UNK N   1      29.403  28.876  -3.971  0.00  0.00     0.012 A 
HETATM   33  C   UNK N   1      30.552  26.977  -4.927  0.00  0.00     0.037 A 
ENDBRANCH  21  24
ENDBRANCH  19  21
ENDBRANCH   1  19
TORSDOF 7
ENDMDL
MODEL 2
REMARK VINA RESULT:      -7.4     13.151     15.726
REMARK  7 active torsions:
REMARK  status: ('A' for Active; 'I' for Inactive)
REMARK       I    between atoms: C_2  and  N_3 
REMARK    1  A    between atoms: C_2  and  C_5 
REMARK    2  A    between atoms: N_3  and  O_4 
REMARK    3  A    between atoms: C_5  and  C_6 
REMARK    4  A    between atoms: C_5  and  N_17 
REMARK    5  A    between atoms: C_6  and  C_7 
REMARK    6  A    between atoms: N_17  and  S_18 
REMARK    7  A    between atoms: S_18  and  C_21 
ROOT
HETATM    1  C   UNK N   1      28.334  18.678   7.199  0.00  0.00     0.191 C 
ENDROOT
BRANCH   1   2
HETATM    2  C   UNK N   1      27.610  19.862   6.608  0.00  0.00     0.264 C 
HETATM    3  O   UNK N   1      27.874  20.233   5.471  0.00  0.00    -0.269 OA
HETATM    4  N   UNK N   1      26.703  20.540   7.347  0.00  0.00    -0.236 N 
HETATM    5  H   UNK N   1      26.493  20.233   8.259  0.00  0.00     0.197 HD
BRANCH   4   6
HETATM    6  O   UNK N   1      26.084  21.621   6.854  0.00  0.00    -0.287 OA
HETATM    7  H   UNK N   1      26.590  22.363   6.488  0.00  0.00     0.244 HD
ENDBRANCH   4   6
ENDBRANCH   1   2
BRANCH   1   8
HETATM    8  C   UNK N   1      27.869  17.404   6.484  0.00  0.00     0.074 C 
BRANCH   8   9
HETATM    9  C   UNK N   1      28.888  16.704   5.625  0.00  0.00    -0.055 A 
HETATM   10  C   UNK N   1      28.847  15.315   5.430  0.00  0.00     0.008 A 
HETATM   11  C   UNK N   1      29.850  14.669   4.704  0.00  0.00     0.013 A 
HETATM   12  C   UNK N   1      30.921  15.402   4.193  0.00  0.00    -0.026 A 
HETATM   13  C   UNK N   1      31.946  14.758   3.496  0.00  0.00     0.012 A 
HETATM   14  C   UNK N   1      30.975  16.800   4.394  0.00  0.00    -0.025 A 
HETATM   15  C   UNK N   1      33.029  15.496   3.007  0.00  0.00     0.001 A 
HETATM   16  C   UNK N   1      33.087  16.878   3.211  0.00  0.00     0.001 A 
HETATM   17  C   UNK N   1      32.061  17.532   3.902  0.00  0.00     0.012 A 
HETATM   18  C   UNK N   1      29.957  17.443   5.105  0.00  0.00     0.019 A 
ENDBRANCH   8   9
ENDBRANCH   1   8
BRANCH   1  19
HETATM   19  N   UNK N   1      28.002  18.524   8.618  0.00  0.00    -0.301 N 
HETATM   20  H   UNK N   1      27.097  18.780   9.013  0.00  0.00     0.173 HD
BRANCH  19  21
HETATM   21  S   UNK N   1      29.332  17.846   9.585  0.00  0.00     0.259 S 
HETATM   22  O   UNK N   1      28.724  16.751  10.477  0.00  0.00    -0.201 OA
HETATM   23  O   UNK N   1      29.612  18.947  10.620  0.00  0.00    -0.201 OA
BRANCH  21  24
HETATM   24  C   UNK N   1      30.846  17.376   8.752  0.00  0.00     0.080 A 
HETATM   25  C   UNK N   1      31.787  18.346   8.383  0.00  0.00     0.026 A 
HETATM   26  C   UNK N   1      32.944  17.975   7.687  0.00  0.00     0.014 A 
HETATM   27  C   UNK N   1      33.154  16.634   7.348  0.00  0.00    -0.026 A 
HETATM   28  C   UNK N   1      34.293  16.252   6.633  0.00  0.00     0.012 A 
HETATM   29  C   UNK N   1      32.206  15.659   7.726  0.00  0.00    -0.025 A 
HETATM   30  C   UNK N   1      34.484  14.909   6.289  0.00  0.00     0.001 A 
HETATM   31  C   UNK N   1      33.542  13.945   6.663  0.00  0.00     0.001 A 
HETATM   32  C   UNK N   1      32.404  14.319   7.383  0.00  0.00     0.012 A 
HETATM   33  C   UNK N   1      31.065  16.037   8.428  0.00  0.00     0.037 A 
ENDBRANCH  21  24
ENDBRANCH  19  21
ENDBRANCH   1  19
TORSDOF 7
ENDMDL
MODEL 3
REMARK VINA RESULT:      -7.2     12.677     15.177
REMARK  7 active torsions:
REMARK  status: ('A' for Active; 'I' for Inactive)
REMARK       I    between atoms: C_2  and  N_3 
REMARK    1  A    between atoms: C_2  and  C_5 
REMARK    2  A    between atoms: N_3  and  O_4 
REMARK    3  A    between atoms: C_5  and  C_6 
REMARK    4  A    between atoms: C_5  and  N_17 
REMARK    5  A    between atoms: C_6  and  C_7 
REMARK    6  A    between atoms: N_17  and  S_18 
REMARK    7  A    between atoms: S_18  and  C_21 
ROOT
HETATM    1  C   UNK N   1      31.620  16.040   8.460  0.00  0.00     0.191 C 
ENDROOT
BRANCH   1   2
HETATM    2  C   UNK N   1      32.581  15.114   9.161  0.00  0.00     0.264 C 
HETATM    3  O   UNK N   1      33.157  14.238   8.527  0.00  0.00    -0.269 OA
HETATM    4  N   UNK N   1      32.774  15.220  10.495  0.00  0.00    -0.236 N 
HETATM    5  H   UNK N   1      32.310  15.928  10.998  0.00  0.00     0.197 HD
BRANCH   4   6
HETATM    6  O   UNK N   1      33.588  14.375  11.142  0.00  0.00    -0.287 OA
HETATM    7  H   UNK N   1      34.269  13.873  10.666  0.00  0.00     0.244 HD
ENDBRANCH   4   6
ENDBRANCH   1   2
BRANCH   1   8
HETATM    8  C   UNK N   1      32.234  16.475   7.124  0.00  0.00     0.074 C 
BRANCH   8   9
HETATM    9  C   UNK N   1      31.390  16.266   5.896  0.00  0.00    -0.055 A 
HETATM   10  C   UNK N   1      31.400  17.189   4.838  0.00  0.00     0.008 A 
HETATM   11  C   UNK N   1      30.546  17.027   3.745  0.00  0.00     0.013 A 
HETATM   12  C   UNK N   1      29.649  15.959   3.715  0.00  0.00    -0.026 A 
HETATM   13  C   UNK N   1      28.766  15.811   2.642  0.00  0.00     0.012 A 
HETATM   14  C   UNK N   1      29.624  15.032   4.781  0.00  0.00    -0.025 A 
HETATM   15  C   UNK N   1      27.853  14.752   2.630  0.00  0.00     0.001 A 
HETATM   16  C   UNK N   1      27.824  13.837   3.688  0.00  0.00     0.001 A 
HETATM   17  C   UNK N   1      28.710  13.975   4.762  0.00  0.00     0.012 A 
HETATM   18  C   UNK N   1      30.497  15.189   5.863  0.00  0.00     0.019 A 
ENDBRANCH   8   9
ENDBRANCH   1   8
BRANCH   1  19
HETATM   19  N   UNK N   1      31.402  17.255   9.251  0.00  0.00    -0.301 N 
HETATM   20  H   UNK N   1      32.161  17.819   9.634  0.00  0.00     0.173 HD
BRANCH  19  21
HETATM   21  S   UNK N   1      29.682  17.651   9.478  0.00  0.00     0.259 S 
HETATM   22  O   UNK N   1      29.627  18.970  10.265  0.00  0.00    -0.201 OA
HETATM   23  O   UNK N   1      29.229  16.648  10.551  0.00  0.00    -0.201 OA
BRANCH  21  24
HETATM   24  C   UNK N   1      28.591  17.581   8.060  0.00  0.00     0.080 A 
HETATM   25  C   UNK N   1      27.688  16.521   7.908  0.00  0.00     0.026 A 
HETATM   26  C   UNK N   1      26.874  16.448   6.770  0.00  0.00     0.014 A 
HETATM   27  C   UNK N   1      26.973  17.429   5.778  0.00  0.00    -0.026 A 
HETATM   28  C   UNK N   1      26.184  17.356   4.626  0.00  0.00     0.012 A 
HETATM   29  C   UNK N   1      27.881  18.498   5.938  0.00  0.00    -0.025 A 
HETATM   30  C   UNK N   1      26.303  18.337   3.635  0.00  0.00     0.001 A 
HETATM   31  C   UNK N   1      27.205  19.395   3.795  0.00  0.00     0.001 A 
HETATM   32  C   UNK N   1      27.993  19.477   4.946  0.00  0.00     0.012 A 
HETATM   33  C   UNK N   1      28.677  18.567   7.078  0.00  0.00     0.037 A 
ENDBRANCH  21  24
ENDBRANCH  19  21
ENDBRANCH   1  19
TORSDOF 7
ENDMDL
MODEL 4
REMARK VINA RESULT:      -7.1      4.649      6.836
REMARK  7 active torsions:
REMARK  status: ('A' for Active; 'I' for Inactive)
REMARK       I    between atoms: C_2  and  N_3 
REMARK    1  A    between atoms: C_2  and  C_5 
REMARK    2  A    between atoms: N_3  and  O_4 
REMARK    3  A    between atoms: C_5  and  C_6 
REMARK    4  A    between atoms: C_5  and  N_17 
REMARK    5  A    between atoms: C_6  and  C_7 
REMARK    6  A    between atoms: N_17  and  S_18 
REMARK    7  A    between atoms: S_18  and  C_21 
ROOT
HETATM    1  C   UNK N   1      25.452  25.038  -9.746  0.00  0.00     0.191 C 
ENDROOT
BRANCH   1   2
HETATM    2  C   UNK N   1      24.591  25.510 -10.890  0.00  0.00     0.264 C 
HETATM    3  O   UNK N   1      24.309  24.739 -11.800  0.00  0.00    -0.269 OA
HETATM    4  N   UNK N   1      24.165  26.793 -10.934  0.00  0.00    -0.236 N 
HETATM    5  H   UNK N   1      24.392  27.405 -10.198  0.00  0.00     0.197 HD
BRANCH   4   6
HETATM    6  O   UNK N   1      23.437  27.240 -11.966  0.00  0.00    -0.287 OA
HETATM    7  H   UNK N   1      23.092  26.631 -12.637  0.00  0.00     0.244 HD
ENDBRANCH   4   6
ENDBRANCH   1   2
BRANCH   1   8
HETATM    8  C   UNK N   1      26.703  25.923  -9.669  0.00  0.00     0.074 C 
BRANCH   8   9
HETATM    9  C   UNK N   1      27.021  26.521  -8.325  0.00  0.00    -0.055 A 
HETATM   10  C   UNK N   1      28.347  26.761  -7.929  0.00  0.00     0.008 A 
HETATM   11  C   UNK N   1      28.631  27.235  -6.646  0.00  0.00     0.013 A 
HETATM   12  C   UNK N   1      27.594  27.441  -5.736  0.00  0.00    -0.026 A 
HETATM   13  C   UNK N   1      27.874  27.880  -4.439  0.00  0.00     0.012 A 
HETATM   14  C   UNK N   1      26.258  27.191  -6.123  0.00  0.00    -0.025 A 
HETATM   15  C   UNK N   1      26.832  28.062  -3.524  0.00  0.00     0.001 A 
HETATM   16  C   UNK N   1      25.510  27.809  -3.904  0.00  0.00     0.001 A 
HETATM   17  C   UNK N   1      25.222  27.377  -5.203  0.00  0.00     0.012 A 
HETATM   18  C   UNK N   1      25.979  26.737  -7.416  0.00  0.00     0.019 A 
ENDBRANCH   8   9
ENDBRANCH   1   8
BRANCH   1  19
HETATM   19  N   UNK N   1      25.909  23.664  -9.973  0.00  0.00    -0.301 N 
HETATM   20  H   UNK N   1      26.283  23.338 -10.864  0.00  0.00     0.173 HD
BRANCH  19  21
HETATM   21  S   UNK N   1      25.744  22.619  -8.543  0.00  0.00     0.259 S 
HETATM   22  O   UNK N   1      26.073  21.187  -8.995  0.00  0.00    -0.201 OA
HETATM   23  O   UNK N   1      24.222  22.525  -8.350  0.00  0.00    -0.201 OA
BRANCH  21  24
HETATM   24  C   UNK N   1      26.535  23.122  -7.017  0.00  0.00     0.080 A 
HETATM   25  C   UNK N   1      25.768  23.464  -5.896  0.00  0.00     0.026 A 
HETATM   26  C   UNK N   1      26.394  23.905  -4.723  0.00  0.00     0.014 A 
HETATM   27  C   UNK N   1      27.788  24.015  -4.676  0.00  0.00    -0.026 A 
HETATM   28  C   UNK N   1      28.425  24.477  -3.521  0.00  0.00     0.012 A 
HETATM   29  C   UNK N   1      28.557  23.665  -5.807  0.00  0.00    -0.025 A 
HETATM   30  C   UNK N   1      29.819  24.595  -3.491  0.00  0.00     0.001 A 
HETATM   31  C   UNK N   1      30.579  24.249  -4.614  0.00  0.00     0.001 A 
HETATM   32  C   UNK N   1      29.949  23.783  -5.771  0.00  0.00     0.012 A 
HETATM   33  C   UNK N   1      27.925  23.217  -6.963  0.00  0.00     0.037 A 
ENDBRANCH  21  24
ENDBRANCH  19  21
ENDBRANCH   1  19
TORSDOF 7
ENDMDL
MODEL 5
REMARK VINA RESULT:      -7.1      4.008      6.678
REMARK  7 active torsions:
REMARK  status: ('A' for Active; 'I' for Inactive)
REMARK       I    between atoms: C_2  and  N_3 
REMARK    1  A    between atoms: C_2  and  C_5 
REMARK    2  A    between atoms: N_3  and  O_4 
REMARK    3  A    between atoms: C_5  and  C_6 
REMARK    4  A    between atoms: C_5  and  N_17 
REMARK    5  A    between atoms: C_6  and  C_7 
REMARK    6  A    between atoms: N_17  and  S_18 
REMARK    7  A    between atoms: S_18  and  C_21 
ROOT
HETATM    1  C   UNK N   1      26.731  27.421  -4.359  0.00  0.00     0.191 C 
ENDROOT
BRANCH   1   2
HETATM    2  C   UNK N   1      26.630  28.682  -3.539  0.00  0.00     0.264 C 
HETATM    3  O   UNK N   1      26.986  28.677  -2.366  0.00  0.00    -0.269 OA
HETATM    4  N   UNK N   1      26.108  29.805  -4.082  0.00  0.00    -0.236 N 
HETATM    5  H   UNK N   1      25.827  29.802  -5.026  0.00  0.00     0.197 HD
BRANCH   4   6
HETATM    6  O   UNK N   1      25.968  30.921  -3.354  0.00  0.00    -0.287 OA
HETATM    7  H   UNK N   1      26.085  30.908  -2.391  0.00  0.00     0.244 HD
ENDBRANCH   4   6
ENDBRANCH   1   2
BRANCH   1   8
HETATM    8  C   UNK N   1      25.809  27.547  -5.578  0.00  0.00     0.074 C 
BRANCH   8   9
HETATM    9  C   UNK N   1      26.358  27.053  -6.890  0.00  0.00    -0.055 A 
HETATM   10  C   UNK N   1      27.613  27.470  -7.359  0.00  0.00     0.008 A 
HETATM   11  C   UNK N   1      28.070  27.073  -8.618  0.00  0.00     0.013 A 
HETATM   12  C   UNK N   1      27.261  26.282  -9.433  0.00  0.00    -0.026 A 
HETATM   13  C   UNK N   1      27.695  25.912 -10.709  0.00  0.00     0.012 A 
HETATM   14  C   UNK N   1      25.990  25.868  -8.974  0.00  0.00    -0.025 A 
HETATM   15  C   UNK N   1      26.869  25.139 -11.531  0.00  0.00     0.001 A 
HETATM   16  C   UNK N   1      25.609  24.733 -11.078  0.00  0.00     0.001 A 
HETATM   17  C   UNK N   1      25.170  25.094  -9.800  0.00  0.00     0.012 A 
HETATM   18  C   UNK N   1      25.548  26.252  -7.704  0.00  0.00     0.019 A 
ENDBRANCH   8   9
ENDBRANCH   1   8
BRANCH   1  19
HETATM   19  N   UNK N   1      26.271  26.263  -3.587  0.00  0.00    -0.301 N 
HETATM   20  H   UNK N   1      25.424  26.269  -3.018  0.00  0.00     0.173 HD
BRANCH  19  21
HETATM   21  S   UNK N   1      27.334  24.845  -3.739  0.00  0.00     0.259 S 
HETATM   22  O   UNK N   1      27.017  23.918  -2.554  0.00  0.00    -0.201 OA
HETATM   23  O   UNK N   1      28.710  25.391  -3.327  0.00  0.00    -0.201 OA
BRANCH  21  24
HETATM   24  C   UNK N   1      27.442  24.020  -5.325  0.00  0.00     0.080 A 
HETATM   25  C   UNK N   1      28.595  24.136  -6.112  0.00  0.00     0.026 A 
HETATM   26  C   UNK N   1      28.651  23.529  -7.372  0.00  0.00     0.014 A 
HETATM   27  C   UNK N   1      27.547  22.815  -7.852  0.00  0.00    -0.026 A 
HETATM   28  C   UNK N   1      27.580  22.224  -9.118  0.00  0.00     0.012 A 
HETATM   29  C   UNK N   1      26.389  22.695  -7.053  0.00  0.00    -0.025 A 
HETATM   30  C   UNK N   1      26.464  21.523  -9.591  0.00  0.00     0.001 A 
HETATM   31  C   UNK N   1      25.317  21.408  -8.798  0.00  0.00     0.001 A 
HETATM   32  C   UNK N   1      25.279  21.992  -7.529  0.00  0.00     0.012 A 
HETATM   33  C   UNK N   1      26.349  23.293  -5.797  0.00  0.00     0.037 A 
ENDBRANCH  21  24
ENDBRANCH  19  21
ENDBRANCH   1  19
TORSDOF 7
ENDMDL
MODEL 6
REMARK VINA RESULT:      -7.1      2.142      3.574
REMARK  7 active torsions:
REMARK  status: ('A' for Active; 'I' for Inactive)
REMARK       I    between atoms: C_2  and  N_3 
REMARK    1  A    between atoms: C_2  and  C_5 
REMARK    2  A    between atoms: N_3  and  O_4 
REMARK    3  A    between atoms: C_5  and  C_6 
REMARK    4  A    between atoms: C_5  and  N_17 
REMARK    5  A    between atoms: C_6  and  C_7 
REMARK    6  A    between atoms: N_17  and  S_18 
REMARK    7  A    between atoms: S_18  and  C_21 
ROOT
HETATM    1  C   UNK N   1      30.354  22.316  -4.023  0.00  0.00     0.191 C 
ENDROOT
BRANCH   1   2
HETATM    2  C   UNK N   1      31.259  22.091  -2.838  0.00  0.00     0.264 C 
HETATM    3  O   UNK N   1      31.108  22.756  -1.820  0.00  0.00    -0.269 OA
HETATM    4  N   UNK N   1      32.263  21.188  -2.913  0.00  0.00    -0.236 N 
HETATM    5  H   UNK N   1      32.376  20.655  -3.733  0.00  0.00     0.197 HD
BRANCH   4   6
HETATM    6  O   UNK N   1      33.104  21.008  -1.886  0.00  0.00    -0.287 OA
HETATM    7  H   UNK N   1      33.272  20.123  -1.526  0.00  0.00     0.244 HD
ENDBRANCH   4   6
ENDBRANCH   1   2
BRANCH   1   8
HETATM    8  C   UNK N   1      28.982  22.778  -3.520  0.00  0.00     0.074 C 
BRANCH   8   9
HETATM    9  C   UNK N   1      28.486  24.102  -4.037  0.00  0.00    -0.055 A 
HETATM   10  C   UNK N   1      29.293  25.249  -3.997  0.00  0.00     0.008 A 
HETATM   11  C   UNK N   1      28.788  26.488  -4.399  0.00  0.00     0.013 A 
HETATM   12  C   UNK N   1      27.461  26.597  -4.812  0.00  0.00    -0.026 A 
HETATM   13  C   UNK N   1      26.938  27.840  -5.179  0.00  0.00     0.012 A 
HETATM   14  C   UNK N   1      26.637  25.449  -4.842  0.00  0.00    -0.025 A 
HETATM   15  C   UNK N   1      25.599  27.947  -5.569  0.00  0.00     0.001 A 
HETATM   16  C   UNK N   1      24.782  26.811  -5.595  0.00  0.00     0.001 A 
HETATM   17  C   UNK N   1      25.300  25.563  -5.234  0.00  0.00     0.012 A 
HETATM   18  C   UNK N   1      27.155  24.208  -4.459  0.00  0.00     0.019 A 
ENDBRANCH   8   9
ENDBRANCH   1   8
BRANCH   1  19
HETATM   19  N   UNK N   1      30.147  21.067  -4.761  0.00  0.00    -0.301 N 
HETATM   20  H   UNK N   1      30.019  20.162  -4.307  0.00  0.00     0.173 HD
BRANCH  19  21
HETATM   21  S   UNK N   1      30.140  21.282  -6.527  0.00  0.00     0.259 S 
HETATM   22  O   UNK N   1      29.627  19.967  -7.136  0.00  0.00    -0.201 OA
HETATM   23  O   UNK N   1      31.631  21.216  -6.895  0.00  0.00    -0.201 OA
BRANCH  21  24
HETATM   24  C   UNK N   1      29.397  22.762  -7.208  0.00  0.00     0.080 A 
HETATM   25  C   UNK N   1      30.135  23.948  -7.310  0.00  0.00     0.026 A 
HETATM   26  C   UNK N   1      29.530  25.114  -7.797  0.00  0.00     0.014 A 
HETATM   27  C   UNK N   1      28.182  25.096  -8.171  0.00  0.00    -0.026 A 
HETATM   28  C   UNK N   1      27.559  26.257  -8.636  0.00  0.00     0.012 A 
HETATM   29  C   UNK N   1      27.443  23.897  -8.072  0.00  0.00    -0.025 A 
HETATM   30  C   UNK N   1      26.206  26.228  -8.995  0.00  0.00     0.001 A 
HETATM   31  C   UNK N   1      25.476  25.039  -8.894  0.00  0.00     0.001 A 
HETATM   32  C   UNK N   1      26.094  23.873  -8.435  0.00  0.00     0.012 A 
HETATM   33  C   UNK N   1      28.058  22.741  -7.598  0.00  0.00     0.037 A 
ENDBRANCH  21  24
ENDBRANCH  19  21
ENDBRANCH   1  19
TORSDOF 7
ENDMDL
MODEL 7
REMARK VINA RESULT:      -7.0     19.298     23.717
REMARK  7 active torsions:
REMARK  status: ('A' for Active; 'I' for Inactive)
REMARK       I    between atoms: C_2  and  N_3 
REMARK    1  A    between atoms: C_2  and  C_5 
REMARK    2  A    between atoms: N_3  and  O_4 
REMARK    3  A    between atoms: C_5  and  C_6 
REMARK    4  A    between atoms: C_5  and  N_17 
REMARK    5  A    between atoms: C_6  and  C_7 
REMARK    6  A    between atoms: N_17  and  S_18 
REMARK    7  A    between atoms: S_18  and  C_21 
ROOT
HETATM    1  C   UNK N   1      35.871  15.070  11.089  0.00  0.00     0.191 C 
ENDROOT
BRANCH   1   2
HETATM    2  C   UNK N   1      35.148  16.224  10.444  0.00  0.00     0.264 C 
HETATM    3  O   UNK N   1      35.657  17.339  10.440  0.00  0.00    -0.269 OA
HETATM    4  N   UNK N   1      33.919  16.041   9.909  0.00  0.00    -0.236 N 
HETATM    5  H   UNK N   1      33.518  15.142   9.913  0.00  0.00     0.197 HD
BRANCH   4   6
HETATM    6  O   UNK N   1      33.243  17.065   9.373  0.00  0.00    -0.287 OA
HETATM    7  H   UNK N   1      32.313  17.225   9.601  0.00  0.00     0.244 HD
ENDBRANCH   4   6
ENDBRANCH   1   2
BRANCH   1   8
HETATM    8  C   UNK N   1      36.276  15.471  12.513  0.00  0.00     0.074 C 
BRANCH   8   9
HETATM    9  C   UNK N   1      36.023  14.456  13.595  0.00  0.00    -0.055 A 
HETATM   10  C   UNK N   1      36.761  14.463  14.789  0.00  0.00     0.008 A 
HETATM   11  C   UNK N   1      36.575  13.463  15.746  0.00  0.00     0.013 A 
HETATM   12  C   UNK N   1      35.673  12.427  15.504  0.00  0.00    -0.026 A 
HETATM   13  C   UNK N   1      35.508  11.403  16.440  0.00  0.00     0.012 A 
HETATM   14  C   UNK N   1      34.934  12.406  14.299  0.00  0.00    -0.025 A 
HETATM   15  C   UNK N   1      34.620  10.355  16.180  0.00  0.00     0.001 A 
HETATM   16  C   UNK N   1      33.892  10.331  14.985  0.00  0.00     0.001 A 
HETATM   17  C   UNK N   1      34.047  11.356  14.046  0.00  0.00     0.012 A 
HETATM   18  C   UNK N   1      35.110  13.422  13.354  0.00  0.00     0.019 A 
ENDBRANCH   8   9
ENDBRANCH   1   8
BRANCH   1  19
HETATM   19  N   UNK N   1      37.104  14.759  10.361  0.00  0.00    -0.301 N 
HETATM   20  H   UNK N   1      37.876  15.418  10.258  0.00  0.00     0.173 HD
BRANCH  19  21
HETATM   21  S   UNK N   1      37.124  13.119   9.671  0.00  0.00     0.259 S 
HETATM   22  O   UNK N   1      38.290  13.067   8.671  0.00  0.00    -0.201 OA
HETATM   23  O   UNK N   1      35.917  13.123   8.719  0.00  0.00    -0.201 OA
BRANCH  21  24
HETATM   24  C   UNK N   1      37.032  11.719  10.785  0.00  0.00     0.080 A 
HETATM   25  C   UNK N   1      36.170  10.649  10.515  0.00  0.00     0.026 A 
HETATM   26  C   UNK N   1      36.069   9.583  11.417  0.00  0.00     0.014 A 
HETATM   27  C   UNK N   1      36.820   9.593  12.597  0.00  0.00    -0.026 A 
HETATM   28  C   UNK N   1      36.710   8.548  13.518  0.00  0.00     0.012 A 
HETATM   29  C   UNK N   1      37.691  10.672  12.863  0.00  0.00    -0.025 A 
HETATM   30  C   UNK N   1      37.458   8.577  14.701  0.00  0.00     0.001 A 
HETATM   31  C   UNK N   1      38.319   9.649  14.963  0.00  0.00     0.001 A 
HETATM   32  C   UNK N   1      38.437  10.695  14.044  0.00  0.00     0.012 A 
HETATM   33  C   UNK N   1      37.793  11.721  11.954  0.00  0.00     0.037 A 
ENDBRANCH  21  24
ENDBRANCH  19  21
ENDBRANCH   1  19
TORSDOF 7
ENDMDL
MODEL 8
REMARK VINA RESULT:      -7.0      3.155      5.314
REMARK  7 active torsions:
REMARK  status: ('A' for Active; 'I' for Inactive)
REMARK       I    between atoms: C_2  and  N_3 
REMARK    1  A    between atoms: C_2  and  C_5 
REMARK    2  A    between atoms: N_3  and  O_4 
REMARK    3  A    between atoms: C_5  and  C_6 
REMARK    4  A    between atoms: C_5  and  N_17 
REMARK    5  A    between atoms: C_6  and  C_7 
REMARK    6  A    between atoms: N_17  and  S_18 
REMARK    7  A    between atoms: S_18  and  C_21 
ROOT
HETATM    1  C   UNK N   1      29.514  23.251  -3.746  0.00  0.00     0.191 C 
ENDROOT
BRANCH   1   2
HETATM    2  C   UNK N   1      30.445  22.735  -2.678  0.00  0.00     0.264 C 
HETATM    3  O   UNK N   1      30.329  23.130  -1.524  0.00  0.00    -0.269 OA
HETATM    4  N   UNK N   1      31.435  21.871  -3.000  0.00  0.00    -0.236 N 
HETATM    5  H   UNK N   1      31.519  21.555  -3.928  0.00  0.00     0.197 HD
BRANCH   4   6
HETATM    6  O   UNK N   1      32.299  21.439  -2.073  0.00  0.00    -0.287 OA
HETATM    7  H   UNK N   1      32.356  21.866  -1.204  0.00  0.00     0.244 HD
ENDBRANCH   4   6
ENDBRANCH   1   2
BRANCH   1   8
HETATM    8  C   UNK N   1      30.315  23.486  -5.031  0.00  0.00     0.074 C 
BRANCH   8   9
HETATM    9  C   UNK N   1      29.694  22.995  -6.311  0.00  0.00    -0.055 A 
HETATM   10  C   UNK N   1      29.266  21.666  -6.451  0.00  0.00     0.008 A 
HETATM   11  C   UNK N   1      28.773  21.202  -7.673  0.00  0.00     0.013 A 
HETATM   12  C   UNK N   1      28.733  22.056  -8.776  0.00  0.00    -0.026 A 
HETATM   13  C   UNK N   1      28.275  21.590 -10.011  0.00  0.00     0.012 A 
HETATM   14  C   UNK N   1      29.173  23.393  -8.646  0.00  0.00    -0.025 A 
HETATM   15  C   UNK N   1      28.261  22.443 -11.118  0.00  0.00     0.001 A 
HETATM   16  C   UNK N   1      28.701  23.765 -10.992  0.00  0.00     0.001 A 
HETATM   17  C   UNK N   1      29.154  24.242  -9.757  0.00  0.00     0.012 A 
HETATM   18  C   UNK N   1      29.646  23.856  -7.414  0.00  0.00     0.019 A 
ENDBRANCH   8   9
ENDBRANCH   1   8
BRANCH   1  19
HETATM   19  N   UNK N   1      28.939  24.540  -3.352  0.00  0.00    -0.301 N 
HETATM   20  H   UNK N   1      29.490  25.304  -2.960  0.00  0.00     0.173 HD
BRANCH  19  21
HETATM   21  S   UNK N   1      27.184  24.644  -3.625  0.00  0.00     0.259 S 
HETATM   22  O   UNK N   1      26.698  25.927  -2.932  0.00  0.00    -0.201 OA
HETATM   23  O   UNK N   1      26.618  23.567  -2.686  0.00  0.00    -0.201 OA
BRANCH  21  24
HETATM   24  C   UNK N   1      26.559  24.409  -5.288  0.00  0.00     0.080 A 
HETATM   25  C   UNK N   1      26.043  23.169  -5.687  0.00  0.00     0.026 A 
HETATM   26  C   UNK N   1      25.604  22.982  -7.003  0.00  0.00     0.014 A 
HETATM   27  C   UNK N   1      25.692  24.031  -7.924  0.00  0.00    -0.026 A 
HETATM   28  C   UNK N   1      25.279  23.850  -9.248  0.00  0.00     0.012 A 
HETATM   29  C   UNK N   1      26.207  25.280  -7.516  0.00  0.00    -0.025 A 
HETATM   30  C   UNK N   1      25.385  24.904 -10.162  0.00  0.00     0.001 A 
HETATM   31  C   UNK N   1      25.898  26.141  -9.756  0.00  0.00     0.001 A 
HETATM   32  C   UNK N   1      26.308  26.330  -8.433  0.00  0.00     0.012 A 
HETATM   33  C   UNK N   1      26.630  25.459  -6.202  0.00  0.00     0.037 A 
ENDBRANCH  21  24
ENDBRANCH  19  21
ENDBRANCH   1  19
TORSDOF 7
ENDMDL
MODEL 9
REMARK VINA RESULT:      -6.9     20.610     24.977
REMARK  7 active torsions:
REMARK  status: ('A' for Active; 'I' for Inactive)
REMARK       I    between atoms: C_2  and  N_3 
REMARK    1  A    between atoms: C_2  and  C_5 
REMARK    2  A    between atoms: N_3  and  O_4 
REMARK    3  A    between atoms: C_5  and  C_6 
REMARK    4  A    between atoms: C_5  and  N_17 
REMARK    5  A    between atoms: C_6  and  C_7 
REMARK    6  A    between atoms: N_17  and  S_18 
REMARK    7  A    between atoms: S_18  and  C_21 
ROOT
HETATM    1  C   UNK N   1      36.126  14.147  11.721  0.00  0.00     0.191 C 
ENDROOT
BRANCH   1   2
HETATM    2  C   UNK N   1      35.934  15.475  11.033  0.00  0.00     0.264 C 
HETATM    3  O   UNK N   1      36.907  16.094  10.618  0.00  0.00    -0.269 OA
HETATM    4  N   UNK N   1      34.695  16.005  10.913  0.00  0.00    -0.236 N 
HETATM    5  H   UNK N   1      33.918  15.500  11.247  0.00  0.00     0.197 HD
BRANCH   4   6
HETATM    6  O   UNK N   1      34.511  17.204  10.347  0.00  0.00    -0.287 OA
HETATM    7  H   UNK N   1      35.253  17.817  10.220  0.00  0.00     0.244 HD
ENDBRANCH   4   6
ENDBRANCH   1   2
BRANCH   1   8
HETATM    8  C   UNK N   1      35.913  14.333  13.228  0.00  0.00     0.074 C 
BRANCH   8   9
HETATM    9  C   UNK N   1      35.522  13.107  14.008  0.00  0.00    -0.055 A 
HETATM   10  C   UNK N   1      34.570  12.201  13.516  0.00  0.00     0.008 A 
HETATM   11  C   UNK N   1      34.153  11.116  14.290  0.00  0.00     0.013 A 
HETATM   12  C   UNK N   1      34.661  10.945  15.578  0.00  0.00    -0.026 A 
HETATM   13  C   UNK N   1      34.222   9.883  16.373  0.00  0.00     0.012 A 
HETATM   14  C   UNK N   1      35.611  11.859  16.086  0.00  0.00    -0.025 A 
HETATM   15  C   UNK N   1      34.716   9.731  17.672  0.00  0.00     0.001 A 
HETATM   16  C   UNK N   1      35.654  10.638  18.177  0.00  0.00     0.001 A 
HETATM   17  C   UNK N   1      36.103  11.700  17.385  0.00  0.00     0.012 A 
HETATM   18  C   UNK N   1      36.040  12.931  15.297  0.00  0.00     0.019 A 
ENDBRANCH   8   9
ENDBRANCH   1   8
BRANCH   1  19
HETATM   19  N   UNK N   1      37.496  13.661  11.535  0.00  0.00    -0.301 N 
HETATM   20  H   UNK N   1      38.323  14.204  11.784  0.00  0.00     0.173 HD
BRANCH  19  21
HETATM   21  S   UNK N   1      37.577  12.030  10.829  0.00  0.00     0.259 S 
HETATM   22  O   UNK N   1      38.903  11.941  10.057  0.00  0.00    -0.201 OA
HETATM   23  O   UNK N   1      36.566  12.096   9.673  0.00  0.00    -0.201 OA
BRANCH  21  24
HETATM   24  C   UNK N   1      37.228  10.622  11.880  0.00  0.00     0.080 A 
HETATM   25  C   UNK N   1      36.300   9.650  11.485  0.00  0.00     0.026 A 
HETATM   26  C   UNK N   1      35.997   8.580  12.336  0.00  0.00     0.014 A 
HETATM   27  C   UNK N   1      36.614   8.488  13.589  0.00  0.00    -0.026 A 
HETATM   28  C   UNK N   1      36.303   7.439  14.458  0.00  0.00     0.012 A 
HETATM   29  C   UNK N   1      37.553   9.467  13.980  0.00  0.00    -0.025 A 
HETATM   30  C   UNK N   1      36.918   7.367  15.713  0.00  0.00     0.001 A 
HETATM   31  C   UNK N   1      37.847   8.339  16.100  0.00  0.00     0.001 A 
HETATM   32  C   UNK N   1      38.165   9.388  15.234  0.00  0.00     0.012 A 
HETATM   33  C   UNK N   1      37.855  10.520  13.122  0.00  0.00     0.037 A 
ENDBRANCH  21  24
ENDBRANCH  19  21
ENDBRANCH   1  19
TORSDOF 7
ENDMDL
