MODEL 1
REMARK VINA RESULT:      -6.4      0.000      0.000
REMARK  4 active torsions:
REMARK  status: ('A' for Active; 'I' for Inactive)
REMARK    1  A    between atoms: C_3  and  N_9 
REMARK       I    between atoms: C_6  and  N_17 
REMARK    2  A    between atoms: N_16  and  C_18 
REMARK    3  A    between atoms: C_18  and  C_19 
REMARK    4  A    between atoms: C_18  and  C_21 
ROOT
HETATM    1  C   UNK N   1      30.128  17.118   8.480  0.00  0.00     0.064 A 
HETATM    2  C   UNK N   1      30.330  16.733   7.131  0.00  0.00     0.048 A 
HETATM    3  C   UNK N   1      31.353  15.808   6.853  0.00  0.00     0.128 A 
HETATM    4  N   UNK N   1      32.110  15.323   7.873  0.00  0.00    -0.176 N 
ATOM      5  HN  UNK N   1      32.850  14.651   7.669  1.00  0.00     0.186 HD
HETATM    6  C   UNK N   1      31.903  15.715   9.158  0.00  0.00     0.677 A 
HETATM    7  N   UNK N   1      30.919  16.603   9.454  0.00  0.00    -0.191 N 
ATOM      8  HN  UNK N   1      30.774  16.886  10.423  1.00  0.00     0.184 HD
HETATM    9  C   UNK N   1      29.108  18.031   8.815  0.00  0.00     0.033 A 
HETATM   10  C   UNK N   1      28.279  18.568   7.818  0.00  0.00     0.033 A 
HETATM   11  C   UNK N   1      28.502  18.186   6.495  0.00  0.00     0.046 A 
HETATM   12  C   UNK N   1      29.492  17.303   6.156  0.00  0.00     0.008 A 
HETATM   13  C   UNK N   1      29.456  17.145   4.782  0.00  0.00     0.032 A 
HETATM   14  C   UNK N   1      28.420  17.967   4.339  0.00  0.00     0.092 A 
HETATM   15  N   UNK N   1      27.843  18.596   5.394  0.00  0.00    -0.351 N 
HETATM   16  N   UNK N   1      32.710  15.194  10.189  0.00  0.00    -0.234 N 
HETATM   17  H   UNK N   1      33.385  14.505   9.985  0.00  0.00     0.174 HD
HETATM   18  H   UNK N   1      32.600  15.517  11.111  0.00  0.00     0.174 HD
ENDROOT
BRANCH  15  19
HETATM   19  C   UNK N   1      26.697  19.522   5.330  0.00  0.00     0.089 C 
BRANCH  19  20
HETATM   20  C   UNK N   1      27.150  20.976   5.275  0.00  0.00     0.021 C 
HETATM   21  C   UNK N   1      26.744  21.669   6.565  0.00  0.00     0.007 C 
ENDBRANCH  19  20
BRANCH  19  22
HETATM   22  C   UNK N   1      25.794  19.211   4.131  0.00  0.00     0.021 C 
HETATM   23  C   UNK N   1      25.791  20.344   3.120  0.00  0.00     0.007 C 
ENDBRANCH  19  22
ENDBRANCH  15  19
BRANCH   3  24
HETATM   24  N   UNK N   1      31.604  15.365   5.537  0.00  0.00    -0.384 N 
HETATM   25  H   UNK N   1      31.832  14.423   5.368  0.00  0.00     0.157 HD
HETATM   26  H   UNK N   1      31.549  16.001   4.787  0.00  0.00     0.157 HD
ENDBRANCH   3  24
TORSDOF 4
ENDMDL
MODEL 2
REMARK VINA RESULT:      -6.2      1.130      2.825
REMARK  4 active torsions:
REMARK  status: ('A' for Active; 'I' for Inactive)
REMARK    1  A    between atoms: C_3  and  N_9 
REMARK       I    between atoms: C_6  and  N_17 
REMARK    2  A    between atoms: N_16  and  C_18 
REMARK    3  A    between atoms: C_18  and  C_19 
REMARK    4  A    between atoms: C_18  and  C_21 
ROOT
HETATM    1  C   UNK N   1      30.619  16.312   6.744  0.00  0.00     0.064 A 
HETATM    2  C   UNK N   1      30.013  17.329   7.523  0.00  0.00     0.048 A 
HETATM    3  C   UNK N   1      30.459  17.502   8.846  0.00  0.00     0.128 A 
HETATM    4  N   UNK N   1      31.439  16.695   9.332  0.00  0.00    -0.176 N 
ATOM      5  HN  UNK N   1      31.762  16.824  10.291  1.00  0.00     0.186 HD
HETATM    6  C   UNK N   1      31.998  15.720   8.567  0.00  0.00     0.677 A 
HETATM    7  N   UNK N   1      31.590  15.536   7.286  0.00  0.00    -0.191 N 
ATOM      8  HN  UNK N   1      32.020  14.801   6.722  1.00  0.00     0.184 HD
HETATM    9  C   UNK N   1      30.219  16.105   5.408  0.00  0.00     0.033 A 
HETATM   10  C   UNK N   1      29.219  16.905   4.833  0.00  0.00     0.033 A 
HETATM   11  C   UNK N   1      28.628  17.893   5.621  0.00  0.00     0.046 A 
HETATM   12  C   UNK N   1      29.003  18.100   6.921  0.00  0.00     0.008 A 
HETATM   13  C   UNK N   1      28.226  19.132   7.418  0.00  0.00     0.032 A 
HETATM   14  C   UNK N   1      27.388  19.508   6.369  0.00  0.00     0.092 A 
HETATM   15  N   UNK N   1      27.644  18.745   5.276  0.00  0.00    -0.351 N 
HETATM   16  N   UNK N   1      33.010  14.901   9.106  0.00  0.00    -0.234 N 
HETATM   17  H   UNK N   1      33.349  15.071  10.015  0.00  0.00     0.174 HD
HETATM   18  H   UNK N   1      33.376  14.158   8.574  0.00  0.00     0.174 HD
ENDROOT
BRANCH  15  19
HETATM   19  C   UNK N   1      26.982  18.865   3.963  0.00  0.00     0.089 C 
BRANCH  19  20
HETATM   20  C   UNK N   1      25.684  18.069   3.912  0.00  0.00     0.021 C 
HETATM   21  C   UNK N   1      25.930  16.770   3.163  0.00  0.00     0.007 C 
ENDBRANCH  19  20
BRANCH  19  22
HETATM   22  C   UNK N   1      26.710  20.330   3.605  0.00  0.00     0.021 C 
HETATM   23  C   UNK N   1      25.473  20.477   2.736  0.00  0.00     0.007 C 
ENDBRANCH  19  22
ENDBRANCH  15  19
BRANCH   3  24
HETATM   24  N   UNK N   1      29.914  18.504   9.679  0.00  0.00    -0.384 N 
HETATM   25  H   UNK N   1      30.261  18.630  10.591  0.00  0.00     0.157 HD
HETATM   26  H   UNK N   1      29.187  19.078   9.345  0.00  0.00     0.157 HD
ENDBRANCH   3  24
TORSDOF 4
ENDMDL
MODEL 3
REMARK VINA RESULT:      -6.1      3.710      6.188
REMARK  4 active torsions:
REMARK  status: ('A' for Active; 'I' for Inactive)
REMARK    1  A    between atoms: C_3  and  N_9 
REMARK       I    between atoms: C_6  and  N_17 
REMARK    2  A    between atoms: N_16  and  C_18 
REMARK    3  A    between atoms: C_18  and  C_19 
REMARK    4  A    between atoms: C_18  and  C_21 
ROOT
HETATM    1  C   UNK N   1      35.793  14.518   8.392  0.00  0.00     0.064 A 
HETATM    2  C   UNK N   1      35.205  15.638   9.031  0.00  0.00     0.048 A 
HETATM    3  C   UNK N   1      35.694  16.009  10.297  0.00  0.00     0.128 A 
HETATM    4  N   UNK N   1      36.697  15.288  10.863  0.00  0.00    -0.176 N 
ATOM      5  HN  UNK N   1      37.051  15.561  11.780  1.00  0.00     0.186 HD
HETATM    6  C   UNK N   1      37.239  14.212  10.234  0.00  0.00     0.677 A 
HETATM    7  N   UNK N   1      36.789  13.835   9.010  0.00  0.00    -0.191 N 
ATOM      8  HN  UNK N   1      37.207  13.026   8.548  1.00  0.00     0.184 HD
HETATM    9  C   UNK N   1      35.351  14.111   7.117  0.00  0.00     0.033 A 
HETATM   10  C   UNK N   1      34.324  14.811   6.464  0.00  0.00     0.033 A 
HETATM   11  C   UNK N   1      33.751  15.904   7.115  0.00  0.00     0.046 A 
HETATM   12  C   UNK N   1      34.168  16.306   8.355  0.00  0.00     0.008 A 
HETATM   13  C   UNK N   1      33.399  17.397   8.719  0.00  0.00     0.032 A 
HETATM   14  C   UNK N   1      32.523  17.607   7.656  0.00  0.00     0.092 A 
HETATM   15  N   UNK N   1      32.748  16.691   6.681  0.00  0.00    -0.351 N 
HETATM   16  N   UNK N   1      38.276  13.486  10.854  0.00  0.00    -0.234 N 
HETATM   17  H   UNK N   1      38.644  13.793  11.715  0.00  0.00     0.174 HD
HETATM   18  H   UNK N   1      38.631  12.674  10.427  0.00  0.00     0.174 HD
ENDROOT
BRANCH  15  19
HETATM   19  C   UNK N   1      32.040  16.609   5.389  0.00  0.00     0.089 C 
BRANCH  19  20
HETATM   20  C   UNK N   1      30.583  17.034   5.517  0.00  0.00     0.021 C 
HETATM   21  C   UNK N   1      29.742  15.817   5.863  0.00  0.00     0.007 C 
ENDBRANCH  19  20
BRANCH  19  22
HETATM   22  C   UNK N   1      32.738  17.452   4.316  0.00  0.00     0.021 C 
HETATM   23  C   UNK N   1      32.976  16.658   3.043  0.00  0.00     0.007 C 
ENDBRANCH  19  22
ENDBRANCH  15  19
BRANCH   3  24
HETATM   24  N   UNK N   1      35.169  17.122  10.988  0.00  0.00    -0.384 N 
HETATM   25  H   UNK N   1      34.280  17.475  10.754  0.00  0.00     0.157 HD
HETATM   26  H   UNK N   1      35.693  17.546  11.705  0.00  0.00     0.157 HD
ENDBRANCH   3  24
TORSDOF 4
ENDMDL
MODEL 4
REMARK VINA RESULT:      -6.1      1.933      2.374
REMARK  4 active torsions:
REMARK  status: ('A' for Active; 'I' for Inactive)
REMARK    1  A    between atoms: C_3  and  N_9 
REMARK       I    between atoms: C_6  and  N_17 
REMARK    2  A    between atoms: N_16  and  C_18 
REMARK    3  A    between atoms: C_18  and  C_19 
REMARK    4  A    between atoms: C_18  and  C_21 
ROOT
HETATM    1  C   UNK N   1      31.705  17.378   8.180  0.00  0.00     0.064 A 
HETATM    2  C   UNK N   1      32.137  17.091   6.861  0.00  0.00     0.048 A 
HETATM    3  C   UNK N   1      33.504  16.831   6.654  0.00  0.00     0.128 A 
HETATM    4  N   UNK N   1      34.358  16.867   7.711  0.00  0.00    -0.176 N 
ATOM      5  HN  UNK N   1      35.348  16.675   7.558  1.00  0.00     0.186 HD
HETATM    6  C   UNK N   1      33.921  17.153   8.966  0.00  0.00     0.677 A 
HETATM    7  N   UNK N   1      32.607  17.403   9.194  0.00  0.00    -0.191 N 
ATOM      8  HN  UNK N   1      32.293  17.615  10.141  1.00  0.00     0.184 HD
HETATM    9  C   UNK N   1      30.345  17.633   8.445  0.00  0.00     0.033 A 
HETATM   10  C   UNK N   1      29.401  17.604   7.407  0.00  0.00     0.033 A 
HETATM   11  C   UNK N   1      29.848  17.332   6.114  0.00  0.00     0.046 A 
HETATM   12  C   UNK N   1      31.167  17.087   5.843  0.00  0.00     0.008 A 
HETATM   13  C   UNK N   1      31.278  16.867   4.481  0.00  0.00     0.032 A 
HETATM   14  C   UNK N   1      29.985  16.998   3.975  0.00  0.00     0.092 A 
HETATM   15  N   UNK N   1      29.120  17.280   4.982  0.00  0.00    -0.351 N 
HETATM   16  N   UNK N   1      34.837  17.185  10.036  0.00  0.00    -0.234 N 
HETATM   17  H   UNK N   1      35.780  16.945   9.884  0.00  0.00     0.174 HD
HETATM   18  H   UNK N   1      34.534  17.447  10.935  0.00  0.00     0.174 HD
ENDROOT
BRANCH  15  19
HETATM   19  C   UNK N   1      27.662  17.461   4.846  0.00  0.00     0.089 C 
BRANCH  19  20
HETATM   20  C   UNK N   1      27.322  18.620   3.918  0.00  0.00     0.021 C 
HETATM   21  C   UNK N   1      27.765  19.920   4.568  0.00  0.00     0.007 C 
ENDBRANCH  19  20
BRANCH  19  22
HETATM   22  C   UNK N   1      26.984  16.179   4.349  0.00  0.00     0.021 C 
HETATM   23  C   UNK N   1      26.361  16.366   2.977  0.00  0.00     0.007 C 
ENDBRANCH  19  22
ENDBRANCH  15  19
BRANCH   3  24
HETATM   24  N   UNK N   1      34.006  16.522   5.371  0.00  0.00    -0.384 N 
HETATM   25  H   UNK N   1      33.500  15.926   4.773  0.00  0.00     0.157 HD
HETATM   26  H   UNK N   1      34.863  16.905   5.075  0.00  0.00     0.157 HD
ENDBRANCH   3  24
TORSDOF 4
ENDMDL
MODEL 5
REMARK VINA RESULT:      -6.0      4.518      8.538
REMARK  4 active torsions:
REMARK  status: ('A' for Active; 'I' for Inactive)
REMARK    1  A    between atoms: C_3  and  N_9 
REMARK       I    between atoms: C_6  and  N_17 
REMARK    2  A    between atoms: N_16  and  C_18 
REMARK    3  A    between atoms: C_18  and  C_19 
REMARK    4  A    between atoms: C_18  and  C_21 
ROOT
HETATM    1  C   UNK N   1      21.939  19.368   3.106  0.00  0.00     0.064 A 
HETATM    2  C   UNK N   1      22.242  18.165   3.790  0.00  0.00     0.048 A 
HETATM    3  C   UNK N   1      21.212  17.220   3.953  0.00  0.00     0.128 A 
HETATM    4  N   UNK N   1      19.975  17.489   3.461  0.00  0.00    -0.176 N 
ATOM      5  HN  UNK N   1      19.230  16.801   3.578  1.00  0.00     0.186 HD
HETATM    6  C   UNK N   1      19.706  18.655   2.816  0.00  0.00     0.677 A 
HETATM    7  N   UNK N   1      20.683  19.582   2.641  0.00  0.00    -0.191 N 
ATOM      8  HN  UNK N   1      20.468  20.452   2.152  1.00  0.00     0.184 HD
HETATM    9  C   UNK N   1      22.937  20.343   2.903  0.00  0.00     0.033 A 
HETATM   10  C   UNK N   1      24.242  20.133   3.375  0.00  0.00     0.033 A 
HETATM   11  C   UNK N   1      24.516  18.947   4.057  0.00  0.00     0.046 A 
HETATM   12  C   UNK N   1      23.555  17.994   4.264  0.00  0.00     0.008 A 
HETATM   13  C   UNK N   1      24.141  16.959   4.971  0.00  0.00     0.032 A 
HETATM   14  C   UNK N   1      25.465  17.346   5.171  0.00  0.00     0.092 A 
HETATM   15  N   UNK N   1      25.684  18.561   4.606  0.00  0.00    -0.351 N 
HETATM   16  N   UNK N   1      18.410  18.901   2.321  0.00  0.00    -0.234 N 
HETATM   17  H   UNK N   1      17.716  18.206   2.394  0.00  0.00     0.174 HD
HETATM   18  H   UNK N   1      18.199  19.766   1.904  0.00  0.00     0.174 HD
ENDROOT
BRANCH  15  19
HETATM   19  C   UNK N   1      26.968  19.286   4.583  0.00  0.00     0.089 C 
BRANCH  19  20
HETATM   20  C   UNK N   1      27.316  19.859   5.951  0.00  0.00     0.021 C 
HETATM   21  C   UNK N   1      26.869  21.309   6.008  0.00  0.00     0.007 C 
ENDBRANCH  19  20
BRANCH  19  22
HETATM   22  C   UNK N   1      28.108  18.390   4.086  0.00  0.00     0.021 C 
HETATM   23  C   UNK N   1      29.076  18.041   5.202  0.00  0.00     0.007 C 
ENDBRANCH  19  22
ENDBRANCH  15  19
BRANCH   3  24
HETATM   24  N   UNK N   1      21.441  15.991   4.610  0.00  0.00    -0.384 N 
HETATM   25  H   UNK N   1      22.192  15.417   4.336  0.00  0.00     0.157 HD
HETATM   26  H   UNK N   1      20.849  15.710   5.344  0.00  0.00     0.157 HD
ENDBRANCH   3  24
TORSDOF 4
ENDMDL
MODEL 6
REMARK VINA RESULT:      -6.0      8.411     10.622
REMARK  4 active torsions:
REMARK  status: ('A' for Active; 'I' for Inactive)
REMARK    1  A    between atoms: C_3  and  N_9 
REMARK       I    between atoms: C_6  and  N_17 
REMARK    2  A    between atoms: N_16  and  C_18 
REMARK    3  A    between atoms: C_18  and  C_19 
REMARK    4  A    between atoms: C_18  and  C_21 
ROOT
HETATM    1  C   UNK N   1      20.984  18.906   3.541  0.00  0.00     0.064 A 
HETATM    2  C   UNK N   1      20.457  17.636   3.197  0.00  0.00     0.048 A 
HETATM    3  C   UNK N   1      19.998  17.445   1.881  0.00  0.00     0.128 A 
HETATM    4  N   UNK N   1      20.067  18.473   0.993  0.00  0.00    -0.176 N 
ATOM      5  HN  UNK N   1      19.736  18.331   0.039  1.00  0.00     0.186 HD
HETATM    6  C   UNK N   1      20.569  19.685   1.350  0.00  0.00     0.677 A 
HETATM    7  N   UNK N   1      21.024  19.894   2.612  0.00  0.00    -0.191 N 
ATOM      8  HN  UNK N   1      21.400  20.808   2.866  1.00  0.00     0.184 HD
HETATM    9  C   UNK N   1      21.471  19.146   4.842  0.00  0.00     0.033 A 
HETATM   10  C   UNK N   1      21.441  18.131   5.811  0.00  0.00     0.033 A 
HETATM   11  C   UNK N   1      20.906  16.893   5.455  0.00  0.00     0.046 A 
HETATM   12  C   UNK N   1      20.427  16.648   4.197  0.00  0.00     0.008 A 
HETATM   13  C   UNK N   1      19.964  15.344   4.174  0.00  0.00     0.032 A 
HETATM   14  C   UNK N   1      20.185  14.848   5.459  0.00  0.00     0.092 A 
HETATM   15  N   UNK N   1      20.763  15.801   6.232  0.00  0.00    -0.351 N 
HETATM   16  N   UNK N   1      20.623  20.727   0.404  0.00  0.00    -0.234 N 
HETATM   17  H   UNK N   1      20.349  20.561  -0.528  0.00  0.00     0.174 HD
HETATM   18  H   UNK N   1      20.933  21.621   0.674  0.00  0.00     0.174 HD
ENDROOT
BRANCH  15  19
HETATM   19  C   UNK N   1      21.175  15.643   7.639  0.00  0.00     0.089 C 
BRANCH  19  20
HETATM   20  C   UNK N   1      19.981  15.683   8.584  0.00  0.00     0.021 C 
HETATM   21  C   UNK N   1      19.598  17.131   8.835  0.00  0.00     0.007 C 
ENDBRANCH  19  20
BRANCH  19  22
HETATM   22  C   UNK N   1      21.964  14.345   7.848  0.00  0.00     0.021 C 
HETATM   23  C   UNK N   1      21.338  13.474   8.924  0.00  0.00     0.007 C 
ENDBRANCH  19  22
ENDBRANCH  15  19
BRANCH   3  24
HETATM   24  N   UNK N   1      19.474  16.204   1.459  0.00  0.00    -0.384 N 
HETATM   25  H   UNK N   1      19.301  16.040   0.504  0.00  0.00     0.157 HD
HETATM   26  H   UNK N   1      19.282  15.502   2.122  0.00  0.00     0.157 HD
ENDBRANCH   3  24
TORSDOF 4
ENDMDL
MODEL 7
REMARK VINA RESULT:      -5.7     11.520     15.125
REMARK  4 active torsions:
REMARK  status: ('A' for Active; 'I' for Inactive)
REMARK    1  A    between atoms: C_3  and  N_9 
REMARK       I    between atoms: C_6  and  N_17 
REMARK    2  A    between atoms: N_16  and  C_18 
REMARK    3  A    between atoms: C_18  and  C_19 
REMARK    4  A    between atoms: C_18  and  C_21 
ROOT
HETATM    1  C   UNK N   1      35.784  13.157  16.422  0.00  0.00     0.064 A 
HETATM    2  C   UNK N   1      35.768  11.779  16.092  0.00  0.00     0.048 A 
HETATM    3  C   UNK N   1      36.064  11.412  14.767  0.00  0.00     0.128 A 
HETATM    4  N   UNK N   1      36.347  12.378  13.854  0.00  0.00    -0.176 N 
ATOM      5  HN  UNK N   1      36.564  12.109  12.894  1.00  0.00     0.186 HD
HETATM    6  C   UNK N   1      36.348  13.695  14.192  0.00  0.00     0.677 A 
HETATM    7  N   UNK N   1      36.070  14.075  15.466  0.00  0.00    -0.191 N 
ATOM      8  HN  UNK N   1      36.077  15.067  15.706  1.00  0.00     0.184 HD
HETATM    9  C   UNK N   1      35.509  13.578  17.739  0.00  0.00     0.033 A 
HETATM   10  C   UNK N   1      35.216  12.638  18.739  0.00  0.00     0.033 A 
HETATM   11  C   UNK N   1      35.193  11.287  18.391  0.00  0.00     0.046 A 
HETATM   12  C   UNK N   1      35.455  10.866  17.115  0.00  0.00     0.008 A 
HETATM   13  C   UNK N   1      35.342   9.487  17.102  0.00  0.00     0.032 A 
HETATM   14  C   UNK N   1      35.001   9.127  18.405  0.00  0.00     0.092 A 
HETATM   15  N   UNK N   1      34.915  10.234  19.184  0.00  0.00    -0.351 N 
HETATM   16  N   UNK N   1      36.643  14.669  13.218  0.00  0.00    -0.234 N 
HETATM   17  H   UNK N   1      36.903  14.392  12.309  0.00  0.00     0.174 HD
HETATM   18  H   UNK N   1      36.589  15.624  13.446  0.00  0.00     0.174 HD
ENDROOT
BRANCH  15  19
HETATM   19  C   UNK N   1      34.606  10.257  20.627  0.00  0.00     0.089 C 
BRANCH  19  20
HETATM   20  C   UNK N   1      33.263   9.603  20.925  0.00  0.00     0.021 C 
HETATM   21  C   UNK N   1      32.601  10.338  22.078  0.00  0.00     0.007 C 
ENDBRANCH  19  20
BRANCH  19  22
HETATM   22  C   UNK N   1      35.710   9.579  21.445  0.00  0.00     0.021 C 
HETATM   23  C   UNK N   1      37.050  10.272  21.266  0.00  0.00     0.007 C 
ENDBRANCH  19  22
ENDBRANCH  15  19
BRANCH   3  24
HETATM   24  N   UNK N   1      36.082  10.058  14.367  0.00  0.00    -0.384 N 
HETATM   25  H   UNK N   1      36.915   9.652  14.037  0.00  0.00     0.157 HD
HETATM   26  H   UNK N   1      35.259   9.520  14.420  0.00  0.00     0.157 HD
ENDBRANCH   3  24
TORSDOF 4
ENDMDL
MODEL 8
REMARK VINA RESULT:      -5.7     11.182     13.284
REMARK  4 active torsions:
REMARK  status: ('A' for Active; 'I' for Inactive)
REMARK    1  A    between atoms: C_3  and  N_9 
REMARK       I    between atoms: C_6  and  N_17 
REMARK    2  A    between atoms: N_16  and  C_18 
REMARK    3  A    between atoms: C_18  and  C_19 
REMARK    4  A    between atoms: C_18  and  C_21 
ROOT
HETATM    1  C   UNK N   1      29.973  21.631  -5.478  0.00  0.00     0.064 A 
HETATM    2  C   UNK N   1      29.810  22.437  -4.324  0.00  0.00     0.048 A 
HETATM    3  C   UNK N   1      30.581  22.130  -3.188  0.00  0.00     0.128 A 
HETATM    4  N   UNK N   1      31.443  21.080  -3.230  0.00  0.00    -0.176 N 
ATOM      5  HN  UNK N   1      32.003  20.860  -2.406  1.00  0.00     0.186 HD
HETATM    6  C   UNK N   1      31.575  20.315  -4.346  0.00  0.00     0.677 A 
HETATM    7  N   UNK N   1      30.846  20.593  -5.458  0.00  0.00    -0.191 N 
ATOM      8  HN  UNK N   1      30.957  20.012  -6.289  1.00  0.00     0.184 HD
HETATM    9  C   UNK N   1      29.235  21.904  -6.647  0.00  0.00     0.033 A 
HETATM   10  C   UNK N   1      28.332  22.978  -6.684  0.00  0.00     0.033 A 
HETATM   11  C   UNK N   1      28.178  23.752  -5.533  0.00  0.00     0.046 A 
HETATM   12  C   UNK N   1      28.885  23.494  -4.390  0.00  0.00     0.008 A 
HETATM   13  C   UNK N   1      28.497  24.425  -3.443  0.00  0.00     0.032 A 
HETATM   14  C   UNK N   1      27.541  25.222  -4.072  0.00  0.00     0.092 A 
HETATM   15  N   UNK N   1      27.356  24.803  -5.349  0.00  0.00    -0.351 N 
HETATM   16  N   UNK N   1      32.476  19.232  -4.352  0.00  0.00    -0.234 N 
HETATM   17  H   UNK N   1      33.049  19.064  -3.568  0.00  0.00     0.174 HD
HETATM   18  H   UNK N   1      32.532  18.643  -5.138  0.00  0.00     0.174 HD
ENDROOT
BRANCH  15  19
HETATM   19  C   UNK N   1      26.447  25.414  -6.338  0.00  0.00     0.089 C 
BRANCH  19  20
HETATM   20  C   UNK N   1      25.093  25.748  -5.727  0.00  0.00     0.021 C 
HETATM   21  C   UNK N   1      24.927  27.258  -5.689  0.00  0.00     0.007 C 
ENDBRANCH  19  20
BRANCH  19  22
HETATM   22  C   UNK N   1      27.064  26.670  -6.962  0.00  0.00     0.021 C 
HETATM   23  C   UNK N   1      27.342  26.485  -8.443  0.00  0.00     0.007 C 
ENDBRANCH  19  22
ENDBRANCH  15  19
BRANCH   3  24
HETATM   24  N   UNK N   1      30.486  22.897  -2.007  0.00  0.00    -0.384 N 
HETATM   25  H   UNK N   1      29.617  23.266  -1.727  0.00  0.00     0.157 HD
HETATM   26  H   UNK N   1      31.289  23.062  -1.462  0.00  0.00     0.157 HD
ENDBRANCH   3  24
TORSDOF 4
ENDMDL
MODEL 9
REMARK VINA RESULT:      -5.7      1.773      6.638
REMARK  4 active torsions:
REMARK  status: ('A' for Active; 'I' for Inactive)
REMARK    1  A    between atoms: C_3  and  N_9 
REMARK       I    between atoms: C_6  and  N_17 
REMARK    2  A    between atoms: N_16  and  C_18 
REMARK    3  A    between atoms: C_18  and  C_19 
REMARK    4  A    between atoms: C_18  and  C_21 
ROOT
HETATM    1  C   UNK N   1      28.930  18.269   5.261  0.00  0.00     0.064 A 
HETATM    2  C   UNK N   1      28.826  18.296   6.674  0.00  0.00     0.048 A 
HETATM    3  C   UNK N   1      27.753  19.004   7.245  0.00  0.00     0.128 A 
HETATM    4  N   UNK N   1      26.864  19.637   6.435  0.00  0.00    -0.176 N 
ATOM      5  HN  UNK N   1      26.085  20.148   6.852  1.00  0.00     0.186 HD
HETATM    6  C   UNK N   1      26.991  19.605   5.082  0.00  0.00     0.677 A 
HETATM    7  N   UNK N   1      28.014  18.924   4.505  0.00  0.00    -0.191 N 
ATOM      8  HN  UNK N   1      28.095  18.906   3.488  1.00  0.00     0.184 HD
HETATM    9  C   UNK N   1      29.978  17.562   4.637  0.00  0.00     0.033 A 
HETATM   10  C   UNK N   1      30.930  16.876   5.407  0.00  0.00     0.033 A 
HETATM   11  C   UNK N   1      30.816  16.925   6.797  0.00  0.00     0.046 A 
HETATM   12  C   UNK N   1      29.806  17.611   7.415  0.00  0.00     0.008 A 
HETATM   13  C   UNK N   1      29.983  17.472   8.780  0.00  0.00     0.032 A 
HETATM   14  C   UNK N   1      31.129  16.691   8.930  0.00  0.00     0.092 A 
HETATM   15  N   UNK N   1      31.628  16.361   7.712  0.00  0.00    -0.351 N 
HETATM   16  N   UNK N   1      26.052  20.276   4.274  0.00  0.00    -0.234 N 
HETATM   17  H   UNK N   1      25.275  20.720   4.687  0.00  0.00     0.174 HD
HETATM   18  H   UNK N   1      26.172  20.301   3.298  0.00  0.00     0.174 HD
ENDROOT
BRANCH  15  19
HETATM   19  C   UNK N   1      32.814  15.520   7.461  0.00  0.00     0.089 C 
BRANCH  19  20
HETATM   20  C   UNK N   1      34.099  16.217   7.888  0.00  0.00     0.021 C 
HETATM   21  C   UNK N   1      34.187  17.563   7.187  0.00  0.00     0.007 C 
ENDBRANCH  19  20
BRANCH  19  22
HETATM   22  C   UNK N   1      32.697  14.164   8.165  0.00  0.00     0.021 C 
HETATM   23  C   UNK N   1      33.737  14.007   9.260  0.00  0.00     0.007 C 
ENDBRANCH  19  22
ENDBRANCH  15  19
BRANCH   3  24
HETATM   24  N   UNK N   1      27.574  19.062   8.644  0.00  0.00    -0.384 N 
HETATM   25  H   UNK N   1      27.548  19.933   9.103  0.00  0.00     0.157 HD
HETATM   26  H   UNK N   1      27.476  18.231   9.162  0.00  0.00     0.157 HD
ENDBRANCH   3  24
TORSDOF 4
ENDMDL
