REMARK  4 active torsions:
REMARK  status: ('A' for Active; 'I' for Inactive)
REMARK    1  A    between atoms: C_3  and  N_9 
REMARK       I    between atoms: C_6  and  N_17 
REMARK    2  A    between atoms: N_16  and  C_18 
REMARK    3  A    between atoms: C_18  and  C_19 
REMARK    4  A    between atoms: C_18  and  C_21 
ROOT
HETATM    1  C   UNK N   1       2.514   0.280   0.077  0.00  0.00     0.064 A 
HETATM    2  C   UNK N   1       1.910  -0.999  -0.014  0.00  0.00     0.048 A 
HETATM    3  C   UNK N   1       2.751  -2.123  -0.104  0.00  0.00     0.128 A 
HETATM    4  N   UNK N   1       4.099  -1.950  -0.107  0.00  0.00    -0.176 N 
ATOM      5  HN  UNK N   1       4.707  -2.767  -0.170  1.00  0.00     0.186 HD
HETATM    6  C   UNK N   1       4.655  -0.712  -0.028  0.00  0.00     0.677 A 
HETATM    7  N   UNK N   1       3.866   0.389   0.065  0.00  0.00    -0.191 N 
ATOM      8  HN  UNK N   1       4.297   1.312   0.126  1.00  0.00     0.184 HD
HETATM    9  C   UNK N   1       1.718   1.438   0.183  0.00  0.00     0.033 A 
HETATM   10  C   UNK N   1       0.318   1.339   0.202  0.00  0.00     0.033 A 
HETATM   11  C   UNK N   1      -0.257   0.072   0.099  0.00  0.00     0.046 A 
HETATM   12  C   UNK N   1       0.505  -1.060  -0.009  0.00  0.00     0.008 A 
HETATM   13  C   UNK N   1      -0.360  -2.136  -0.102  0.00  0.00     0.032 A 
HETATM   14  C   UNK N   1      -1.642  -1.590  -0.051  0.00  0.00     0.092 A 
HETATM   15  N   UNK N   1      -1.567  -0.241   0.074  0.00  0.00    -0.351 N 
HETATM   16  N   UNK N   1       6.057  -0.571  -0.037  0.00  0.00    -0.234 N 
HETATM   17  H   UNK N   1       6.632  -1.371  -0.044  0.00  0.00     0.174 HD
HETATM   18  H   UNK N   1       6.461   0.326  -0.037  0.00  0.00     0.174 HD
ENDROOT
BRANCH  15  19
HETATM   19  C   UNK N   1      -2.711   0.683   0.190  0.00  0.00     0.089 C 
BRANCH  19  20
HETATM   20  C   UNK N   1      -2.593   1.850  -0.782  0.00  0.00     0.021 C 
HETATM   21  C   UNK N   1      -2.232   3.105  -0.006  0.00  0.00     0.007 C 
ENDBRANCH  19  20
BRANCH  19  22
HETATM   22  C   UNK N   1      -4.042  -0.045  -0.027  0.00  0.00     0.021 C 
HETATM   23  C   UNK N   1      -5.230   0.855   0.265  0.00  0.00     0.007 C 
ENDBRANCH  19  22
ENDBRANCH  15  19
BRANCH   3  24
HETATM   24  N   UNK N   1       2.223  -3.430  -0.182  0.00  0.00    -0.384 N 
HETATM   25  H   UNK N   1       1.250  -3.567  -0.237  0.00  0.00     0.157 HD
HETATM   26  H   UNK N   1       2.830  -4.205  -0.182  0.00  0.00     0.157 HD
ENDBRANCH   3  24
TORSDOF 4
