REMARK  3 active torsions:
REMARK  status: ('A' for Active; 'I' for Inactive)
REMARK    1  A    between atoms: C_5  and  N_6 
REMARK    2  A    between atoms: C_10  and  C_11 
REMARK       I    between atoms: C_11  and  N_13 
REMARK    3  A    between atoms: N_13  and  C_14 
ROOT
HETATM    1 Cl   UNK N   1       2.734   2.724   0.000  0.00  0.00    -0.083 Cl
HETATM    2  C   UNK N   1       2.503   0.980   0.000  0.00  0.00     0.050 A 
HETATM    3  C   UNK N   1       3.649   0.172   0.000  0.00  0.00     0.027 A 
HETATM    4  C   UNK N   1       3.541  -1.223  -0.000  0.00  0.00     0.038 A 
HETATM    5  C   UNK N   1       2.280  -1.829  -0.000  0.00  0.00     0.103 A 
HETATM    6  C   UNK N   1       1.143  -1.026   0.000  0.00  0.00     0.054 A 
HETATM    7  C   UNK N   1       1.222   0.372   0.000  0.00  0.00     0.056 A 
ENDROOT
BRANCH   7   8
HETATM    8  C   UNK N   1      -0.070   1.109   0.000  0.00  0.00     0.258 C 
HETATM    9  O   UNK N   1      -0.108   2.330   0.000  0.00  0.00    -0.267 OA
HETATM   10  N   UNK N   1      -1.216   0.373   0.000  0.00  0.00    -0.323 N 
HETATM   11  H   UNK N   1      -1.095  -0.604   0.000  0.00  0.00     0.169 HD
BRANCH  10  12
HETATM   12  C   UNK N   1      -2.559   0.826   0.000  0.00  0.00     0.035 A 
HETATM   13  C   UNK N   1      -3.575  -0.136   0.000  0.00  0.00     0.029 A 
HETATM   14  C   UNK N   1      -4.916   0.248   0.000  0.00  0.00     0.002 A 
HETATM   15  C   UNK N   1      -5.252   1.603  -0.000  0.00  0.00     0.000 A 
HETATM   16  C   UNK N   1      -4.244   2.573  -0.000  0.00  0.00     0.002 A 
HETATM   17  C   UNK N   1      -2.898   2.188  -0.000  0.00  0.00     0.029 A 
ENDBRANCH  10  12
ENDBRANCH   7   8
BRANCH   5  18
HETATM   18  N   UNK N   1       2.148  -3.245  -0.000  0.00  0.00    -0.116 N 
HETATM   19  O   UNK N   1       3.215  -4.013  -0.000  0.00  0.00    -0.532 OA
HETATM   20  O   UNK N   1       1.063  -3.748  -0.000  0.00  0.00    -0.532 OA
ENDBRANCH   5  18
TORSDOF 3
