MODEL 1
REMARK VINA RESULT:      -6.8      0.000      0.000
REMARK  3 active torsions:
REMARK  status: ('A' for Active; 'I' for Inactive)
REMARK    1  A    between atoms: C_5  and  N_6 
REMARK    2  A    between atoms: C_10  and  C_11 
REMARK       I    between atoms: C_11  and  N_13 
REMARK    3  A    between atoms: N_13  and  C_14 
ROOT
HETATM    1 Cl   UNK N   1      37.755  11.364  12.422  0.00  0.00    -0.083 Cl
HETATM    2  C   UNK N   1      36.993  12.845  11.856  0.00  0.00     0.050 A 
HETATM    3  C   UNK N   1      37.446  13.389  10.646  0.00  0.00     0.027 A 
HETATM    4  C   UNK N   1      36.886  14.565  10.135  0.00  0.00     0.038 A 
HETATM    5  C   UNK N   1      35.860  15.214  10.832  0.00  0.00     0.103 A 
HETATM    6  C   UNK N   1      35.411  14.673  12.033  0.00  0.00     0.054 A 
HETATM    7  C   UNK N   1      35.954  13.498  12.567  0.00  0.00     0.056 A 
ENDROOT
BRANCH   7   8
HETATM    8  C   UNK N   1      35.381  13.030  13.858  0.00  0.00     0.258 C 
HETATM    9  O   UNK N   1      34.263  12.543  13.920  0.00  0.00    -0.267 OA
HETATM   10  N   UNK N   1      36.150  13.163  14.974  0.00  0.00    -0.323 N 
HETATM   11  H   UNK N   1      37.038  13.565  14.834  0.00  0.00     0.169 HD
BRANCH  10  12
HETATM   12  C   UNK N   1      35.842  12.800  16.309  0.00  0.00     0.035 A 
HETATM   13  C   UNK N   1      35.454  13.814  17.191  0.00  0.00     0.029 A 
HETATM   14  C   UNK N   1      35.139  13.519  18.517  0.00  0.00     0.002 A 
HETATM   15  C   UNK N   1      35.210  12.202  18.973  0.00  0.00     0.000 A 
HETATM   16  C   UNK N   1      35.597  11.180  18.100  0.00  0.00     0.002 A 
HETATM   17  C   UNK N   1      35.914  11.476  16.768  0.00  0.00     0.029 A 
ENDBRANCH  10  12
ENDBRANCH   7   8
BRANCH   5  18
HETATM   18  N   UNK N   1      35.277  16.410  10.330  0.00  0.00    -0.116 N 
HETATM   19  O   UNK N   1      35.863  17.570  10.528  0.00  0.00    -0.532 OA
HETATM   20  O   UNK N   1      34.247  16.369   9.724  0.00  0.00    -0.532 OA
ENDBRANCH   5  18
TORSDOF 3
ENDMDL
MODEL 2
REMARK VINA RESULT:      -6.7     20.192     22.936
REMARK  3 active torsions:
REMARK  status: ('A' for Active; 'I' for Inactive)
REMARK    1  A    between atoms: C_5  and  N_6 
REMARK    2  A    between atoms: C_10  and  C_11 
REMARK       I    between atoms: C_11  and  N_13 
REMARK    3  A    between atoms: N_13  and  C_14 
ROOT
HETATM    1 Cl   UNK N   1      25.416  23.938  -5.981  0.00  0.00    -0.083 Cl
HETATM    2  C   UNK N   1      25.779  25.446  -5.152  0.00  0.00     0.050 A 
HETATM    3  C   UNK N   1      25.066  26.590  -5.540  0.00  0.00     0.027 A 
HETATM    4  C   UNK N   1      25.303  27.824  -4.924  0.00  0.00     0.038 A 
HETATM    5  C   UNK N   1      26.260  27.929  -3.908  0.00  0.00     0.103 A 
HETATM    6  C   UNK N   1      26.967  26.793  -3.524  0.00  0.00     0.054 A 
HETATM    7  C   UNK N   1      26.750  25.546  -4.123  0.00  0.00     0.056 A 
ENDROOT
BRANCH   7   8
HETATM    8  C   UNK N   1      27.574  24.416  -3.617  0.00  0.00     0.258 C 
HETATM    9  O   UNK N   1      27.233  23.765  -2.640  0.00  0.00    -0.267 OA
HETATM   10  N   UNK N   1      28.726  24.128  -4.283  0.00  0.00    -0.323 N 
HETATM   11  H   UNK N   1      28.925  24.700  -5.059  0.00  0.00     0.169 HD
BRANCH  10  12
HETATM   12  C   UNK N   1      29.677  23.113  -4.008  0.00  0.00     0.035 A 
HETATM   13  C   UNK N   1      29.775  22.046  -4.907  0.00  0.00     0.029 A 
HETATM   14  C   UNK N   1      30.692  21.017  -4.691  0.00  0.00     0.002 A 
HETATM   15  C   UNK N   1      31.522  21.049  -3.569  0.00  0.00     0.000 A 
HETATM   16  C   UNK N   1      31.433  22.112  -2.664  0.00  0.00     0.002 A 
HETATM   17  C   UNK N   1      30.512  23.145  -2.880  0.00  0.00     0.029 A 
ENDBRANCH  10  12
ENDBRANCH   7   8
BRANCH   5  18
HETATM   18  N   UNK N   1      26.516  29.173  -3.270  0.00  0.00    -0.116 N 
HETATM   19  O   UNK N   1      27.210  29.219  -2.154  0.00  0.00    -0.532 OA
HETATM   20  O   UNK N   1      26.100  30.190  -3.744  0.00  0.00    -0.532 OA
ENDBRANCH   5  18
TORSDOF 3
ENDMDL
MODEL 3
REMARK VINA RESULT:      -6.3      2.543      6.688
REMARK  3 active torsions:
REMARK  status: ('A' for Active; 'I' for Inactive)
REMARK    1  A    between atoms: C_5  and  N_6 
REMARK    2  A    between atoms: C_10  and  C_11 
REMARK       I    between atoms: C_11  and  N_13 
REMARK    3  A    between atoms: N_13  and  C_14 
ROOT
HETATM    1 Cl   UNK N   1      35.549   9.275  15.030  0.00  0.00    -0.083 Cl
HETATM    2  C   UNK N   1      35.402  10.619  16.156  0.00  0.00     0.050 A 
HETATM    3  C   UNK N   1      35.416  10.324  17.526  0.00  0.00     0.027 A 
HETATM    4  C   UNK N   1      35.303  11.343  18.479  0.00  0.00     0.038 A 
HETATM    5  C   UNK N   1      35.175  12.675  18.070  0.00  0.00     0.103 A 
HETATM    6  C   UNK N   1      35.161  12.966  16.709  0.00  0.00     0.054 A 
HETATM    7  C   UNK N   1      35.273  11.967  15.734  0.00  0.00     0.056 A 
ENDROOT
BRANCH   7   8
HETATM    8  C   UNK N   1      35.244  12.417  14.317  0.00  0.00     0.258 C 
HETATM    9  O   UNK N   1      34.313  12.137  13.577  0.00  0.00    -0.267 OA
HETATM   10  N   UNK N   1      36.296  13.156  13.868  0.00  0.00    -0.323 N 
HETATM   11  H   UNK N   1      37.003  13.336  14.530  0.00  0.00     0.169 HD
BRANCH  10  12
HETATM   12  C   UNK N   1      36.509  13.700  12.577  0.00  0.00     0.035 A 
HETATM   13  C   UNK N   1      35.927  14.938  12.284  0.00  0.00     0.029 A 
HETATM   14  C   UNK N   1      36.101  15.525  11.030  0.00  0.00     0.002 A 
HETATM   15  C   UNK N   1      36.862  14.875  10.057  0.00  0.00     0.000 A 
HETATM   16  C   UNK N   1      37.448  13.637  10.340  0.00  0.00     0.002 A 
HETATM   17  C   UNK N   1      37.274  13.048  11.598  0.00  0.00     0.029 A 
ENDBRANCH  10  12
ENDBRANCH   7   8
BRANCH   5  18
HETATM   18  N   UNK N   1      35.059  13.725  19.021  0.00  0.00    -0.116 N 
HETATM   19  O   UNK N   1      35.284  14.971  18.668  0.00  0.00    -0.532 OA
HETATM   20  O   UNK N   1      34.756  13.481  20.152  0.00  0.00    -0.532 OA
ENDBRANCH   5  18
TORSDOF 3
ENDMDL
MODEL 4
REMARK VINA RESULT:      -6.3     20.034     23.018
REMARK  3 active torsions:
REMARK  status: ('A' for Active; 'I' for Inactive)
REMARK    1  A    between atoms: C_5  and  N_6 
REMARK    2  A    between atoms: C_10  and  C_11 
REMARK       I    between atoms: C_11  and  N_13 
REMARK    3  A    between atoms: N_13  and  C_14 
ROOT
HETATM    1 Cl   UNK N   1      29.164  20.516  -7.904  0.00  0.00    -0.083 Cl
HETATM    2  C   UNK N   1      29.820  20.985  -6.340  0.00  0.00     0.050 A 
HETATM    3  C   UNK N   1      30.859  20.207  -5.810  0.00  0.00     0.027 A 
HETATM    4  C   UNK N   1      31.428  20.521  -4.571  0.00  0.00     0.038 A 
HETATM    5  C   UNK N   1      30.962  21.622  -3.845  0.00  0.00     0.103 A 
HETATM    6  C   UNK N   1      29.931  22.394  -4.372  0.00  0.00     0.054 A 
HETATM    7  C   UNK N   1      29.343  22.102  -5.609  0.00  0.00     0.056 A 
ENDROOT
BRANCH   7   8
HETATM    8  C   UNK N   1      28.250  23.008  -6.054  0.00  0.00     0.258 C 
HETATM    9  O   UNK N   1      27.474  22.684  -6.940  0.00  0.00    -0.267 OA
HETATM   10  N   UNK N   1      28.143  24.217  -5.437  0.00  0.00    -0.323 N 
HETATM   11  H   UNK N   1      28.809  24.398  -4.734  0.00  0.00     0.169 HD
BRANCH  10  12
HETATM   12  C   UNK N   1      27.201  25.250  -5.671  0.00  0.00     0.035 A 
HETATM   13  C   UNK N   1      25.952  25.151  -5.050  0.00  0.00     0.029 A 
HETATM   14  C   UNK N   1      24.983  26.137  -5.242  0.00  0.00     0.002 A 
HETATM   15  C   UNK N   1      25.259  27.233  -6.061  0.00  0.00     0.000 A 
HETATM   16  C   UNK N   1      26.505  27.342  -6.688  0.00  0.00     0.002 A 
HETATM   17  C   UNK N   1      27.477  26.353  -6.495  0.00  0.00     0.029 A 
ENDBRANCH  10  12
ENDBRANCH   7   8
BRANCH   5  18
HETATM   18  N   UNK N   1      31.527  21.959  -2.584  0.00  0.00    -0.116 N 
HETATM   19  O   UNK N   1      30.927  22.823  -1.795  0.00  0.00    -0.532 OA
HETATM   20  O   UNK N   1      32.554  21.458  -2.231  0.00  0.00    -0.532 OA
ENDBRANCH   5  18
TORSDOF 3
ENDMDL
MODEL 5
REMARK VINA RESULT:      -6.3      2.701      7.306
REMARK  3 active torsions:
REMARK  status: ('A' for Active; 'I' for Inactive)
REMARK    1  A    between atoms: C_5  and  N_6 
REMARK    2  A    between atoms: C_10  and  C_11 
REMARK       I    between atoms: C_11  and  N_13 
REMARK    3  A    between atoms: N_13  and  C_14 
ROOT
HETATM    1 Cl   UNK N   1      38.016  12.980   9.633  0.00  0.00    -0.083 Cl
HETATM    2  C   UNK N   1      37.265  13.153  11.215  0.00  0.00     0.050 A 
HETATM    3  C   UNK N   1      37.528  12.162  12.172  0.00  0.00     0.027 A 
HETATM    4  C   UNK N   1      36.965  12.235  13.451  0.00  0.00     0.038 A 
HETATM    5  C   UNK N   1      36.129  13.304  13.789  0.00  0.00     0.103 A 
HETATM    6  C   UNK N   1      35.869  14.288  12.839  0.00  0.00     0.054 A 
HETATM    7  C   UNK N   1      36.419  14.240  11.552  0.00  0.00     0.056 A 
ENDROOT
BRANCH   7   8
HETATM    8  C   UNK N   1      36.059  15.355  10.635  0.00  0.00     0.258 C 
HETATM    9  O   UNK N   1      36.591  16.451  10.725  0.00  0.00    -0.267 OA
HETATM   10  N   UNK N   1      35.112  15.111   9.688  0.00  0.00    -0.323 N 
HETATM   11  H   UNK N   1      34.735  14.202   9.686  0.00  0.00     0.169 HD
BRANCH  10  12
HETATM   12  C   UNK N   1      34.596  15.993   8.705  0.00  0.00     0.035 A 
HETATM   13  C   UNK N   1      34.787  15.658   7.360  0.00  0.00     0.029 A 
HETATM   14  C   UNK N   1      34.303  16.485   6.346  0.00  0.00     0.002 A 
HETATM   15  C   UNK N   1      33.621  17.659   6.673  0.00  0.00     0.000 A 
HETATM   16  C   UNK N   1      33.424  18.003   8.014  0.00  0.00     0.002 A 
HETATM   17  C   UNK N   1      33.910  17.173   9.031  0.00  0.00     0.029 A 
ENDBRANCH  10  12
ENDBRANCH   7   8
BRANCH   5  18
HETATM   18  N   UNK N   1      35.547  13.397  15.083  0.00  0.00    -0.116 N 
HETATM   19  O   UNK N   1      34.291  13.057  15.274  0.00  0.00    -0.532 OA
HETATM   20  O   UNK N   1      36.196  13.787  16.009  0.00  0.00    -0.532 OA
ENDBRANCH   5  18
TORSDOF 3
ENDMDL
MODEL 6
REMARK VINA RESULT:      -6.2      9.517     12.748
REMARK  3 active torsions:
REMARK  status: ('A' for Active; 'I' for Inactive)
REMARK    1  A    between atoms: C_5  and  N_6 
REMARK    2  A    between atoms: C_10  and  C_11 
REMARK       I    between atoms: C_11  and  N_13 
REMARK    3  A    between atoms: N_13  and  C_14 
ROOT
HETATM    1 Cl   UNK N   1      28.084  17.417   8.660  0.00  0.00    -0.083 Cl
HETATM    2  C   UNK N   1      29.634  17.355   7.832  0.00  0.00     0.050 A 
HETATM    3  C   UNK N   1      30.785  17.186   8.616  0.00  0.00     0.027 A 
HETATM    4  C   UNK N   1      32.051  17.128   8.025  0.00  0.00     0.038 A 
HETATM    5  C   UNK N   1      32.183  17.237   6.636  0.00  0.00     0.103 A 
HETATM    6  C   UNK N   1      31.041  17.404   5.859  0.00  0.00     0.054 A 
HETATM    7  C   UNK N   1      29.761  17.466   6.424  0.00  0.00     0.056 A 
ENDROOT
BRANCH   7   8
HETATM    8  C   UNK N   1      28.627  17.647   5.479  0.00  0.00     0.258 C 
HETATM    9  O   UNK N   1      28.283  16.757   4.717  0.00  0.00    -0.267 OA
HETATM   10  N   UNK N   1      27.981  18.846   5.491  0.00  0.00    -0.323 N 
HETATM   11  H   UNK N   1      28.322  19.508   6.135  0.00  0.00     0.169 HD
BRANCH  10  12
HETATM   12  C   UNK N   1      26.883  19.269   4.700  0.00  0.00     0.035 A 
HETATM   13  C   UNK N   1      25.616  18.765   5.016  0.00  0.00     0.029 A 
HETATM   14  C   UNK N   1      24.497  19.143   4.274  0.00  0.00     0.002 A 
HETATM   15  C   UNK N   1      24.638  20.032   3.206  0.00  0.00     0.000 A 
HETATM   16  C   UNK N   1      25.900  20.542   2.883  0.00  0.00     0.002 A 
HETATM   17  C   UNK N   1      27.023  20.162   3.627  0.00  0.00     0.029 A 
ENDBRANCH  10  12
ENDBRANCH   7   8
BRANCH   5  18
HETATM   18  N   UNK N   1      33.461  17.180   6.015  0.00  0.00    -0.116 N 
HETATM   19  O   UNK N   1      34.469  17.870   6.502  0.00  0.00    -0.532 OA
HETATM   20  O   UNK N   1      33.629  16.503   5.044  0.00  0.00    -0.532 OA
ENDBRANCH   5  18
TORSDOF 3
ENDMDL
MODEL 7
REMARK VINA RESULT:      -6.2     25.154     25.963
REMARK  3 active torsions:
REMARK  status: ('A' for Active; 'I' for Inactive)
REMARK    1  A    between atoms: C_5  and  N_6 
REMARK    2  A    between atoms: C_10  and  C_11 
REMARK       I    between atoms: C_11  and  N_13 
REMARK    3  A    between atoms: N_13  and  C_14 
ROOT
HETATM    1 Cl   UNK N   1      28.533  27.766  -9.034  0.00  0.00    -0.083 Cl
HETATM    2  C   UNK N   1      27.795  28.000  -7.454  0.00  0.00     0.050 A 
HETATM    3  C   UNK N   1      28.169  29.137  -6.723  0.00  0.00     0.027 A 
HETATM    4  C   UNK N   1      27.623  29.387  -5.460  0.00  0.00     0.038 A 
HETATM    5  C   UNK N   1      26.692  28.499  -4.909  0.00  0.00     0.103 A 
HETATM    6  C   UNK N   1      26.322  27.371  -5.635  0.00  0.00     0.054 A 
HETATM    7  C   UNK N   1      26.852  27.096  -6.902  0.00  0.00     0.056 A 
ENDROOT
BRANCH   7   8
HETATM    8  C   UNK N   1      26.370  25.857  -7.568  0.00  0.00     0.258 C 
HETATM    9  O   UNK N   1      25.672  25.901  -8.569  0.00  0.00    -0.267 OA
HETATM   10  N   UNK N   1      26.735  24.664  -7.021  0.00  0.00    -0.323 N 
HETATM   11  H   UNK N   1      27.298  24.719  -6.215  0.00  0.00     0.169 HD
BRANCH  10  12
HETATM   12  C   UNK N   1      26.412  23.355  -7.457  0.00  0.00     0.035 A 
HETATM   13  C   UNK N   1      25.284  22.739  -6.904  0.00  0.00     0.029 A 
HETATM   14  C   UNK N   1      24.915  21.452  -7.293  0.00  0.00     0.002 A 
HETATM   15  C   UNK N   1      25.676  20.767  -8.242  0.00  0.00     0.000 A 
HETATM   16  C   UNK N   1      26.807  21.373  -8.801  0.00  0.00     0.002 A 
HETATM   17  C   UNK N   1      27.177  22.665  -8.411  0.00  0.00     0.029 A 
ENDBRANCH  10  12
ENDBRANCH   7   8
BRANCH   5  18
HETATM   18  N   UNK N   1      26.125  28.735  -3.627  0.00  0.00    -0.116 N 
HETATM   19  O   UNK N   1      25.416  27.802  -3.031  0.00  0.00    -0.532 OA
HETATM   20  O   UNK N   1      26.290  29.786  -3.080  0.00  0.00    -0.532 OA
ENDBRANCH   5  18
TORSDOF 3
ENDMDL
MODEL 8
REMARK VINA RESULT:      -6.1      8.625     11.796
REMARK  3 active torsions:
REMARK  status: ('A' for Active; 'I' for Inactive)
REMARK    1  A    between atoms: C_5  and  N_6 
REMARK    2  A    between atoms: C_10  and  C_11 
REMARK       I    between atoms: C_11  and  N_13 
REMARK    3  A    between atoms: N_13  and  C_14 
ROOT
HETATM    1 Cl   UNK N   1      31.449  15.618   3.480  0.00  0.00    -0.083 Cl
HETATM    2  C   UNK N   1      32.223  16.332   4.889  0.00  0.00     0.050 A 
HETATM    3  C   UNK N   1      33.599  16.121   5.052  0.00  0.00     0.027 A 
HETATM    4  C   UNK N   1      34.280  16.659   6.150  0.00  0.00     0.038 A 
HETATM    5  C   UNK N   1      33.589  17.417   7.102  0.00  0.00     0.103 A 
HETATM    6  C   UNK N   1      32.223  17.625   6.939  0.00  0.00     0.054 A 
HETATM    7  C   UNK N   1      31.516  17.099   5.850  0.00  0.00     0.056 A 
ENDROOT
BRANCH   7   8
HETATM    8  C   UNK N   1      30.060  17.397   5.798  0.00  0.00     0.258 C 
HETATM    9  O   UNK N   1      29.303  17.035   6.686  0.00  0.00    -0.267 OA
HETATM   10  N   UNK N   1      29.597  18.091   4.722  0.00  0.00    -0.323 N 
HETATM   11  H   UNK N   1      30.274  18.343   4.053  0.00  0.00     0.169 HD
BRANCH  10  12
HETATM   12  C   UNK N   1      28.269  18.497   4.435  0.00  0.00     0.035 A 
HETATM   13  C   UNK N   1      27.909  19.816   4.735  0.00  0.00     0.029 A 
HETATM   14  C   UNK N   1      26.617  20.275   4.477  0.00  0.00     0.002 A 
HETATM   15  C   UNK N   1      25.673  19.415   3.913  0.00  0.00     0.000 A 
HETATM   16  C   UNK N   1      26.023  18.095   3.609  0.00  0.00     0.002 A 
HETATM   17  C   UNK N   1      27.319  17.634   3.869  0.00  0.00     0.029 A 
ENDBRANCH  10  12
ENDBRANCH   7   8
BRANCH   5  18
HETATM   18  N   UNK N   1      34.262  17.973   8.224  0.00  0.00    -0.116 N 
HETATM   19  O   UNK N   1      34.237  17.358   9.387  0.00  0.00    -0.532 OA
HETATM   20  O   UNK N   1      34.857  19.005   8.119  0.00  0.00    -0.532 OA
ENDBRANCH   5  18
TORSDOF 3
ENDMDL
MODEL 9
REMARK VINA RESULT:      -6.0     12.072     14.312
REMARK  3 active torsions:
REMARK  status: ('A' for Active; 'I' for Inactive)
REMARK    1  A    between atoms: C_5  and  N_6 
REMARK    2  A    between atoms: C_10  and  C_11 
REMARK       I    between atoms: C_11  and  N_13 
REMARK    3  A    between atoms: N_13  and  C_14 
ROOT
HETATM    1 Cl   UNK N   1      23.241  15.618   6.014  0.00  0.00    -0.083 Cl
HETATM    2  C   UNK N   1      23.446  17.100   5.088  0.00  0.00     0.050 A 
HETATM    3  C   UNK N   1      22.292  17.723   4.592  0.00  0.00     0.027 A 
HETATM    4  C   UNK N   1      22.380  18.904   3.847  0.00  0.00     0.038 A 
HETATM    5  C   UNK N   1      23.629  19.479   3.589  0.00  0.00     0.103 A 
HETATM    6  C   UNK N   1      24.774  18.860   4.082  0.00  0.00     0.054 A 
HETATM    7  C   UNK N   1      24.715  17.678   4.830  0.00  0.00     0.056 A 
ENDROOT
BRANCH   7   8
HETATM    8  C   UNK N   1      26.014  17.122   5.295  0.00  0.00     0.258 C 
HETATM    9  O   UNK N   1      26.310  15.952   5.111  0.00  0.00    -0.267 OA
HETATM   10  N   UNK N   1      26.867  17.967   5.938  0.00  0.00    -0.323 N 
HETATM   11  H   UNK N   1      26.550  18.893   6.045  0.00  0.00     0.169 HD
BRANCH  10  12
HETATM   12  C   UNK N   1      28.150  17.691   6.474  0.00  0.00     0.035 A 
HETATM   13  C   UNK N   1      28.276  17.614   7.866  0.00  0.00     0.029 A 
HETATM   14  C   UNK N   1      29.513  17.346   8.452  0.00  0.00     0.002 A 
HETATM   15  C   UNK N   1      30.637  17.151   7.648  0.00  0.00     0.000 A 
HETATM   16  C   UNK N   1      30.522  17.226   6.256  0.00  0.00     0.002 A 
HETATM   17  C   UNK N   1      29.281  17.496   5.667  0.00  0.00     0.029 A 
ENDBRANCH  10  12
ENDBRANCH   7   8
BRANCH   5  18
HETATM   18  N   UNK N   1      23.741  20.679   2.834  0.00  0.00    -0.116 N 
HETATM   19  O   UNK N   1      22.808  21.602   2.910  0.00  0.00    -0.532 OA
HETATM   20  O   UNK N   1      24.686  20.857   2.124  0.00  0.00    -0.532 OA
ENDBRANCH   5  18
TORSDOF 3
ENDMDL
