REMARK  4 active torsions:
REMARK  status: ('A' for Active; 'I' for Inactive)
REMARK    1  A    between atoms: C_1  and  O_11 
REMARK    2  A    between atoms: C_2  and  C_3 
REMARK    3  A    between atoms: C_9  and  C_19 
REMARK    4  A    between atoms: C_10  and  O_11 
ROOT
HETATM    1  N   UNK N   1       1.294  -2.900  -0.193  0.00  0.00    -0.322 N 
HETATM    2  C   UNK N   1       0.045  -2.343  -0.221  0.00  0.00     0.255 A 
HETATM    3  O   UNK N   1      -0.923  -3.071  -0.368  0.00  0.00    -0.268 OA
HETATM    4  C   UNK N   1      -0.121  -0.943  -0.084  0.00  0.00     0.049 A 
HETATM    5  C   UNK N   1       1.041  -0.128   0.085  0.00  0.00     0.111 A 
HETATM    6  C   UNK N   1       2.408  -2.146  -0.043  0.00  0.00     0.048 A 
HETATM    7  C   UNK N   1       2.303  -0.747   0.100  0.00  0.00     0.029 A 
HETATM    8  C   UNK N   1       3.472   0.019   0.233  0.00  0.00     0.059 A 
HETATM    9  C   UNK N   1       4.726  -0.597   0.220  0.00  0.00     0.117 A 
HETATM   10  C   UNK N   1       4.823  -1.984   0.082  0.00  0.00     0.044 A 
HETATM   11  C   UNK N   1       3.666  -2.757  -0.047  0.00  0.00     0.033 A 
HETATM   12  F   UNK N   1       5.849   0.152   0.331  0.00  0.00    -0.206 F 
HETATM   13  H   UNK N   1       1.386  -3.876  -0.284  0.00  0.00     0.169 HD
ENDROOT
BRANCH   5  14
HETATM   14  O   UNK N   1       1.010   1.233   0.217  0.00  0.00    -0.259 OA
BRANCH  14  15
HETATM   15  C   UNK N   1      -0.027   2.035   0.025  0.00  0.00     0.060 C 
HETATM   16  C   UNK N   1      -0.954   2.783  -0.171  0.00  0.00    -0.071 C 
BRANCH  16  17
HETATM   17  C   UNK N   1      -2.070   3.692  -0.438  0.00  0.00     0.067 A 
HETATM   18  C   UNK N   1      -3.318   3.160   0.236  0.00  0.00     0.018 A 
HETATM   19  C   UNK N   1      -2.544   4.298   0.866  0.00  0.00     0.018 A 
ENDBRANCH  16  17
ENDBRANCH  14  15
ENDBRANCH   5  14
BRANCH   4  20
HETATM   20  C   UNK N   1      -1.506  -0.342  -0.130  0.00  0.00     0.019 C 
HETATM   21  C   UNK N   1      -2.131  -0.486  -1.506  0.00  0.00     0.015 C 
HETATM   22  C   UNK N   1      -2.427  -0.909   0.938  0.00  0.00     0.015 C 
ENDBRANCH   4  20
TORSDOF 4
