MODEL 1
REMARK VINA RESULT:      -6.4      0.000      0.000
REMARK  4 active torsions:
REMARK  status: ('A' for Active; 'I' for Inactive)
REMARK    1  A    between atoms: C_1  and  O_11 
REMARK    2  A    between atoms: C_2  and  C_3 
REMARK    3  A    between atoms: C_9  and  C_19 
REMARK    4  A    between atoms: C_10  and  O_11 
ROOT
HETATM    1  N   UNK N   1      26.275  26.574  -7.359  0.00  0.00    -0.322 N 
HETATM    2  C   UNK N   1      26.604  27.293  -6.243  0.00  0.00     0.255 A 
HETATM    3  O   UNK N   1      26.875  28.477  -6.362  0.00  0.00    -0.268 OA
HETATM    4  C   UNK N   1      26.632  26.673  -4.970  0.00  0.00     0.049 A 
HETATM    5  C   UNK N   1      26.308  25.283  -4.877  0.00  0.00     0.111 A 
HETATM    6  C   UNK N   1      25.973  25.256  -7.295  0.00  0.00     0.048 A 
HETATM    7  C   UNK N   1      25.983  24.586  -6.054  0.00  0.00     0.029 A 
HETATM    8  C   UNK N   1      25.689  23.214  -6.012  0.00  0.00     0.059 A 
HETATM    9  C   UNK N   1      25.393  22.519  -7.187  0.00  0.00     0.117 A 
HETATM   10  C   UNK N   1      25.381  23.189  -8.413  0.00  0.00     0.044 A 
HETATM   11  C   UNK N   1      25.669  24.555  -8.466  0.00  0.00     0.033 A 
HETATM   12  F   UNK N   1      25.128  21.191  -7.139  0.00  0.00    -0.206 F 
HETATM   13  H   UNK N   1      26.255  27.027  -8.233  0.00  0.00     0.169 HD
ENDROOT
BRANCH   5  14
HETATM   14  O   UNK N   1      26.311  24.572  -3.709  0.00  0.00    -0.259 OA
BRANCH  14  15
HETATM   15  C   UNK N   1      27.351  24.004  -3.116  0.00  0.00     0.060 C 
HETATM   16  C   UNK N   1      28.317  23.495  -2.602  0.00  0.00    -0.071 C 
BRANCH  16  17
HETATM   17  C   UNK N   1      29.506  22.901  -1.989  0.00  0.00     0.067 A 
HETATM   18  C   UNK N   1      30.181  21.989  -2.993  0.00  0.00     0.018 A 
HETATM   19  C   UNK N   1      30.739  23.372  -2.731  0.00  0.00     0.018 A 
ENDBRANCH  16  17
ENDBRANCH  14  15
ENDBRANCH   5  14
BRANCH   4  20
HETATM   20  C   UNK N   1      27.010  27.478  -3.749  0.00  0.00     0.019 C 
HETATM   21  C   UNK N   1      28.475  27.875  -3.775  0.00  0.00     0.015 C 
HETATM   22  C   UNK N   1      26.128  28.700  -3.557  0.00  0.00     0.015 C 
ENDBRANCH   4  20
TORSDOF 4
ENDMDL
MODEL 2
REMARK VINA RESULT:      -6.4      3.645      5.899
REMARK  4 active torsions:
REMARK  status: ('A' for Active; 'I' for Inactive)
REMARK    1  A    between atoms: C_1  and  O_11 
REMARK    2  A    between atoms: C_2  and  C_3 
REMARK    3  A    between atoms: C_9  and  C_19 
REMARK    4  A    between atoms: C_10  and  O_11 
ROOT
HETATM    1  N   UNK N   1      28.630  23.702  -2.497  0.00  0.00    -0.322 N 
HETATM    2  C   UNK N   1      29.870  23.125  -2.518  0.00  0.00     0.255 A 
HETATM    3  O   UNK N   1      30.477  22.991  -1.468  0.00  0.00    -0.268 OA
HETATM    4  C   UNK N   1      30.441  22.692  -3.740  0.00  0.00     0.049 A 
HETATM    5  C   UNK N   1      29.695  22.869  -4.946  0.00  0.00     0.111 A 
HETATM    6  C   UNK N   1      27.910  23.887  -3.628  0.00  0.00     0.048 A 
HETATM    7  C   UNK N   1      28.428  23.474  -4.873  0.00  0.00     0.029 A 
HETATM    8  C   UNK N   1      27.674  23.695  -6.037  0.00  0.00     0.059 A 
HETATM    9  C   UNK N   1      26.427  24.321  -5.963  0.00  0.00     0.117 A 
HETATM   10  C   UNK N   1      25.919  24.725  -4.726  0.00  0.00     0.044 A 
HETATM   11  C   UNK N   1      26.658  24.506  -3.561  0.00  0.00     0.033 A 
HETATM   12  F   UNK N   1      25.716  24.546  -7.094  0.00  0.00    -0.206 F 
HETATM   13  H   UNK N   1      28.250  23.990  -1.636  0.00  0.00     0.169 HD
ENDROOT
BRANCH   5  14
HETATM   14  O   UNK N   1      30.142  22.502  -6.185  0.00  0.00    -0.259 OA
BRANCH  14  15
HETATM   15  C   UNK N   1      29.900  21.366  -6.823  0.00  0.00     0.060 C 
HETATM   16  C   UNK N   1      29.694  20.315  -7.379  0.00  0.00    -0.071 C 
BRANCH  16  17
HETATM   17  C   UNK N   1      29.440  19.027  -8.027  0.00  0.00     0.067 A 
HETATM   18  C   UNK N   1      29.676  19.164  -9.517  0.00  0.00     0.018 A 
HETATM   19  C   UNK N   1      30.725  18.514  -8.641  0.00  0.00     0.018 A 
ENDBRANCH  16  17
ENDBRANCH  14  15
ENDBRANCH   5  14
BRANCH   4  20
HETATM   20  C   UNK N   1      31.817  22.068  -3.748  0.00  0.00     0.019 C 
HETATM   21  C   UNK N   1      31.756  20.589  -4.085  0.00  0.00     0.015 C 
HETATM   22  C   UNK N   1      32.782  22.789  -4.675  0.00  0.00     0.015 C 
ENDBRANCH   4  20
TORSDOF 4
ENDMDL
MODEL 3
REMARK VINA RESULT:      -6.3     16.417     18.902
REMARK  4 active torsions:
REMARK  status: ('A' for Active; 'I' for Inactive)
REMARK    1  A    between atoms: C_1  and  O_11 
REMARK    2  A    between atoms: C_2  and  C_3 
REMARK    3  A    between atoms: C_9  and  C_19 
REMARK    4  A    between atoms: C_10  and  O_11 
ROOT
HETATM    1  N   UNK N   1      24.902  13.215   9.007  0.00  0.00    -0.322 N 
HETATM    2  C   UNK N   1      24.799  13.813   7.781  0.00  0.00     0.255 A 
HETATM    3  O   UNK N   1      25.820  14.109   7.181  0.00  0.00    -0.268 OA
HETATM    4  C   UNK N   1      23.529  14.087   7.218  0.00  0.00     0.049 A 
HETATM    5  C   UNK N   1      22.360  13.724   7.956  0.00  0.00     0.111 A 
HETATM    6  C   UNK N   1      23.808  12.871   9.726  0.00  0.00     0.048 A 
HETATM    7  C   UNK N   1      22.517  13.118   9.214  0.00  0.00     0.029 A 
HETATM    8  C   UNK N   1      21.396  12.773   9.985  0.00  0.00     0.059 A 
HETATM    9  C   UNK N   1      21.556  12.196  11.248  0.00  0.00     0.117 A 
HETATM   10  C   UNK N   1      22.838  11.951  11.747  0.00  0.00     0.044 A 
HETATM   11  C   UNK N   1      23.961  12.286  10.987  0.00  0.00     0.033 A 
HETATM   12  F   UNK N   1      20.469  11.883  11.992  0.00  0.00    -0.206 F 
HETATM   13  H   UNK N   1      25.795  13.029   9.376  0.00  0.00     0.169 HD
ENDROOT
BRANCH   5  14
HETATM   14  O   UNK N   1      21.081  13.945   7.523  0.00  0.00    -0.259 OA
BRANCH  14  15
HETATM   15  C   UNK N   1      20.348  15.033   7.706  0.00  0.00     0.060 C 
HETATM   16  C   UNK N   1      19.705  16.043   7.862  0.00  0.00    -0.071 C 
BRANCH  16  17
HETATM   17  C   UNK N   1      18.937  17.278   8.024  0.00  0.00     0.067 A 
HETATM   18  C   UNK N   1      18.227  17.252   9.362  0.00  0.00     0.018 A 
HETATM   19  C   UNK N   1      19.494  18.063   9.193  0.00  0.00     0.018 A 
ENDBRANCH  16  17
ENDBRANCH  14  15
ENDBRANCH   5  14
BRANCH   4  20
HETATM   20  C   UNK N   1      23.433  14.759   5.869  0.00  0.00     0.019 C 
HETATM   21  C   UNK N   1      22.503  14.006   4.935  0.00  0.00     0.015 C 
HETATM   22  C   UNK N   1      23.022  16.219   5.970  0.00  0.00     0.015 C 
ENDBRANCH   4  20
TORSDOF 4
ENDMDL
MODEL 4
REMARK VINA RESULT:      -6.3     25.001     28.205
REMARK  4 active torsions:
REMARK  status: ('A' for Active; 'I' for Inactive)
REMARK    1  A    between atoms: C_1  and  O_11 
REMARK    2  A    between atoms: C_2  and  C_3 
REMARK    3  A    between atoms: C_9  and  C_19 
REMARK    4  A    between atoms: C_10  and  O_11 
ROOT
HETATM    1  N   UNK N   1      35.068  13.354  16.768  0.00  0.00    -0.322 N 
HETATM    2  C   UNK N   1      35.277  13.160  18.106  0.00  0.00     0.255 A 
HETATM    3  O   UNK N   1      35.437  14.132  18.826  0.00  0.00    -0.268 OA
HETATM    4  C   UNK N   1      35.310  11.850  18.646  0.00  0.00     0.049 A 
HETATM    5  C   UNK N   1      35.119  10.741  17.765  0.00  0.00     0.111 A 
HETATM    6  C   UNK N   1      34.894  12.317  15.916  0.00  0.00     0.048 A 
HETATM    7  C   UNK N   1      34.915  10.992  16.397  0.00  0.00     0.029 A 
HETATM    8  C   UNK N   1      34.754   9.930  15.493  0.00  0.00     0.059 A 
HETATM    9  C   UNK N   1      34.578  10.183  14.130  0.00  0.00     0.117 A 
HETATM   10  C   UNK N   1      34.555  11.499  13.660  0.00  0.00     0.044 A 
HETATM   11  C   UNK N   1      34.710  12.563  14.551  0.00  0.00     0.033 A 
HETATM   12  F   UNK N   1      34.442   9.152  13.263  0.00  0.00    -0.206 F 
HETATM   13  H   UNK N   1      35.043  14.273  16.415  0.00  0.00     0.169 HD
ENDROOT
BRANCH   5  14
HETATM   14  O   UNK N   1      35.139   9.433  18.165  0.00  0.00    -0.259 OA
BRANCH  14  15
HETATM   15  C   UNK N   1      34.160   8.755  18.746  0.00  0.00     0.060 C 
HETATM   16  C   UNK N   1      33.262   8.123  19.247  0.00  0.00    -0.071 C 
BRANCH  16  17
HETATM   17  C   UNK N   1      32.180   7.333  19.837  0.00  0.00     0.067 A 
HETATM   18  C   UNK N   1      31.816   7.917  21.187  0.00  0.00     0.018 A 
HETATM   19  C   UNK N   1      30.948   8.201  19.980  0.00  0.00     0.018 A 
ENDBRANCH  16  17
ENDBRANCH  14  15
ENDBRANCH   5  14
BRANCH   4  20
HETATM   20  C   UNK N   1      35.554  11.652  20.123  0.00  0.00     0.019 C 
HETATM   21  C   UNK N   1      34.287  11.235  20.847  0.00  0.00     0.015 C 
HETATM   22  C   UNK N   1      36.680  10.670  20.404  0.00  0.00     0.015 C 
ENDBRANCH   4  20
TORSDOF 4
ENDMDL
MODEL 5
REMARK VINA RESULT:      -6.2     21.733     25.604
REMARK  4 active torsions:
REMARK  status: ('A' for Active; 'I' for Inactive)
REMARK    1  A    between atoms: C_1  and  O_11 
REMARK    2  A    between atoms: C_2  and  C_3 
REMARK    3  A    between atoms: C_9  and  C_19 
REMARK    4  A    between atoms: C_10  and  O_11 
ROOT
HETATM    1  N   UNK N   1      35.015  12.150  17.305  0.00  0.00    -0.322 N 
HETATM    2  C   UNK N   1      34.963  11.081  16.453  0.00  0.00     0.255 A 
HETATM    3  O   UNK N   1      34.345  10.086  16.791  0.00  0.00    -0.268 OA
HETATM    4  C   UNK N   1      35.620  11.130  15.199  0.00  0.00     0.049 A 
HETATM    5  C   UNK N   1      36.334  12.316  14.844  0.00  0.00     0.111 A 
HETATM    6  C   UNK N   1      35.692  13.279  16.993  0.00  0.00     0.048 A 
HETATM    7  C   UNK N   1      36.363  13.384  15.757  0.00  0.00     0.029 A 
HETATM    8  C   UNK N   1      37.078  14.556  15.461  0.00  0.00     0.059 A 
HETATM    9  C   UNK N   1      37.127  15.605  16.383  0.00  0.00     0.117 A 
HETATM   10  C   UNK N   1      36.457  15.497  17.604  0.00  0.00     0.044 A 
HETATM   11  C   UNK N   1      35.739  14.337  17.907  0.00  0.00     0.033 A 
HETATM   12  F   UNK N   1      37.834  16.725  16.096  0.00  0.00    -0.206 F 
HETATM   13  H   UNK N   1      34.546  12.098  18.169  0.00  0.00     0.169 HD
ENDROOT
BRANCH   5  14
HETATM   14  O   UNK N   1      37.015  12.478  13.669  0.00  0.00    -0.259 OA
BRANCH  14  15
HETATM   15  C   UNK N   1      36.632  13.173  12.608  0.00  0.00     0.060 C 
HETATM   16  C   UNK N   1      36.274  13.831  11.661  0.00  0.00    -0.071 C 
BRANCH  16  17
HETATM   17  C   UNK N   1      35.850  14.654  10.527  0.00  0.00     0.067 A 
HETATM   18  C   UNK N   1      34.513  15.292  10.847  0.00  0.00     0.018 A 
HETATM   19  C   UNK N   1      35.786  16.104  10.958  0.00  0.00     0.018 A 
ENDBRANCH  16  17
ENDBRANCH  14  15
ENDBRANCH   5  14
BRANCH   4  20
HETATM   20  C   UNK N   1      35.565   9.936  14.275  0.00  0.00     0.019 C 
HETATM   21  C   UNK N   1      34.582  10.155  13.139  0.00  0.00     0.015 C 
HETATM   22  C   UNK N   1      36.932   9.550  13.733  0.00  0.00     0.015 C 
ENDBRANCH   4  20
TORSDOF 4
ENDMDL
MODEL 6
REMARK VINA RESULT:      -6.2     24.711     26.823
REMARK  4 active torsions:
REMARK  status: ('A' for Active; 'I' for Inactive)
REMARK    1  A    between atoms: C_1  and  O_11 
REMARK    2  A    between atoms: C_2  and  C_3 
REMARK    3  A    between atoms: C_9  and  C_19 
REMARK    4  A    between atoms: C_10  and  O_11 
ROOT
HETATM    1  N   UNK N   1      37.255  13.512  14.198  0.00  0.00    -0.322 N 
HETATM    2  C   UNK N   1      36.888  12.419  13.462  0.00  0.00     0.255 A 
HETATM    3  O   UNK N   1      37.420  12.229  12.380  0.00  0.00    -0.268 OA
HETATM    4  C   UNK N   1      35.904  11.523  13.947  0.00  0.00     0.049 A 
HETATM    5  C   UNK N   1      35.306  11.785  15.218  0.00  0.00     0.111 A 
HETATM    6  C   UNK N   1      36.695  13.783  15.400  0.00  0.00     0.048 A 
HETATM    7  C   UNK N   1      35.712  12.925  15.933  0.00  0.00     0.029 A 
HETATM    8  C   UNK N   1      35.128  13.236  17.172  0.00  0.00     0.059 A 
HETATM    9  C   UNK N   1      35.515  14.384  17.867  0.00  0.00     0.117 A 
HETATM   10  C   UNK N   1      36.493  15.229  17.334  0.00  0.00     0.044 A 
HETATM   11  C   UNK N   1      37.083  14.927  16.104  0.00  0.00     0.033 A 
HETATM   12  F   UNK N   1      34.933  14.686  19.052  0.00  0.00    -0.206 F 
HETATM   13  H   UNK N   1      37.946  14.118  13.844  0.00  0.00     0.169 HD
ENDROOT
BRANCH   5  14
HETATM   14  O   UNK N   1      34.340  11.001  15.787  0.00  0.00    -0.259 OA
BRANCH  14  15
HETATM   15  C   UNK N   1      34.482  10.158  16.799  0.00  0.00     0.060 C 
HETATM   16  C   UNK N   1      34.582   9.399  17.733  0.00  0.00    -0.071 C 
BRANCH  16  17
HETATM   17  C   UNK N   1      34.673   8.471  18.861  0.00  0.00     0.067 A 
HETATM   18  C   UNK N   1      34.272   9.192  20.132  0.00  0.00     0.018 A 
HETATM   19  C   UNK N   1      33.294   8.261  19.448  0.00  0.00     0.018 A 
ENDBRANCH  16  17
ENDBRANCH  14  15
ENDBRANCH   5  14
BRANCH   4  20
HETATM   20  C   UNK N   1      35.500  10.328  13.116  0.00  0.00     0.019 C 
HETATM   21  C   UNK N   1      36.006   9.031  13.722  0.00  0.00     0.015 C 
HETATM   22  C   UNK N   1      34.000  10.258  12.879  0.00  0.00     0.015 C 
ENDBRANCH   4  20
TORSDOF 4
ENDMDL
MODEL 7
REMARK VINA RESULT:      -6.1      2.199      4.856
REMARK  4 active torsions:
REMARK  status: ('A' for Active; 'I' for Inactive)
REMARK    1  A    between atoms: C_1  and  O_11 
REMARK    2  A    between atoms: C_2  and  C_3 
REMARK    3  A    between atoms: C_9  and  C_19 
REMARK    4  A    between atoms: C_10  and  O_11 
ROOT
HETATM    1  N   UNK N   1      29.530  26.896  -5.045  0.00  0.00    -0.322 N 
HETATM    2  C   UNK N   1      28.427  27.341  -5.720  0.00  0.00     0.255 A 
HETATM    3  O   UNK N   1      28.470  28.428  -6.271  0.00  0.00    -0.268 OA
HETATM    4  C   UNK N   1      27.252  26.551  -5.775  0.00  0.00     0.049 A 
HETATM    5  C   UNK N   1      27.246  25.284  -5.114  0.00  0.00     0.111 A 
HETATM    6  C   UNK N   1      29.543  25.704  -4.404  0.00  0.00     0.048 A 
HETATM    7  C   UNK N   1      28.402  24.875  -4.427  0.00  0.00     0.029 A 
HETATM    8  C   UNK N   1      28.429  23.652  -3.739  0.00  0.00     0.059 A 
HETATM    9  C   UNK N   1      29.571  23.262  -3.035  0.00  0.00     0.117 A 
HETATM   10  C   UNK N   1      30.699  24.086  -3.019  0.00  0.00     0.044 A 
HETATM   11  C   UNK N   1      30.685  25.303  -3.704  0.00  0.00     0.033 A 
HETATM   12  F   UNK N   1      29.580  22.088  -2.359  0.00  0.00    -0.206 F 
HETATM   13  H   UNK N   1      30.338  27.459  -5.024  0.00  0.00     0.169 HD
ENDROOT
BRANCH   5  14
HETATM   14  O   UNK N   1      26.171  24.439  -5.087  0.00  0.00    -0.259 OA
BRANCH  14  15
HETATM   15  C   UNK N   1      25.891  23.469  -5.946  0.00  0.00     0.060 C 
HETATM   16  C   UNK N   1      25.611  22.603  -6.739  0.00  0.00    -0.071 C 
BRANCH  16  17
HETATM   17  C   UNK N   1      25.264  21.575  -7.722  0.00  0.00     0.067 A 
HETATM   18  C   UNK N   1      25.866  21.944  -9.062  0.00  0.00     0.018 A 
HETATM   19  C   UNK N   1      26.529  20.892  -8.198  0.00  0.00     0.018 A 
ENDBRANCH  16  17
ENDBRANCH  14  15
ENDBRANCH   5  14
BRANCH   4  20
HETATM   20  C   UNK N   1      26.037  27.061  -6.514  0.00  0.00     0.019 C 
HETATM   21  C   UNK N   1      25.802  26.290  -7.800  0.00  0.00     0.015 C 
HETATM   22  C   UNK N   1      24.784  27.061  -5.653  0.00  0.00     0.015 C 
ENDBRANCH   4  20
TORSDOF 4
ENDMDL
MODEL 8
REMARK VINA RESULT:      -6.1     11.652     14.867
REMARK  4 active torsions:
REMARK  status: ('A' for Active; 'I' for Inactive)
REMARK    1  A    between atoms: C_1  and  O_11 
REMARK    2  A    between atoms: C_2  and  C_3 
REMARK    3  A    between atoms: C_9  and  C_19 
REMARK    4  A    between atoms: C_10  and  O_11 
ROOT
HETATM    1  N   UNK N   1      31.968  17.759   8.376  0.00  0.00    -0.322 N 
HETATM    2  C   UNK N   1      30.640  17.976   8.625  0.00  0.00     0.255 A 
HETATM    3  O   UNK N   1      30.301  18.351   9.736  0.00  0.00    -0.268 OA
HETATM    4  C   UNK N   1      29.675  17.766   7.610  0.00  0.00     0.049 A 
HETATM    5  C   UNK N   1      30.117  17.325   6.324  0.00  0.00     0.111 A 
HETATM    6  C   UNK N   1      32.407  17.334   7.169  0.00  0.00     0.048 A 
HETATM    7  C   UNK N   1      31.491  17.110   6.120  0.00  0.00     0.029 A 
HETATM    8  C   UNK N   1      31.965  16.648   4.882  0.00  0.00     0.059 A 
HETATM    9  C   UNK N   1      33.328  16.409   4.691  0.00  0.00     0.117 A 
HETATM   10  C   UNK N   1      34.231  16.637   5.733  0.00  0.00     0.044 A 
HETATM   11  C   UNK N   1      33.771  17.100   6.969  0.00  0.00     0.033 A 
HETATM   12  F   UNK N   1      33.773  15.947   3.499  0.00  0.00    -0.206 F 
HETATM   13  H   UNK N   1      32.623  17.917   9.094  0.00  0.00     0.169 HD
ENDROOT
BRANCH   5  14
HETATM   14  O   UNK N   1      29.281  17.079   5.270  0.00  0.00    -0.259 OA
BRANCH  14  15
HETATM   15  C   UNK N   1      28.456  17.933   4.683  0.00  0.00     0.060 C 
HETATM   16  C   UNK N   1      27.709  18.732   4.172  0.00  0.00    -0.071 C 
BRANCH  16  17
HETATM   17  C   UNK N   1      26.823  19.724   3.561  0.00  0.00     0.067 A 
HETATM   18  C   UNK N   1      25.386  19.385   3.902  0.00  0.00     0.018 A 
HETATM   19  C   UNK N   1      26.102  20.488   4.650  0.00  0.00     0.018 A 
ENDBRANCH  16  17
ENDBRANCH  14  15
ENDBRANCH   5  14
BRANCH   4  20
HETATM   20  C   UNK N   1      28.212  17.997   7.905  0.00  0.00     0.019 C 
HETATM   21  C   UNK N   1      27.795  17.341   9.209  0.00  0.00     0.015 C 
HETATM   22  C   UNK N   1      27.839  19.471   7.904  0.00  0.00     0.015 C 
ENDBRANCH   4  20
TORSDOF 4
ENDMDL
MODEL 9
REMARK VINA RESULT:      -6.0     22.122     25.929
REMARK  4 active torsions:
REMARK  status: ('A' for Active; 'I' for Inactive)
REMARK    1  A    between atoms: C_1  and  O_11 
REMARK    2  A    between atoms: C_2  and  C_3 
REMARK    3  A    between atoms: C_9  and  C_19 
REMARK    4  A    between atoms: C_10  and  O_11 
ROOT
HETATM    1  N   UNK N   1      35.747   9.514  16.551  0.00  0.00    -0.322 N 
HETATM    2  C   UNK N   1      35.576   9.140  15.246  0.00  0.00     0.255 A 
HETATM    3  O   UNK N   1      35.841   7.995  14.921  0.00  0.00    -0.268 OA
HETATM    4  C   UNK N   1      35.101  10.069  14.289  0.00  0.00     0.049 A 
HETATM    5  C   UNK N   1      34.803  11.401  14.714  0.00  0.00     0.111 A 
HETATM    6  C   UNK N   1      35.480  10.772  16.973  0.00  0.00     0.048 A 
HETATM    7  C   UNK N   1      35.002  11.738  16.064  0.00  0.00     0.029 A 
HETATM    8  C   UNK N   1      34.752  13.043  16.518  0.00  0.00     0.059 A 
HETATM    9  C   UNK N   1      34.977  13.382  17.855  0.00  0.00     0.117 A 
HETATM   10  C   UNK N   1      35.446  12.418  18.752  0.00  0.00     0.044 A 
HETATM   11  C   UNK N   1      35.695  11.115  18.312  0.00  0.00     0.033 A 
HETATM   12  F   UNK N   1      34.750  14.648  18.280  0.00  0.00    -0.206 F 
HETATM   13  H   UNK N   1      36.072   8.850  17.201  0.00  0.00     0.169 HD
ENDROOT
BRANCH   5  14
HETATM   14  O   UNK N   1      34.350  12.388  13.883  0.00  0.00    -0.259 OA
BRANCH  14  15
HETATM   15  C   UNK N   1      35.074  13.291  13.239  0.00  0.00     0.060 C 
HETATM   16  C   UNK N   1      35.707  14.133  12.649  0.00  0.00    -0.071 C 
BRANCH  16  17
HETATM   17  C   UNK N   1      36.458  15.175  11.946  0.00  0.00     0.067 A 
HETATM   18  C   UNK N   1      36.238  15.028  10.455  0.00  0.00     0.018 A 
HETATM   19  C   UNK N   1      35.489  16.091  11.229  0.00  0.00     0.018 A 
ENDBRANCH  16  17
ENDBRANCH  14  15
ENDBRANCH   5  14
BRANCH   4  20
HETATM   20  C   UNK N   1      34.930   9.645  12.849  0.00  0.00     0.019 C 
HETATM   21  C   UNK N   1      33.581  10.072  12.298  0.00  0.00     0.015 C 
HETATM   22  C   UNK N   1      36.055  10.139  11.954  0.00  0.00     0.015 C 
ENDBRANCH   4  20
TORSDOF 4
ENDMDL
