MODEL 1
REMARK VINA RESULT:      -5.9      0.000      0.000
REMARK  1 active torsions:
REMARK  status: ('A' for Active; 'I' for Inactive)
REMARK    1  A    between atoms: C_4  and  N_8 
REMARK       I    between atoms: N_8  and  C_9 
ROOT
HETATM    1  N   UNK N   1      32.126  16.907   8.950  0.00  0.00    -0.193 N 
HETATM    2  C   UNK N   1      33.375  17.582   8.896  0.00  0.00     0.708 A 
HETATM    3  N   UNK N   1      34.415  17.303   9.696  0.00  0.00    -0.117 N 
ATOM      4  HN  UNK N   1      34.459  16.596  10.429  1.00  0.00     0.202 HD
HETATM    5  N   UNK N   1      35.372  18.142   9.330  0.00  0.00     0.006 NA
HETATM    6  N   UNK N   1      34.934  18.908   8.340  0.00  0.00     0.006 NA
HETATM    7  N   UNK N   1      33.687  18.578   8.049  0.00  0.00    -0.117 N 
HETATM    8  H   UNK N   1      32.018  16.191   9.617  0.00  0.00     0.184 HD
HETATM    9  H   UNK N   1      33.110  18.978   7.359  0.00  0.00     0.202 HD
ENDROOT
BRANCH   1  10
HETATM   10  C   UNK N   1      31.017  17.199   8.103  0.00  0.00     0.030 A 
HETATM   11  C   UNK N   1      30.042  17.974   8.581  0.00  0.00     0.075 A 
HETATM   12  C   UNK N   1      28.855  18.337   7.795  0.00  0.00     0.151 A 
HETATM   13  O   UNK N   1      28.005  19.050   8.300  0.00  0.00    -0.293 OA
HETATM   14  C   UNK N   1      28.656  17.859   6.392  0.00  0.00     0.083 A 
HETATM   15  C   UNK N   1      29.758  16.969   5.819  0.00  0.00     0.014 A 
HETATM   16  C   UNK N   1      30.962  16.637   6.702  0.00  0.00     0.058 A 
ENDBRANCH   1  10
TORSDOF 1
ENDMDL
MODEL 2
REMARK VINA RESULT:      -5.8     13.436     14.597
REMARK  1 active torsions:
REMARK  status: ('A' for Active; 'I' for Inactive)
REMARK    1  A    between atoms: C_4  and  N_8 
REMARK       I    between atoms: N_8  and  C_9 
ROOT
HETATM    1  N   UNK N   1      27.260  23.863  -2.863  0.00  0.00    -0.193 N 
HETATM    2  C   UNK N   1      28.660  23.738  -2.652  0.00  0.00     0.708 A 
HETATM    3  N   UNK N   1      29.212  22.930  -1.734  0.00  0.00    -0.117 N 
ATOM      4  HN  UNK N   1      28.728  22.314  -1.081  1.00  0.00     0.202 HD
HETATM    5  N   UNK N   1      30.519  23.103  -1.857  0.00  0.00     0.006 NA
HETATM    6  N   UNK N   1      30.759  23.986  -2.817  0.00  0.00     0.006 NA
HETATM    7  N   UNK N   1      29.613  24.399  -3.330  0.00  0.00    -0.117 N 
HETATM    8  H   UNK N   1      26.660  23.324  -2.300  0.00  0.00     0.184 HD
HETATM    9  H   UNK N   1      29.485  25.052  -4.056  0.00  0.00     0.202 HD
ENDROOT
BRANCH   1  10
HETATM   10  C   UNK N   1      26.667  24.720  -3.836  0.00  0.00     0.030 A 
HETATM   11  C   UNK N   1      26.319  24.195  -5.012  0.00  0.00     0.075 A 
HETATM   12  C   UNK N   1      25.701  24.984  -6.087  0.00  0.00     0.151 A 
HETATM   13  O   UNK N   1      25.410  24.435  -7.135  0.00  0.00    -0.293 OA
HETATM   14  C   UNK N   1      25.418  26.445  -5.934  0.00  0.00     0.083 A 
HETATM   15  C   UNK N   1      25.807  27.073  -4.596  0.00  0.00     0.014 A 
HETATM   16  C   UNK N   1      26.446  26.181  -3.530  0.00  0.00     0.058 A 
ENDBRANCH   1  10
TORSDOF 1
ENDMDL
MODEL 3
REMARK VINA RESULT:      -5.8      1.397      1.972
REMARK  1 active torsions:
REMARK  status: ('A' for Active; 'I' for Inactive)
REMARK    1  A    between atoms: C_4  and  N_8 
REMARK       I    between atoms: N_8  and  C_9 
ROOT
HETATM    1  N   UNK N   1      32.220  16.865   8.887  0.00  0.00    -0.193 N 
HETATM    2  C   UNK N   1      33.467  17.546   8.893  0.00  0.00     0.708 A 
HETATM    3  N   UNK N   1      34.480  17.251   9.722  0.00  0.00    -0.117 N 
ATOM      4  HN  UNK N   1      34.502  16.526  10.439  1.00  0.00     0.202 HD
HETATM    5  N   UNK N   1      35.445  18.103   9.411  0.00  0.00     0.006 NA
HETATM    6  N   UNK N   1      35.038  18.892   8.426  0.00  0.00     0.006 NA
HETATM    7  N   UNK N   1      33.803  18.564   8.083  0.00  0.00    -0.117 N 
HETATM    8  H   UNK N   1      32.093  16.132   9.532  0.00  0.00     0.184 HD
HETATM    9  H   UNK N   1      33.249  18.979   7.383  0.00  0.00     0.202 HD
ENDROOT
BRANCH   1  10
HETATM   10  C   UNK N   1      31.140  17.173   8.009  0.00  0.00     0.030 A 
HETATM   11  C   UNK N   1      31.179  16.693   6.765  0.00  0.00     0.075 A 
HETATM   12  C   UNK N   1      30.121  16.948   5.778  0.00  0.00     0.151 A 
HETATM   13  O   UNK N   1      30.227  16.475   4.659  0.00  0.00    -0.293 OA
HETATM   14  C   UNK N   1      28.916  17.771   6.103  0.00  0.00     0.083 A 
HETATM   15  C   UNK N   1      28.844  18.333   7.522  0.00  0.00     0.014 A 
HETATM   16  C   UNK N   1      29.987  18.021   8.489  0.00  0.00     0.058 A 
ENDBRANCH   1  10
TORSDOF 1
ENDMDL
MODEL 4
REMARK VINA RESULT:      -5.5     10.360     10.946
REMARK  1 active torsions:
REMARK  status: ('A' for Active; 'I' for Inactive)
REMARK    1  A    between atoms: C_4  and  N_8 
REMARK       I    between atoms: N_8  and  C_9 
ROOT
HETATM    1  N   UNK N   1      21.309  12.620  10.620  0.00  0.00    -0.193 N 
HETATM    2  C   UNK N   1      22.512  12.319  11.313  0.00  0.00     0.708 A 
HETATM    3  N   UNK N   1      22.563  11.653  12.476  0.00  0.00    -0.117 N 
ATOM      4  HN  UNK N   1      21.778  11.281  13.011  1.00  0.00     0.202 HD
HETATM    5  N   UNK N   1      23.849  11.582  12.782  0.00  0.00     0.006 NA
HETATM    6  N   UNK N   1      24.562  12.183  11.839  0.00  0.00     0.006 NA
HETATM    7  N   UNK N   1      23.749  12.653  10.908  0.00  0.00    -0.117 N 
HETATM    8  H   UNK N   1      20.460  12.320  11.019  0.00  0.00     0.184 HD
HETATM    9  H   UNK N   1      23.998  13.144  10.092  0.00  0.00     0.202 HD
ENDROOT
BRANCH   1  10
HETATM   10  C   UNK N   1      21.248  13.327   9.384  0.00  0.00     0.030 A 
HETATM   11  C   UNK N   1      21.066  14.648   9.419  0.00  0.00     0.075 A 
HETATM   12  C   UNK N   1      20.988  15.475   8.206  0.00  0.00     0.151 A 
HETATM   13  O   UNK N   1      20.821  16.677   8.318  0.00  0.00    -0.293 OA
HETATM   14  C   UNK N   1      21.108  14.886   6.837  0.00  0.00     0.083 A 
HETATM   15  C   UNK N   1      21.317  13.374   6.767  0.00  0.00     0.014 A 
HETATM   16  C   UNK N   1      21.387  12.586   8.075  0.00  0.00     0.058 A 
ENDBRANCH   1  10
TORSDOF 1
ENDMDL
MODEL 5
REMARK VINA RESULT:      -5.4      1.950      2.722
REMARK  1 active torsions:
REMARK  status: ('A' for Active; 'I' for Inactive)
REMARK    1  A    between atoms: C_4  and  N_8 
REMARK       I    between atoms: N_8  and  C_9 
ROOT
HETATM    1  N   UNK N   1      33.610  17.775   8.997  0.00  0.00    -0.193 N 
HETATM    2  C   UNK N   1      34.612  16.932   9.546  0.00  0.00     0.708 A 
HETATM    3  N   UNK N   1      35.238  17.167  10.708  0.00  0.00    -0.117 N 
ATOM      4  HN  UNK N   1      35.093  17.954  11.341  1.00  0.00     0.202 HD
HETATM    5  N   UNK N   1      36.086  16.161  10.859  0.00  0.00     0.006 NA
HETATM    6  N   UNK N   1      35.983  15.338   9.825  0.00  0.00     0.006 NA
HETATM    7  N   UNK N   1      35.067  15.797   8.988  0.00  0.00    -0.117 N 
HETATM    8  H   UNK N   1      33.360  18.583   9.501  0.00  0.00     0.184 HD
HETATM    9  H   UNK N   1      34.780  15.392   8.138  0.00  0.00     0.202 HD
ENDROOT
BRANCH   1  10
HETATM   10  C   UNK N   1      32.940  17.530   7.762  0.00  0.00     0.030 A 
HETATM   11  C   UNK N   1      31.652  17.185   7.798  0.00  0.00     0.075 A 
HETATM   12  C   UNK N   1      30.865  16.910   6.588  0.00  0.00     0.151 A 
HETATM   13  O   UNK N   1      29.692  16.599   6.700  0.00  0.00    -0.293 OA
HETATM   14  C   UNK N   1      31.461  16.999   5.219  0.00  0.00     0.083 A 
HETATM   15  C   UNK N   1      32.936  17.392   5.147  0.00  0.00     0.014 A 
HETATM   16  C   UNK N   1      33.683  17.662   6.454  0.00  0.00     0.058 A 
ENDBRANCH   1  10
TORSDOF 1
ENDMDL
MODEL 6
REMARK VINA RESULT:      -5.4      8.477     10.090
REMARK  1 active torsions:
REMARK  status: ('A' for Active; 'I' for Inactive)
REMARK    1  A    between atoms: C_4  and  N_8 
REMARK       I    between atoms: N_8  and  C_9 
ROOT
HETATM    1  N   UNK N   1      37.226  13.491  14.414  0.00  0.00    -0.193 N 
HETATM    2  C   UNK N   1      36.569  13.672  13.167  0.00  0.00     0.708 A 
HETATM    3  N   UNK N   1      37.191  13.640  11.980  0.00  0.00    -0.117 N 
ATOM      4  HN  UNK N   1      38.185  13.488  11.805  1.00  0.00     0.202 HD
HETATM    5  N   UNK N   1      36.241  13.849  11.082  0.00  0.00     0.006 NA
HETATM    6  N   UNK N   1      35.077  14.003  11.698  0.00  0.00     0.006 NA
HETATM    7  N   UNK N   1      35.255  13.897  13.004  0.00  0.00    -0.117 N 
HETATM    8  H   UNK N   1      38.197  13.332  14.405  0.00  0.00     0.184 HD
HETATM    9  H   UNK N   1      34.569  13.968  13.707  0.00  0.00     0.202 HD
ENDROOT
BRANCH   1  10
HETATM   10  C   UNK N   1      36.570  13.523  15.680  0.00  0.00     0.030 A 
HETATM   11  C   UNK N   1      36.646  14.642  16.403  0.00  0.00     0.075 A 
HETATM   12  C   UNK N   1      36.009  14.785  17.720  0.00  0.00     0.151 A 
HETATM   13  O   UNK N   1      36.122  15.839  18.322  0.00  0.00    -0.293 OA
HETATM   14  C   UNK N   1      35.226  13.676  18.346  0.00  0.00     0.083 A 
HETATM   15  C   UNK N   1      35.123  12.382  17.539  0.00  0.00     0.014 A 
HETATM   16  C   UNK N   1      35.815  12.314  16.177  0.00  0.00     0.058 A 
ENDBRANCH   1  10
TORSDOF 1
ENDMDL
MODEL 7
REMARK VINA RESULT:      -5.2      6.392      8.210
REMARK  1 active torsions:
REMARK  status: ('A' for Active; 'I' for Inactive)
REMARK    1  A    between atoms: C_4  and  N_8 
REMARK       I    between atoms: N_8  and  C_9 
ROOT
HETATM    1  N   UNK N   1      34.610  14.089  11.623  0.00  0.00    -0.193 N 
HETATM    2  C   UNK N   1      34.889  15.353  11.036  0.00  0.00     0.708 A 
HETATM    3  N   UNK N   1      34.035  16.018  10.245  0.00  0.00    -0.117 N 
ATOM      4  HN  UNK N   1      33.099  15.726   9.961  1.00  0.00     0.202 HD
HETATM    5  N   UNK N   1      34.664  17.134   9.911  0.00  0.00     0.006 NA
HETATM    6  N   UNK N   1      35.862  17.152  10.479  0.00  0.00     0.006 NA
HETATM    7  N   UNK N   1      36.028  16.049  11.188  0.00  0.00    -0.117 N 
HETATM    8  H   UNK N   1      33.736  13.677  11.437  0.00  0.00     0.184 HD
HETATM    9  H   UNK N   1      36.819  15.792  11.716  0.00  0.00     0.202 HD
ENDROOT
BRANCH   1  10
HETATM   10  C   UNK N   1      35.514  13.377  12.466  0.00  0.00     0.030 A 
HETATM   11  C   UNK N   1      35.461  13.597  13.780  0.00  0.00     0.075 A 
HETATM   12  C   UNK N   1      36.344  12.919  14.739  0.00  0.00     0.151 A 
HETATM   13  O   UNK N   1      36.236  13.172  15.927  0.00  0.00    -0.293 OA
HETATM   14  C   UNK N   1      37.372  11.925  14.302  0.00  0.00     0.083 A 
HETATM   15  C   UNK N   1      37.456  11.653  12.801  0.00  0.00     0.014 A 
HETATM   16  C   UNK N   1      36.500  12.401  11.870  0.00  0.00     0.058 A 
ENDBRANCH   1  10
TORSDOF 1
ENDMDL
MODEL 8
REMARK VINA RESULT:      -5.2      8.351     10.205
REMARK  1 active torsions:
REMARK  status: ('A' for Active; 'I' for Inactive)
REMARK    1  A    between atoms: C_4  and  N_8 
REMARK       I    between atoms: N_8  and  C_9 
ROOT
HETATM    1  N   UNK N   1      36.908  14.096  14.122  0.00  0.00    -0.193 N 
HETATM    2  C   UNK N   1      36.091  14.449  13.014  0.00  0.00     0.708 A 
HETATM    3  N   UNK N   1      36.378  15.437  12.155  0.00  0.00    -0.117 N 
ATOM      4  HN  UNK N   1      37.190  16.055  12.170  1.00  0.00     0.202 HD
HETATM    5  N   UNK N   1      35.382  15.442  11.282  0.00  0.00     0.006 NA
HETATM    6  N   UNK N   1      34.515  14.488  11.596  0.00  0.00     0.006 NA
HETATM    7  N   UNK N   1      34.936  13.852  12.676  0.00  0.00    -0.117 N 
HETATM    8  H   UNK N   1      37.735  14.609  14.267  0.00  0.00     0.184 HD
HETATM    9  H   UNK N   1      34.495  13.101  13.135  0.00  0.00     0.202 HD
ENDROOT
BRANCH   1  10
HETATM   10  C   UNK N   1      36.609  13.046  15.039  0.00  0.00     0.030 A 
HETATM   11  C   UNK N   1      37.152  11.846  14.827  0.00  0.00     0.075 A 
HETATM   12  C   UNK N   1      36.912  10.694  15.707  0.00  0.00     0.151 A 
HETATM   13  O   UNK N   1      37.444   9.629  15.448  0.00  0.00    -0.293 OA
HETATM   14  C   UNK N   1      36.035  10.790  16.914  0.00  0.00     0.083 A 
HETATM   15  C   UNK N   1      35.399  12.153  17.183  0.00  0.00     0.014 A 
HETATM   16  C   UNK N   1      35.700  13.301  16.217  0.00  0.00     0.058 A 
ENDBRANCH   1  10
TORSDOF 1
ENDMDL
MODEL 9
REMARK VINA RESULT:      -5.1      4.803      6.186
REMARK  1 active torsions:
REMARK  status: ('A' for Active; 'I' for Inactive)
REMARK    1  A    between atoms: C_4  and  N_8 
REMARK       I    between atoms: N_8  and  C_9 
ROOT
HETATM    1  N   UNK N   1      36.590  15.458  11.650  0.00  0.00    -0.193 N 
HETATM    2  C   UNK N   1      36.109  14.619  12.690  0.00  0.00     0.708 A 
HETATM    3  N   UNK N   1      36.720  14.466  13.874  0.00  0.00    -0.117 N 
ATOM      4  HN  UNK N   1      37.582  14.912  14.188  1.00  0.00     0.202 HD
HETATM    5  N   UNK N   1      35.964  13.614  14.550  0.00  0.00     0.006 NA
HETATM    6  N   UNK N   1      34.927  13.256  13.805  0.00  0.00     0.006 NA
HETATM    7  N   UNK N   1      34.994  13.871  12.636  0.00  0.00    -0.117 N 
HETATM    8  H   UNK N   1      37.423  15.958  11.809  0.00  0.00     0.184 HD
HETATM    9  H   UNK N   1      34.360  13.797  11.886  0.00  0.00     0.202 HD
ENDROOT
BRANCH   1  10
HETATM   10  C   UNK N   1      35.946  15.625  10.389  0.00  0.00     0.030 A 
HETATM   11  C   UNK N   1      35.202  16.716  10.197  0.00  0.00     0.075 A 
HETATM   12  C   UNK N   1      34.495  16.989   8.939  0.00  0.00     0.151 A 
HETATM   13  O   UNK N   1      33.834  18.008   8.838  0.00  0.00    -0.293 OA
HETATM   14  C   UNK N   1      34.561  16.053   7.774  0.00  0.00     0.083 A 
HETATM   15  C   UNK N   1      35.406  14.795   7.965  0.00  0.00     0.014 A 
HETATM   16  C   UNK N   1      36.110  14.585   9.307  0.00  0.00     0.058 A 
ENDBRANCH   1  10
TORSDOF 1
ENDMDL
