REMARK  4 active torsions:
REMARK  status: ('A' for Active; 'I' for Inactive)
REMARK    1  A    between atoms: C_1  and  N_13 
REMARK    2  A    between atoms: C_19  and  C_2 
REMARK    3  A    between atoms: C_2  and  C_20 
REMARK    4  A    between atoms: C_4  and  N_13 
ROOT
HETATM    1  C   UNK N   1       1.591  -0.813  -0.213  0.00  0.00     0.144 A 
HETATM    2  C   UNK N   1       3.181   2.124  -1.657  0.00  0.00     0.038 C 
HETATM    3  S   UNK N   1       1.014   0.469  -1.342  0.00  0.00    -0.074 SA
HETATM    4  N   UNK N   1       2.581  -0.508   0.525  0.00  0.00    -0.306 N 
ATOM      5  HN  UNK N   1       3.010  -1.168   1.174  1.00  0.00     0.171 HD
HETATM    6  C   UNK N   1       3.012   0.750   0.380  0.00  0.00     0.242 A 
HETATM    7  O   UNK N   1       3.949   1.177   1.035  0.00  0.00    -0.271 OA
HETATM    8  C   UNK N   1       2.242   1.605  -0.585  0.00  0.00     0.093 A 
ENDROOT
BRANCH   1   9
HETATM    9  N   UNK N   1       0.881  -2.022  -0.003  0.00  0.00    -0.366 N 
HETATM   10  H   UNK N   1       1.363  -2.822   0.310  0.00  0.00     0.162 HD
BRANCH   9  11
HETATM   11  C   UNK N   1      -0.538  -2.092  -0.242  0.00  0.00     0.083 C 
HETATM   12  C   UNK N   1      -1.023  -3.528  -0.008  0.00  0.00     0.025 C 
HETATM   13  C   UNK N   1      -2.504  -3.706   0.356  0.00  0.00     0.002 C 
HETATM   14  C   UNK N   1      -3.463  -2.855  -0.464  0.00  0.00     0.000 C 
HETATM   15  C   UNK N   1      -4.088  -1.824   0.469  0.00  0.00     0.000 C 
HETATM   16  C   UNK N   1      -3.626  -0.388   0.202  0.00  0.00     0.000 C 
HETATM   17  C   UNK N   1      -2.158  -0.240  -0.189  0.00  0.00     0.002 C 
HETATM   18  C   UNK N   1      -1.232  -1.082   0.670  0.00  0.00     0.025 C 
ENDBRANCH   9  11
ENDBRANCH   1   9
BRANCH   8  19
HETATM   19  C   UNK N   1       1.560   2.792   0.111  0.00  0.00     0.030 C 
BRANCH  19  20
HETATM   20  C   UNK N   1       0.353   2.414   0.963  0.00  0.00    -0.002 C 
HETATM   21  C   UNK N   1      -0.910   2.889   0.266  0.00  0.00     0.005 C 
ENDBRANCH  19  20
ENDBRANCH   8  19
TORSDOF 4
