MODEL 1
REMARK VINA RESULT:      -6.3      0.000      0.000
REMARK  4 active torsions:
REMARK  status: ('A' for Active; 'I' for Inactive)
REMARK    1  A    between atoms: C_1  and  N_13 
REMARK    2  A    between atoms: C_19  and  C_2 
REMARK    3  A    between atoms: C_2  and  C_20 
REMARK    4  A    between atoms: C_4  and  N_13 
ROOT
HETATM    1  C   UNK N   1      34.488  16.214   9.968  0.00  0.00     0.144 A 
HETATM    2  C   UNK N   1      34.146  16.927   6.416  0.00  0.00     0.038 C 
HETATM    3  S   UNK N   1      33.406  15.564   8.681  0.00  0.00    -0.074 SA
HETATM    4  N   UNK N   1      34.984  17.366   9.756  0.00  0.00    -0.306 N 
ATOM      5  HN  UNK N   1      35.636  17.814  10.401  1.00  0.00     0.171 HD
HETATM    6  C   UNK N   1      34.579  17.941   8.618  0.00  0.00     0.242 A 
HETATM    7  O   UNK N   1      34.971  19.052   8.297  0.00  0.00    -0.271 OA
HETATM    8  C   UNK N   1      33.583  17.167   7.804  0.00  0.00     0.093 A 
ENDROOT
BRANCH   1   9
HETATM    9  N   UNK N   1      34.635  15.588  11.231  0.00  0.00    -0.366 N 
HETATM   10  H   UNK N   1      34.284  16.030  12.039  0.00  0.00     0.162 HD
BRANCH   9  11
HETATM   11  C   UNK N   1      35.291  14.310  11.346  0.00  0.00     0.083 C 
HETATM   12  C   UNK N   1      36.548  14.303  10.466  0.00  0.00     0.025 C 
HETATM   13  C   UNK N   1      37.663  13.325  10.862  0.00  0.00     0.002 C 
HETATM   14  C   UNK N   1      37.176  11.938  11.257  0.00  0.00     0.000 C 
HETATM   15  C   UNK N   1      37.453  11.751  12.744  0.00  0.00     0.000 C 
HETATM   16  C   UNK N   1      36.190  11.721  13.610  0.00  0.00     0.000 C 
HETATM   17  C   UNK N   1      35.083  12.679  13.177  0.00  0.00     0.002 C 
HETATM   18  C   UNK N   1      35.605  14.059  12.820  0.00  0.00     0.025 C 
ENDBRANCH   9  11
ENDBRANCH   1   9
BRANCH   8  19
HETATM   19  C   UNK N   1      32.238  17.899   7.687  0.00  0.00     0.030 C 
BRANCH  19  20
HETATM   20  C   UNK N   1      31.146  17.361   8.606  0.00  0.00    -0.002 C 
HETATM   21  C   UNK N   1      30.318  18.525   9.121  0.00  0.00     0.005 C 
ENDBRANCH  19  20
ENDBRANCH   8  19
TORSDOF 4
ENDMDL
MODEL 2
REMARK VINA RESULT:      -6.3      2.735      3.886
REMARK  4 active torsions:
REMARK  status: ('A' for Active; 'I' for Inactive)
REMARK    1  A    between atoms: C_1  and  N_13 
REMARK    2  A    between atoms: C_19  and  C_2 
REMARK    3  A    between atoms: C_2  and  C_20 
REMARK    4  A    between atoms: C_4  and  N_13 
ROOT
HETATM    1  C   UNK N   1      36.348  14.401  11.759  0.00  0.00     0.144 A 
HETATM    2  C   UNK N   1      35.369  15.044   8.314  0.00  0.00     0.038 C 
HETATM    3  S   UNK N   1      35.466  13.423  10.527  0.00  0.00    -0.074 SA
HETATM    4  N   UNK N   1      36.335  15.662  11.591  0.00  0.00    -0.306 N 
ATOM      5  HN  UNK N   1      36.830  16.307  12.207  1.00  0.00     0.171 HD
HETATM    6  C   UNK N   1      35.617  16.072  10.539  0.00  0.00     0.242 A 
HETATM    7  O   UNK N   1      35.512  17.257  10.268  0.00  0.00    -0.271 OA
HETATM    8  C   UNK N   1      34.914  14.997   9.760  0.00  0.00     0.093 A 
ENDROOT
BRANCH   1   9
HETATM    9  N   UNK N   1      36.863  13.839  12.954  0.00  0.00    -0.366 N 
HETATM   10  H   UNK N   1      37.741  13.393  12.944  0.00  0.00     0.162 HD
BRANCH   9  11
HETATM   11  C   UNK N   1      36.116  13.916  14.184  0.00  0.00     0.083 C 
HETATM   12  C   UNK N   1      35.166  12.715  14.277  0.00  0.00     0.025 C 
HETATM   13  C   UNK N   1      34.728  12.289  15.686  0.00  0.00     0.002 C 
HETATM   14  C   UNK N   1      34.361  13.442  16.609  0.00  0.00     0.000 C 
HETATM   15  C   UNK N   1      35.403  13.502  17.720  0.00  0.00     0.000 C 
HETATM   16  C   UNK N   1      36.322  14.725  17.639  0.00  0.00     0.000 C 
HETATM   17  C   UNK N   1      36.719  15.148  16.228  0.00  0.00     0.002 C 
HETATM   18  C   UNK N   1      37.105  13.973  15.347  0.00  0.00     0.025 C 
ENDBRANCH   9  11
ENDBRANCH   1   9
BRANCH   8  19
HETATM   19  C   UNK N   1      33.386  15.148   9.816  0.00  0.00     0.030 C 
BRANCH  19  20
HETATM   20  C   UNK N   1      32.711  15.233   8.452  0.00  0.00    -0.002 C 
HETATM   21  C   UNK N   1      31.749  16.408   8.451  0.00  0.00     0.005 C 
ENDBRANCH  19  20
ENDBRANCH   8  19
TORSDOF 4
ENDMDL
MODEL 3
REMARK VINA RESULT:      -6.1      2.596      7.158
REMARK  4 active torsions:
REMARK  status: ('A' for Active; 'I' for Inactive)
REMARK    1  A    between atoms: C_1  and  N_13 
REMARK    2  A    between atoms: C_19  and  C_2 
REMARK    3  A    between atoms: C_2  and  C_20 
REMARK    4  A    between atoms: C_4  and  N_13 
ROOT
HETATM    1  C   UNK N   1      32.820  16.815   8.719  0.00  0.00     0.144 A 
HETATM    2  C   UNK N   1      34.525  14.763  11.192  0.00  0.00     0.038 C 
HETATM    3  S   UNK N   1      32.918  15.034   8.984  0.00  0.00    -0.074 SA
HETATM    4  N   UNK N   1      33.764  17.510   9.212  0.00  0.00    -0.306 N 
ATOM      5  HN  UNK N   1      33.791  18.528   9.152  1.00  0.00     0.171 HD
HETATM    6  C   UNK N   1      34.721  16.794   9.814  0.00  0.00     0.242 A 
HETATM    7  O   UNK N   1      35.691  17.335  10.320  0.00  0.00    -0.271 OA
HETATM    8  C   UNK N   1      34.553  15.302   9.775  0.00  0.00     0.093 A 
ENDROOT
BRANCH   1   9
HETATM    9  N   UNK N   1      31.865  17.407   7.854  0.00  0.00    -0.366 N 
HETATM   10  H   UNK N   1      31.330  18.172   8.169  0.00  0.00     0.162 HD
BRANCH   9  11
HETATM   11  C   UNK N   1      31.671  16.902   6.519  0.00  0.00     0.083 C 
HETATM   12  C   UNK N   1      30.277  17.304   6.021  0.00  0.00     0.025 C 
HETATM   13  C   UNK N   1      30.083  17.386   4.500  0.00  0.00     0.002 C 
HETATM   14  C   UNK N   1      30.712  16.240   3.720  0.00  0.00     0.000 C 
HETATM   15  C   UNK N   1      31.859  16.811   2.894  0.00  0.00     0.000 C 
HETATM   16  C   UNK N   1      33.246  16.373   3.376  0.00  0.00     0.000 C 
HETATM   17  C   UNK N   1      33.404  16.268   4.891  0.00  0.00     0.002 C 
HETATM   18  C   UNK N   1      32.789  17.443   5.630  0.00  0.00     0.025 C 
ENDBRANCH   9  11
ENDBRANCH   1   9
BRANCH   8  19
HETATM   19  C   UNK N   1      35.680  14.614   8.991  0.00  0.00     0.030 C 
BRANCH  19  20
HETATM   20  C   UNK N   1      35.244  14.008   7.661  0.00  0.00    -0.002 C 
HETATM   21  C   UNK N   1      36.187  14.484   6.570  0.00  0.00     0.005 C 
ENDBRANCH  19  20
ENDBRANCH   8  19
TORSDOF 4
ENDMDL
MODEL 4
REMARK VINA RESULT:      -6.1      3.763      7.354
REMARK  4 active torsions:
REMARK  status: ('A' for Active; 'I' for Inactive)
REMARK    1  A    between atoms: C_1  and  N_13 
REMARK    2  A    between atoms: C_19  and  C_2 
REMARK    3  A    between atoms: C_2  and  C_20 
REMARK    4  A    between atoms: C_4  and  N_13 
ROOT
HETATM    1  C   UNK N   1      36.132  13.884  13.472  0.00  0.00     0.144 A 
HETATM    2  C   UNK N   1      36.309  11.356  16.084  0.00  0.00     0.038 C 
HETATM    3  S   UNK N   1      36.831  13.878  15.134  0.00  0.00    -0.074 SA
HETATM    4  N   UNK N   1      35.219  13.028  13.243  0.00  0.00    -0.306 N 
ATOM      5  HN  UNK N   1      34.780  12.920  12.329  1.00  0.00     0.171 HD
HETATM    6  C   UNK N   1      34.883  12.282  14.302  0.00  0.00     0.242 A 
HETATM    7  O   UNK N   1      34.014  11.429  14.224  0.00  0.00    -0.271 OA
HETATM    8  C   UNK N   1      35.594  12.598  15.586  0.00  0.00     0.093 A 
ENDROOT
BRANCH   1   9
HETATM    9  N   UNK N   1      36.425  14.896  12.523  0.00  0.00    -0.366 N 
HETATM   10  H   UNK N   1      37.161  15.526  12.696  0.00  0.00     0.162 HD
BRANCH   9  11
HETATM   11  C   UNK N   1      35.657  15.010  11.310  0.00  0.00     0.083 C 
HETATM   12  C   UNK N   1      35.234  16.470  11.111  0.00  0.00     0.025 C 
HETATM   13  C   UNK N   1      34.935  16.913   9.671  0.00  0.00     0.002 C 
HETATM   14  C   UNK N   1      34.120  15.917   8.860  0.00  0.00     0.000 C 
HETATM   15  C   UNK N   1      35.015  15.369   7.755  0.00  0.00     0.000 C 
HETATM   16  C   UNK N   1      35.401  13.899   7.943  0.00  0.00     0.000 C 
HETATM   17  C   UNK N   1      35.661  13.475   9.386  0.00  0.00     0.002 C 
HETATM   18  C   UNK N   1      36.502  14.480  10.152  0.00  0.00     0.025 C 
ENDBRANCH   9  11
ENDBRANCH   1   9
BRANCH   8  19
HETATM   19  C   UNK N   1      34.632  13.100  16.672  0.00  0.00     0.030 C 
BRANCH  19  20
HETATM   20  C   UNK N   1      35.306  13.857  17.811  0.00  0.00    -0.002 C 
HETATM   21  C   UNK N   1      35.142  13.063  19.095  0.00  0.00     0.005 C 
ENDBRANCH  19  20
ENDBRANCH   8  19
TORSDOF 4
ENDMDL
MODEL 5
REMARK VINA RESULT:      -6.1      2.276      7.313
REMARK  4 active torsions:
REMARK  status: ('A' for Active; 'I' for Inactive)
REMARK    1  A    between atoms: C_1  and  N_13 
REMARK    2  A    between atoms: C_19  and  C_2 
REMARK    3  A    between atoms: C_2  and  C_20 
REMARK    4  A    between atoms: C_4  and  N_13 
ROOT
HETATM    1  C   UNK N   1      33.853  15.443   9.702  0.00  0.00     0.144 A 
HETATM    2  C   UNK N   1      35.433  12.215  10.265  0.00  0.00     0.038 C 
HETATM    3  S   UNK N   1      35.088  14.501   8.787  0.00  0.00    -0.074 SA
HETATM    4  N   UNK N   1      33.739  15.169  10.939  0.00  0.00    -0.306 N 
ATOM      5  HN  UNK N   1      33.049  15.615  11.543  1.00  0.00     0.171 HD
HETATM    6  C   UNK N   1      34.601  14.246  11.382  0.00  0.00     0.242 A 
HETATM    7  O   UNK N   1      34.607  13.896  12.551  0.00  0.00    -0.271 OA
HETATM    8  C   UNK N   1      35.581  13.720  10.373  0.00  0.00     0.093 A 
ENDROOT
BRANCH   1   9
HETATM    9  N   UNK N   1      33.177  16.559   9.147  0.00  0.00    -0.366 N 
HETATM   10  H   UNK N   1      33.097  17.390   9.670  0.00  0.00     0.162 HD
BRANCH   9  11
HETATM   11  C   UNK N   1      32.606  16.490   7.826  0.00  0.00     0.083 C 
HETATM   12  C   UNK N   1      31.079  16.583   7.926  0.00  0.00     0.025 C 
HETATM   13  C   UNK N   1      30.336  17.100   6.685  0.00  0.00     0.002 C 
HETATM   14  C   UNK N   1      30.836  16.529   5.366  0.00  0.00     0.000 C 
HETATM   15  C   UNK N   1      31.482  17.664   4.580  0.00  0.00     0.000 C 
HETATM   16  C   UNK N   1      33.004  17.541   4.453  0.00  0.00     0.000 C 
HETATM   17  C   UNK N   1      33.716  16.995   5.688  0.00  0.00     0.002 C 
HETATM   18  C   UNK N   1      33.209  17.610   6.980  0.00  0.00     0.025 C 
ENDBRANCH   9  11
ENDBRANCH   1   9
BRANCH   8  19
HETATM   19  C   UNK N   1      37.032  14.062  10.744  0.00  0.00     0.030 C 
BRANCH  19  20
HETATM   20  C   UNK N   1      37.939  12.849  10.923  0.00  0.00    -0.002 C 
HETATM   21  C   UNK N   1      39.049  12.908   9.888  0.00  0.00     0.005 C 
ENDBRANCH  19  20
ENDBRANCH   8  19
TORSDOF 4
ENDMDL
MODEL 6
REMARK VINA RESULT:      -6.0     19.789     21.569
REMARK  4 active torsions:
REMARK  status: ('A' for Active; 'I' for Inactive)
REMARK    1  A    between atoms: C_1  and  N_13 
REMARK    2  A    between atoms: C_19  and  C_2 
REMARK    3  A    between atoms: C_2  and  C_20 
REMARK    4  A    between atoms: C_4  and  N_13 
ROOT
HETATM    1  C   UNK N   1      26.698  27.806  -3.586  0.00  0.00     0.144 A 
HETATM    2  C   UNK N   1      28.889  30.590  -2.759  0.00  0.00     0.038 C 
HETATM    3  S   UNK N   1      28.453  28.115  -3.862  0.00  0.00    -0.074 SA
HETATM    4  N   UNK N   1      25.968  28.832  -3.408  0.00  0.00    -0.306 N 
ATOM      5  HN  UNK N   1      24.969  28.771  -3.209  1.00  0.00     0.171 HD
HETATM    6  C   UNK N   1      26.618  29.997  -3.504  0.00  0.00     0.242 A 
HETATM    7  O   UNK N   1      26.035  31.060  -3.364  0.00  0.00    -0.271 OA
HETATM    8  C   UNK N   1      28.078  29.912  -3.846  0.00  0.00     0.093 A 
ENDROOT
BRANCH   1   9
HETATM    9  N   UNK N   1      26.114  26.524  -3.748  0.00  0.00    -0.366 N 
HETATM   10  H   UNK N   1      25.547  26.153  -3.033  0.00  0.00     0.162 HD
BRANCH   9  11
HETATM   11  C   UNK N   1      26.339  25.760  -4.948  0.00  0.00     0.083 C 
HETATM   12  C   UNK N   1      26.090  24.275  -4.660  0.00  0.00     0.025 C 
HETATM   13  C   UNK N   1      25.711  23.392  -5.858  0.00  0.00     0.002 C 
HETATM   14  C   UNK N   1      26.529  23.650  -7.116  0.00  0.00     0.000 C 
HETATM   15  C   UNK N   1      25.599  24.248  -8.165  0.00  0.00     0.000 C 
HETATM   16  C   UNK N   1      25.881  25.722  -8.473  0.00  0.00     0.000 C 
HETATM   17  C   UNK N   1      26.286  26.571  -7.271  0.00  0.00     0.002 C 
HETATM   18  C   UNK N   1      25.429  26.306  -6.047  0.00  0.00     0.025 C 
ENDBRANCH   9  11
ENDBRANCH   1   9
BRANCH   8  19
HETATM   19  C   UNK N   1      28.394  30.567  -5.199  0.00  0.00     0.030 C 
BRANCH  19  20
HETATM   20  C   UNK N   1      28.297  29.624  -6.393  0.00  0.00    -0.002 C 
HETATM   21  C   UNK N   1      29.418  29.946  -7.366  0.00  0.00     0.005 C 
ENDBRANCH  19  20
ENDBRANCH   8  19
TORSDOF 4
ENDMDL
MODEL 7
REMARK VINA RESULT:      -6.0      4.404      7.443
REMARK  4 active torsions:
REMARK  status: ('A' for Active; 'I' for Inactive)
REMARK    1  A    between atoms: C_1  and  N_13 
REMARK    2  A    between atoms: C_19  and  C_2 
REMARK    3  A    between atoms: C_2  and  C_20 
REMARK    4  A    between atoms: C_4  and  N_13 
ROOT
HETATM    1  C   UNK N   1      36.605  13.133  14.542  0.00  0.00     0.144 A 
HETATM    2  C   UNK N   1      35.779  11.138  17.471  0.00  0.00     0.038 C 
HETATM    3  S   UNK N   1      35.119  12.989  15.554  0.00  0.00    -0.074 SA
HETATM    4  N   UNK N   1      37.405  12.145  14.575  0.00  0.00    -0.306 N 
ATOM      5  HN  UNK N   1      38.291  12.135  14.069  1.00  0.00     0.171 HD
HETATM    6  C   UNK N   1      36.988  11.119  15.326  0.00  0.00     0.242 A 
HETATM    7  O   UNK N   1      37.654  10.103  15.436  0.00  0.00    -0.271 OA
HETATM    8  C   UNK N   1      35.639  11.277  15.967  0.00  0.00     0.093 A 
ENDROOT
BRANCH   1   9
HETATM    9  N   UNK N   1      36.796  14.185  13.611  0.00  0.00    -0.366 N 
HETATM   10  H   UNK N   1      37.379  14.944  13.846  0.00  0.00     0.162 HD
BRANCH   9  11
HETATM   11  C   UNK N   1      36.148  14.155  12.325  0.00  0.00     0.083 C 
HETATM   12  C   UNK N   1      35.833  15.588  11.880  0.00  0.00     0.025 C 
HETATM   13  C   UNK N   1      35.691  15.827  10.370  0.00  0.00     0.002 C 
HETATM   14  C   UNK N   1      34.892  14.762   9.634  0.00  0.00     0.000 C 
HETATM   15  C   UNK N   1      35.847  14.015   8.710  0.00  0.00     0.000 C 
HETATM   16  C   UNK N   1      36.125  12.572   9.142  0.00  0.00     0.000 C 
HETATM   17  C   UNK N   1      36.230  12.354  10.649  0.00  0.00     0.002 C 
HETATM   18  C   UNK N   1      37.058  13.421  11.342  0.00  0.00     0.025 C 
ENDBRANCH   9  11
ENDBRANCH   1   9
BRANCH   8  19
HETATM   19  C   UNK N   1      34.630  10.240  15.453  0.00  0.00     0.030 C 
BRANCH  19  20
HETATM   20  C   UNK N   1      33.603  10.794  14.471  0.00  0.00    -0.002 C 
HETATM   21  C   UNK N   1      34.000  10.389  13.062  0.00  0.00     0.005 C 
ENDBRANCH  19  20
ENDBRANCH   8  19
TORSDOF 4
ENDMDL
MODEL 8
REMARK VINA RESULT:      -5.9      3.972      8.062
REMARK  4 active torsions:
REMARK  status: ('A' for Active; 'I' for Inactive)
REMARK    1  A    between atoms: C_1  and  N_13 
REMARK    2  A    between atoms: C_19  and  C_2 
REMARK    3  A    between atoms: C_2  and  C_20 
REMARK    4  A    between atoms: C_4  and  N_13 
ROOT
HETATM    1  C   UNK N   1      31.208  17.007   8.380  0.00  0.00     0.144 A 
HETATM    2  C   UNK N   1      34.647  15.910   7.916  0.00  0.00     0.038 C 
HETATM    3  S   UNK N   1      31.958  15.679   7.417  0.00  0.00    -0.074 SA
HETATM    4  N   UNK N   1      31.968  17.982   8.679  0.00  0.00    -0.306 N 
ATOM      5  HN  UNK N   1      31.658  18.769   9.249  1.00  0.00     0.171 HD
HETATM    6  C   UNK N   1      33.207  17.891   8.182  0.00  0.00     0.242 A 
HETATM    7  O   UNK N   1      34.035  18.764   8.384  0.00  0.00    -0.271 OA
HETATM    8  C   UNK N   1      33.488  16.690   7.325  0.00  0.00     0.093 A 
ENDROOT
BRANCH   1   9
HETATM    9  N   UNK N   1      29.815  17.075   8.632  0.00  0.00    -0.366 N 
HETATM   10  H   UNK N   1      29.466  16.809   9.514  0.00  0.00     0.162 HD
BRANCH   9  11
HETATM   11  C   UNK N   1      28.905  17.530   7.612  0.00  0.00     0.083 C 
HETATM   12  C   UNK N   1      28.322  18.889   8.019  0.00  0.00     0.025 C 
HETATM   13  C   UNK N   1      27.819  19.792   6.884  0.00  0.00     0.002 C 
HETATM   14  C   UNK N   1      27.015  19.070   5.812  0.00  0.00     0.000 C 
HETATM   15  C   UNK N   1      27.826  19.098   4.521  0.00  0.00     0.000 C 
HETATM   16  C   UNK N   1      28.371  17.729   4.103  0.00  0.00     0.000 C 
HETATM   17  C   UNK N   1      28.836  16.837   5.251  0.00  0.00     0.002 C 
HETATM   18  C   UNK N   1      29.658  17.587   6.284  0.00  0.00     0.025 C 
ENDBRANCH   9  11
ENDBRANCH   1   9
BRANCH   8  19
HETATM   19  C   UNK N   1      33.822  17.078   5.877  0.00  0.00     0.030 C 
BRANCH  19  20
HETATM   20  C   UNK N   1      32.916  16.441   4.829  0.00  0.00    -0.002 C 
HETATM   21  C   UNK N   1      32.448  17.517   3.864  0.00  0.00     0.005 C 
ENDBRANCH  19  20
ENDBRANCH   8  19
TORSDOF 4
ENDMDL
MODEL 9
REMARK VINA RESULT:      -5.9      3.183      7.266
REMARK  4 active torsions:
REMARK  status: ('A' for Active; 'I' for Inactive)
REMARK    1  A    between atoms: C_1  and  N_13 
REMARK    2  A    between atoms: C_19  and  C_2 
REMARK    3  A    between atoms: C_2  and  C_20 
REMARK    4  A    between atoms: C_4  and  N_13 
ROOT
HETATM    1  C   UNK N   1      36.173  14.434  12.933  0.00  0.00     0.144 A 
HETATM    2  C   UNK N   1      34.814  13.062  16.017  0.00  0.00     0.038 C 
HETATM    3  S   UNK N   1      35.236  12.940  13.308  0.00  0.00    -0.074 SA
HETATM    4  N   UNK N   1      36.813  14.954  13.902  0.00  0.00    -0.306 N 
ATOM      5  HN  UNK N   1      37.346  15.819  13.810  1.00  0.00     0.171 HD
HETATM    6  C   UNK N   1      36.728  14.273  15.049  0.00  0.00     0.242 A 
HETATM    7  O   UNK N   1      37.303  14.655  16.056  0.00  0.00    -0.271 OA
HETATM    8  C   UNK N   1      35.940  12.995  15.003  0.00  0.00     0.093 A 
ENDROOT
BRANCH   1   9
HETATM    9  N   UNK N   1      36.358  14.908  11.610  0.00  0.00    -0.366 N 
HETATM   10  H   UNK N   1      37.270  14.995  11.247  0.00  0.00     0.162 HD
BRANCH   9  11
HETATM   11  C   UNK N   1      35.228  15.263  10.791  0.00  0.00     0.083 C 
HETATM   12  C   UNK N   1      35.312  16.749  10.423  0.00  0.00     0.025 C 
HETATM   13  C   UNK N   1      34.583  17.188   9.145  0.00  0.00     0.002 C 
HETATM   14  C   UNK N   1      33.196  16.585   8.971  0.00  0.00     0.000 C 
HETATM   15  C   UNK N   1      33.244  15.642   7.774  0.00  0.00     0.000 C 
HETATM   16  C   UNK N   1      33.120  14.161   8.148  0.00  0.00     0.000 C 
HETATM   17  C   UNK N   1      33.827  13.757   9.439  0.00  0.00     0.002 C 
HETATM   18  C   UNK N   1      35.217  14.354   9.562  0.00  0.00     0.025 C 
ENDBRANCH   9  11
ENDBRANCH   1   9
BRANCH   8  19
HETATM   19  C   UNK N   1      36.813  11.766  15.293  0.00  0.00     0.030 C 
BRANCH  19  20
HETATM   20  C   UNK N   1      37.876  11.484  14.237  0.00  0.00    -0.002 C 
HETATM   21  C   UNK N   1      38.295  10.028  14.336  0.00  0.00     0.005 C 
ENDBRANCH  19  20
ENDBRANCH   8  19
TORSDOF 4
ENDMDL
