MODEL 1
REMARK VINA RESULT:      -6.6      0.000      0.000
REMARK  4 active torsions:
REMARK  status: ('A' for Active; 'I' for Inactive)
REMARK    1  A    between atoms: C_1  and  O_12 
REMARK    2  A    between atoms: C_10  and  C_20 
REMARK    3  A    between atoms: C_11  and  O_12 
REMARK    4  A    between atoms: C_20  and  C_21 
ROOT
HETATM    1  N   UNK N   1      27.972  19.411   8.264  0.00  0.00    -0.322 N 
HETATM    2  C   UNK N   1      28.859  18.405   8.528  0.00  0.00     0.255 A 
HETATM    3  O   UNK N   1      29.183  18.209   9.686  0.00  0.00    -0.268 OA
HETATM    4  C   UNK N   1      29.394  17.618   7.469  0.00  0.00     0.044 A 
HETATM    5  C   UNK N   1      28.967  17.903   6.130  0.00  0.00     0.093 A 
HETATM    6  C   UNK N   1      27.566  19.701   7.007  0.00  0.00     0.048 A 
HETATM    7  C   UNK N   1      28.052  18.952   5.919  0.00  0.00     0.026 A 
HETATM    8  C   UNK N   1      27.629  19.278   4.620  0.00  0.00     0.040 A 
HETATM    9  C   UNK N   1      26.740  20.335   4.412  0.00  0.00     0.035 A 
HETATM   10  C   UNK N   1      26.263  21.073   5.496  0.00  0.00     0.026 A 
HETATM   11  C   UNK N   1      26.673  20.754   6.793  0.00  0.00     0.032 A 
HETATM   12 Cl   UNK N   1      26.234  20.743   2.786  0.00  0.00    -0.084 Cl
HETATM   13  H   UNK N   1      27.615  19.941   9.013  0.00  0.00     0.169 HD
ENDROOT
BRANCH   5  14
HETATM   14  O   UNK N   1      29.398  17.233   5.017  0.00  0.00    -0.344 OA
BRANCH  14  15
HETATM   15  C   UNK N   1      30.634  16.698   4.718  0.00  0.00     0.129 C 
HETATM   16  C   UNK N   1      30.577  15.777   3.497  0.00  0.00     0.032 C 
HETATM   17  C   UNK N   1      31.967  15.193   3.252  0.00  0.00     0.002 C 
HETATM   18  C   UNK N   1      32.957  16.317   2.958  0.00  0.00     0.000 C 
HETATM   19  C   UNK N   1      32.988  17.320   4.110  0.00  0.00     0.002 C 
HETATM   20  C   UNK N   1      31.586  17.850   4.401  0.00  0.00     0.032 C 
ENDBRANCH  14  15
ENDBRANCH   5  14
BRANCH   4  21
HETATM   21  C   UNK N   1      30.394  16.503   7.723  0.00  0.00     0.047 C 
BRANCH  21  22
HETATM   22  C   UNK N   1      31.841  16.867   8.021  0.00  0.00     0.000 C 
HETATM   23  C   UNK N   1      32.742  15.722   7.612  0.00  0.00     0.005 C 
ENDBRANCH  21  22
ENDBRANCH   4  21
TORSDOF 4
ENDMDL
MODEL 2
REMARK VINA RESULT:      -6.5      1.533      2.189
REMARK  4 active torsions:
REMARK  status: ('A' for Active; 'I' for Inactive)
REMARK    1  A    between atoms: C_1  and  O_12 
REMARK    2  A    between atoms: C_10  and  C_20 
REMARK    3  A    between atoms: C_11  and  O_12 
REMARK    4  A    between atoms: C_20  and  C_21 
ROOT
HETATM    1  N   UNK N   1      27.888  19.414   8.238  0.00  0.00    -0.322 N 
HETATM    2  C   UNK N   1      28.829  18.459   8.502  0.00  0.00     0.255 A 
HETATM    3  O   UNK N   1      29.132  18.250   9.664  0.00  0.00    -0.268 OA
HETATM    4  C   UNK N   1      29.446  17.739   7.439  0.00  0.00     0.044 A 
HETATM    5  C   UNK N   1      29.040  18.035   6.096  0.00  0.00     0.093 A 
HETATM    6  C   UNK N   1      27.503  19.714   6.978  0.00  0.00     0.048 A 
HETATM    7  C   UNK N   1      28.067  19.030   5.886  0.00  0.00     0.026 A 
HETATM    8  C   UNK N   1      27.662  19.367   4.583  0.00  0.00     0.040 A 
HETATM    9  C   UNK N   1      26.714  20.372   4.376  0.00  0.00     0.035 A 
HETATM   10  C   UNK N   1      26.159  21.046   5.465  0.00  0.00     0.026 A 
HETATM   11  C   UNK N   1      26.551  20.715   6.765  0.00  0.00     0.032 A 
HETATM   12 Cl   UNK N   1      26.231  20.795   2.747  0.00  0.00    -0.084 Cl
HETATM   13  H   UNK N   1      27.476  19.898   8.990  0.00  0.00     0.169 HD
ENDROOT
BRANCH   5  14
HETATM   14  O   UNK N   1      29.546  17.426   4.979  0.00  0.00    -0.344 OA
BRANCH  14  15
HETATM   15  C   UNK N   1      29.292  16.179   4.449  0.00  0.00     0.129 C 
HETATM   16  C   UNK N   1      28.012  15.565   5.020  0.00  0.00     0.032 C 
HETATM   17  C   UNK N   1      27.818  14.174   4.420  0.00  0.00     0.002 C 
HETATM   18  C   UNK N   1      27.662  14.280   2.905  0.00  0.00     0.000 C 
HETATM   19  C   UNK N   1      28.877  14.970   2.288  0.00  0.00     0.002 C 
HETATM   20  C   UNK N   1      29.112  16.331   2.939  0.00  0.00     0.032 C 
ENDBRANCH  14  15
ENDBRANCH   5  14
BRANCH   4  21
HETATM   21  C   UNK N   1      30.506  16.682   7.694  0.00  0.00     0.047 C 
BRANCH  21  22
HETATM   22  C   UNK N   1      31.946  16.975   7.296  0.00  0.00     0.000 C 
HETATM   23  C   UNK N   1      32.551  17.951   8.281  0.00  0.00     0.005 C 
ENDBRANCH  21  22
ENDBRANCH   4  21
TORSDOF 4
ENDMDL
MODEL 3
REMARK VINA RESULT:      -6.5     10.444     12.008
REMARK  4 active torsions:
REMARK  status: ('A' for Active; 'I' for Inactive)
REMARK    1  A    between atoms: C_1  and  O_12 
REMARK    2  A    between atoms: C_10  and  C_20 
REMARK    3  A    between atoms: C_11  and  O_12 
REMARK    4  A    between atoms: C_20  and  C_21 
ROOT
HETATM    1  N   UNK N   1      28.708  23.706  -2.580  0.00  0.00    -0.322 N 
HETATM    2  C   UNK N   1      29.896  23.033  -2.533  0.00  0.00     0.255 A 
HETATM    3  O   UNK N   1      30.467  22.941  -1.460  0.00  0.00    -0.268 OA
HETATM    4  C   UNK N   1      30.454  22.466  -3.714  0.00  0.00     0.044 A 
HETATM    5  C   UNK N   1      29.727  22.611  -4.942  0.00  0.00     0.093 A 
HETATM    6  C   UNK N   1      28.016  23.861  -3.731  0.00  0.00     0.048 A 
HETATM    7  C   UNK N   1      28.509  23.315  -4.930  0.00  0.00     0.026 A 
HETATM    8  C   UNK N   1      27.781  23.500  -6.118  0.00  0.00     0.040 A 
HETATM    9  C   UNK N   1      26.584  24.221  -6.107  0.00  0.00     0.035 A 
HETATM   10  C   UNK N   1      26.102  24.759  -4.913  0.00  0.00     0.026 A 
HETATM   11  C   UNK N   1      26.816  24.577  -3.725  0.00  0.00     0.032 A 
HETATM   12 Cl   UNK N   1      25.695  24.459  -7.596  0.00  0.00    -0.084 Cl
HETATM   13  H   UNK N   1      28.343  24.088  -1.749  0.00  0.00     0.169 HD
ENDROOT
BRANCH   5  14
HETATM   14  O   UNK N   1      30.141  22.121  -6.152  0.00  0.00    -0.344 OA
BRANCH  14  15
HETATM   15  C   UNK N   1      30.300  20.821  -6.583  0.00  0.00     0.129 C 
HETATM   16  C   UNK N   1      29.100  20.339  -7.401  0.00  0.00     0.032 C 
HETATM   17  C   UNK N   1      29.329  18.885  -7.808  0.00  0.00     0.002 C 
HETATM   18  C   UNK N   1      30.576  18.781  -8.683  0.00  0.00     0.000 C 
HETATM   19  C   UNK N   1      31.795  19.335  -7.946  0.00  0.00     0.002 C 
HETATM   20  C   UNK N   1      31.538  20.765  -7.478  0.00  0.00     0.032 C 
ENDBRANCH  14  15
ENDBRANCH   5  14
BRANCH   4  21
HETATM   21  C   UNK N   1      31.779  21.725  -3.702  0.00  0.00     0.047 C 
BRANCH  21  22
HETATM   22  C   UNK N   1      32.988  22.371  -4.363  0.00  0.00     0.000 C 
HETATM   23  C   UNK N   1      34.119  21.367  -4.435  0.00  0.00     0.005 C 
ENDBRANCH  21  22
ENDBRANCH   4  21
TORSDOF 4
ENDMDL
MODEL 4
REMARK VINA RESULT:      -6.4      2.867      5.155
REMARK  4 active torsions:
REMARK  status: ('A' for Active; 'I' for Inactive)
REMARK    1  A    between atoms: C_1  and  O_12 
REMARK    2  A    between atoms: C_10  and  C_20 
REMARK    3  A    between atoms: C_11  and  O_12 
REMARK    4  A    between atoms: C_20  and  C_21 
ROOT
HETATM    1  N   UNK N   1      27.536  19.815   7.598  0.00  0.00    -0.322 N 
HETATM    2  C   UNK N   1      27.036  20.186   6.382  0.00  0.00     0.255 A 
HETATM    3  O   UNK N   1      26.183  21.057   6.348  0.00  0.00    -0.268 OA
HETATM    4  C   UNK N   1      27.495  19.559   5.189  0.00  0.00     0.044 A 
HETATM    5  C   UNK N   1      28.502  18.544   5.303  0.00  0.00     0.093 A 
HETATM    6  C   UNK N   1      28.477  18.852   7.724  0.00  0.00     0.048 A 
HETATM    7  C   UNK N   1      28.979  18.203   6.582  0.00  0.00     0.026 A 
HETATM    8  C   UNK N   1      29.947  17.196   6.736  0.00  0.00     0.040 A 
HETATM    9  C   UNK N   1      30.401  16.842   8.009  0.00  0.00     0.035 A 
HETATM   10  C   UNK N   1      29.898  17.492   9.138  0.00  0.00     0.026 A 
HETATM   11  C   UNK N   1      28.939  18.499   8.995  0.00  0.00     0.032 A 
HETATM   12 Cl   UNK N   1      31.594  15.574   8.190  0.00  0.00    -0.084 Cl
HETATM   13  H   UNK N   1      27.203  20.264   8.409  0.00  0.00     0.169 HD
ENDROOT
BRANCH   5  14
HETATM   14  O   UNK N   1      29.035  17.857   4.246  0.00  0.00    -0.344 OA
BRANCH  14  15
HETATM   15  C   UNK N   1      28.464  16.919   3.410  0.00  0.00     0.129 C 
HETATM   16  C   UNK N   1      29.481  15.874   2.946  0.00  0.00     0.032 C 
HETATM   17  C   UNK N   1      28.790  14.897   1.997  0.00  0.00     0.002 C 
HETATM   18  C   UNK N   1      27.661  14.174   2.728  0.00  0.00     0.000 C 
HETATM   19  C   UNK N   1      26.659  15.179   3.294  0.00  0.00     0.002 C 
HETATM   20  C   UNK N   1      27.363  16.198   4.186  0.00  0.00     0.032 C 
ENDBRANCH  14  15
ENDBRANCH   5  14
BRANCH   4  21
HETATM   21  C   UNK N   1      26.950  19.935   3.822  0.00  0.00     0.047 C 
BRANCH  21  22
HETATM   22  C   UNK N   1      25.591  19.397   3.400  0.00  0.00     0.000 C 
HETATM   23  C   UNK N   1      24.834  20.473   2.653  0.00  0.00     0.005 C 
ENDBRANCH  21  22
ENDBRANCH   4  21
TORSDOF 4
ENDMDL
MODEL 5
REMARK VINA RESULT:      -6.3      2.785      5.889
REMARK  4 active torsions:
REMARK  status: ('A' for Active; 'I' for Inactive)
REMARK    1  A    between atoms: C_1  and  O_12 
REMARK    2  A    between atoms: C_10  and  C_20 
REMARK    3  A    between atoms: C_11  and  O_12 
REMARK    4  A    between atoms: C_20  and  C_21 
ROOT
HETATM    1  N   UNK N   1      32.279  16.383   5.165  0.00  0.00    -0.322 N 
HETATM    2  C   UNK N   1      31.592  16.108   4.016  0.00  0.00     0.255 A 
HETATM    3  O   UNK N   1      32.207  15.649   3.069  0.00  0.00    -0.268 OA
HETATM    4  C   UNK N   1      30.194  16.365   3.931  0.00  0.00     0.044 A 
HETATM    5  C   UNK N   1      29.533  16.903   5.085  0.00  0.00     0.093 A 
HETATM    6  C   UNK N   1      31.674  16.901   6.258  0.00  0.00     0.048 A 
HETATM    7  C   UNK N   1      30.293  17.167   6.240  0.00  0.00     0.026 A 
HETATM    8  C   UNK N   1      29.687  17.718   7.381  0.00  0.00     0.040 A 
HETATM    9  C   UNK N   1      30.448  18.001   8.518  0.00  0.00     0.035 A 
HETATM   10  C   UNK N   1      31.818  17.734   8.527  0.00  0.00     0.026 A 
HETATM   11  C   UNK N   1      32.430  17.181   7.399  0.00  0.00     0.032 A 
HETATM   12 Cl   UNK N   1      29.684  18.704   9.928  0.00  0.00    -0.084 Cl
HETATM   13  H   UNK N   1      33.245  16.195   5.199  0.00  0.00     0.169 HD
ENDROOT
BRANCH   5  14
HETATM   14  O   UNK N   1      28.199  17.201   5.148  0.00  0.00    -0.344 OA
BRANCH  14  15
HETATM   15  C   UNK N   1      27.421  17.997   4.333  0.00  0.00     0.129 C 
HETATM   16  C   UNK N   1      25.927  17.744   4.544  0.00  0.00     0.032 C 
HETATM   17  C   UNK N   1      25.133  18.629   3.585  0.00  0.00     0.002 C 
HETATM   18  C   UNK N   1      25.416  20.100   3.881  0.00  0.00     0.000 C 
HETATM   19  C   UNK N   1      26.911  20.391   3.773  0.00  0.00     0.002 C 
HETATM   20  C   UNK N   1      27.709  19.457   4.680  0.00  0.00     0.032 C 
ENDBRANCH  14  15
ENDBRANCH   5  14
BRANCH   4  21
HETATM   21  C   UNK N   1      29.401  16.087   2.666  0.00  0.00     0.047 C 
BRANCH  21  22
HETATM   22  C   UNK N   1      28.635  14.777   2.551  0.00  0.00     0.000 C 
HETATM   23  C   UNK N   1      27.214  15.062   2.116  0.00  0.00     0.005 C 
ENDBRANCH  21  22
ENDBRANCH   4  21
TORSDOF 4
ENDMDL
MODEL 6
REMARK VINA RESULT:      -6.3     11.437     13.494
REMARK  4 active torsions:
REMARK  status: ('A' for Active; 'I' for Inactive)
REMARK    1  A    between atoms: C_1  and  O_12 
REMARK    2  A    between atoms: C_10  and  C_20 
REMARK    3  A    between atoms: C_11  and  O_12 
REMARK    4  A    between atoms: C_20  and  C_21 
ROOT
HETATM    1  N   UNK N   1      25.298  25.836  -6.195  0.00  0.00    -0.322 N 
HETATM    2  C   UNK N   1      25.955  24.828  -6.844  0.00  0.00     0.255 A 
HETATM    3  O   UNK N   1      25.331  24.150  -7.642  0.00  0.00    -0.268 OA
HETATM    4  C   UNK N   1      27.332  24.576  -6.581  0.00  0.00     0.044 A 
HETATM    5  C   UNK N   1      28.004  25.414  -5.632  0.00  0.00     0.093 A 
HETATM    6  C   UNK N   1      25.914  26.628  -5.289  0.00  0.00     0.048 A 
HETATM    7  C   UNK N   1      27.276  26.435  -4.993  0.00  0.00     0.026 A 
HETATM    8  C   UNK N   1      27.893  27.260  -4.038  0.00  0.00     0.040 A 
HETATM    9  C   UNK N   1      27.161  28.257  -3.389  0.00  0.00     0.035 A 
HETATM   10  C   UNK N   1      25.810  28.442  -3.688  0.00  0.00     0.026 A 
HETATM   11  C   UNK N   1      25.188  27.630  -4.639  0.00  0.00     0.032 A 
HETATM   12 Cl   UNK N   1      27.937  29.268  -2.188  0.00  0.00    -0.084 Cl
HETATM   13  H   UNK N   1      24.347  25.991  -6.395  0.00  0.00     0.169 HD
ENDROOT
BRANCH   5  14
HETATM   14  O   UNK N   1      29.321  25.287  -5.279  0.00  0.00    -0.344 OA
BRANCH  14  15
HETATM   15  C   UNK N   1      29.907  24.571  -4.256  0.00  0.00     0.129 C 
HETATM   16  C   UNK N   1      28.904  23.656  -3.551  0.00  0.00     0.032 C 
HETATM   17  C   UNK N   1      29.613  22.928  -2.411  0.00  0.00     0.002 C 
HETATM   18  C   UNK N   1      30.739  22.062  -2.969  0.00  0.00     0.000 C 
HETATM   19  C   UNK N   1      31.727  22.915  -3.763  0.00  0.00     0.002 C 
HETATM   20  C   UNK N   1      31.006  23.696  -4.858  0.00  0.00     0.032 C 
ENDBRANCH  14  15
ENDBRANCH   5  14
BRANCH   4  21
HETATM   21  C   UNK N   1      28.089  23.455  -7.272  0.00  0.00     0.047 C 
BRANCH  21  22
HETATM   22  C   UNK N   1      28.021  22.052  -6.687  0.00  0.00     0.000 C 
HETATM   23  C   UNK N   1      29.311  21.320  -6.984  0.00  0.00     0.005 C 
ENDBRANCH  21  22
ENDBRANCH   4  21
TORSDOF 4
ENDMDL
MODEL 7
REMARK VINA RESULT:      -6.3     11.449     13.832
REMARK  4 active torsions:
REMARK  status: ('A' for Active; 'I' for Inactive)
REMARK    1  A    between atoms: C_1  and  O_12 
REMARK    2  A    between atoms: C_10  and  C_20 
REMARK    3  A    between atoms: C_11  and  O_12 
REMARK    4  A    between atoms: C_20  and  C_21 
ROOT
HETATM    1  N   UNK N   1      27.907  24.426  -2.923  0.00  0.00    -0.322 N 
HETATM    2  C   UNK N   1      27.016  25.209  -3.601  0.00  0.00     0.255 A 
HETATM    3  O   UNK N   1      26.339  25.999  -2.965  0.00  0.00    -0.268 OA
HETATM    4  C   UNK N   1      26.879  25.093  -5.014  0.00  0.00     0.044 A 
HETATM    5  C   UNK N   1      27.709  24.145  -5.698  0.00  0.00     0.093 A 
HETATM    6  C   UNK N   1      28.689  23.519  -3.551  0.00  0.00     0.048 A 
HETATM    7  C   UNK N   1      28.608  23.364  -4.947  0.00  0.00     0.026 A 
HETATM    8  C   UNK N   1      29.420  22.406  -5.578  0.00  0.00     0.040 A 
HETATM    9  C   UNK N   1      30.293  21.616  -4.827  0.00  0.00     0.035 A 
HETATM   10  C   UNK N   1      30.367  21.776  -3.442  0.00  0.00     0.026 A 
HETATM   11  C   UNK N   1      29.568  22.729  -2.805  0.00  0.00     0.032 A 
HETATM   12 Cl   UNK N   1      31.286  20.414  -5.623  0.00  0.00    -0.084 Cl
HETATM   13  H   UNK N   1      27.983  24.525  -1.947  0.00  0.00     0.169 HD
ENDROOT
BRANCH   5  14
HETATM   14  O   UNK N   1      27.686  23.923  -7.049  0.00  0.00    -0.344 OA
BRANCH  14  15
HETATM   15  C   UNK N   1      26.821  23.171  -7.816  0.00  0.00     0.129 C 
HETATM   16  C   UNK N   1      27.558  22.104  -8.629  0.00  0.00     0.032 C 
HETATM   17  C   UNK N   1      26.545  21.341  -9.480  0.00  0.00     0.002 C 
HETATM   18  C   UNK N   1      25.533  20.640  -8.578  0.00  0.00     0.000 C 
HETATM   19  C   UNK N   1      24.828  21.651  -7.676  0.00  0.00     0.002 C 
HETATM   20  C   UNK N   1      25.845  22.463  -6.877  0.00  0.00     0.032 C 
ENDBRANCH  14  15
ENDBRANCH   5  14
BRANCH   4  21
HETATM   21  C   UNK N   1      25.889  25.936  -5.797  0.00  0.00     0.047 C 
BRANCH  21  22
HETATM   22  C   UNK N   1      26.412  27.084  -6.647  0.00  0.00     0.000 C 
HETATM   23  C   UNK N   1      26.858  28.215  -5.746  0.00  0.00     0.005 C 
ENDBRANCH  21  22
ENDBRANCH   4  21
TORSDOF 4
ENDMDL
MODEL 8
REMARK VINA RESULT:      -6.3      8.730     11.363
REMARK  4 active torsions:
REMARK  status: ('A' for Active; 'I' for Inactive)
REMARK    1  A    between atoms: C_1  and  O_12 
REMARK    2  A    between atoms: C_10  and  C_20 
REMARK    3  A    between atoms: C_11  and  O_12 
REMARK    4  A    between atoms: C_20  and  C_21 
ROOT
HETATM    1  N   UNK N   1      36.675  15.233  13.620  0.00  0.00    -0.322 N 
HETATM    2  C   UNK N   1      36.748  14.389  14.691  0.00  0.00     0.255 A 
HETATM    3  O   UNK N   1      37.396  14.740  15.663  0.00  0.00    -0.268 OA
HETATM    4  C   UNK N   1      36.091  13.126  14.663  0.00  0.00     0.044 A 
HETATM    5  C   UNK N   1      35.345  12.778  13.489  0.00  0.00     0.093 A 
HETATM    6  C   UNK N   1      35.986  14.916  12.500  0.00  0.00     0.048 A 
HETATM    7  C   UNK N   1      35.307  13.687  12.415  0.00  0.00     0.026 A 
HETATM    8  C   UNK N   1      34.608  13.372  11.238  0.00  0.00     0.040 A 
HETATM    9  C   UNK N   1      34.591  14.266  10.165  0.00  0.00     0.035 A 
HETATM   10  C   UNK N   1      35.268  15.484  10.258  0.00  0.00     0.026 A 
HETATM   11  C   UNK N   1      35.963  15.810  11.426  0.00  0.00     0.032 A 
HETATM   12 Cl   UNK N   1      33.731  13.854   8.697  0.00  0.00    -0.084 Cl
HETATM   13  H   UNK N   1      37.138  16.101  13.664  0.00  0.00     0.169 HD
ENDROOT
BRANCH   5  14
HETATM   14  O   UNK N   1      34.667  11.601  13.319  0.00  0.00    -0.344 OA
BRANCH  14  15
HETATM   15  C   UNK N   1      35.048  10.431  12.696  0.00  0.00     0.129 C 
HETATM   16  C   UNK N   1      35.432   9.345  13.704  0.00  0.00     0.032 C 
HETATM   17  C   UNK N   1      35.878   8.098  12.944  0.00  0.00     0.002 C 
HETATM   18  C   UNK N   1      34.728   7.572  12.089  0.00  0.00     0.000 C 
HETATM   19  C   UNK N   1      34.242   8.649  11.122  0.00  0.00     0.002 C 
HETATM   20  C   UNK N   1      33.863   9.921  11.877  0.00  0.00     0.032 C 
ENDBRANCH  14  15
ENDBRANCH   5  14
BRANCH   4  21
HETATM   21  C   UNK N   1      36.164  12.155  15.829  0.00  0.00     0.047 C 
BRANCH  21  22
HETATM   22  C   UNK N   1      34.988  12.073  16.791  0.00  0.00     0.000 C 
HETATM   23  C   UNK N   1      35.150  13.116  17.875  0.00  0.00     0.005 C 
ENDBRANCH  21  22
ENDBRANCH   4  21
TORSDOF 4
ENDMDL
MODEL 9
REMARK VINA RESULT:      -6.2      5.457      7.607
REMARK  4 active torsions:
REMARK  status: ('A' for Active; 'I' for Inactive)
REMARK    1  A    between atoms: C_1  and  O_12 
REMARK    2  A    between atoms: C_10  and  C_20 
REMARK    3  A    between atoms: C_11  and  O_12 
REMARK    4  A    between atoms: C_20  and  C_21 
ROOT
HETATM    1  N   UNK N   1      35.281  17.610   9.799  0.00  0.00    -0.322 N 
HETATM    2  C   UNK N   1      34.577  17.993   8.692  0.00  0.00     0.255 A 
HETATM    3  O   UNK N   1      34.730  19.127   8.271  0.00  0.00    -0.268 OA
HETATM    4  C   UNK N   1      33.679  17.087   8.058  0.00  0.00     0.044 A 
HETATM    5  C   UNK N   1      33.549  15.769   8.605  0.00  0.00     0.093 A 
HETATM    6  C   UNK N   1      35.162  16.375  10.335  0.00  0.00     0.048 A 
HETATM    7  C   UNK N   1      34.299  15.431   9.748  0.00  0.00     0.026 A 
HETATM    8  C   UNK N   1      34.179  14.158  10.329  0.00  0.00     0.040 A 
HETATM    9  C   UNK N   1      34.907  13.834  11.477  0.00  0.00     0.035 A 
HETATM   10  C   UNK N   1      35.761  14.776  12.053  0.00  0.00     0.026 A 
HETATM   11  C   UNK N   1      35.890  16.044  11.481  0.00  0.00     0.032 A 
HETATM   12 Cl   UNK N   1      34.736  12.250  12.201  0.00  0.00    -0.084 Cl
HETATM   13  H   UNK N   1      35.896  18.254  10.219  0.00  0.00     0.169 HD
ENDROOT
BRANCH   5  14
HETATM   14  O   UNK N   1      32.725  14.797   8.104  0.00  0.00    -0.344 OA
BRANCH  14  15
HETATM   15  C   UNK N   1      32.930  13.889   7.085  0.00  0.00     0.129 C 
HETATM   16  C   UNK N   1      31.943  14.091   5.933  0.00  0.00     0.032 C 
HETATM   17  C   UNK N   1      32.204  13.030   4.866  0.00  0.00     0.002 C 
HETATM   18  C   UNK N   1      33.620  13.185   4.315  0.00  0.00     0.000 C 
HETATM   19  C   UNK N   1      34.647  13.082   5.441  0.00  0.00     0.002 C 
HETATM   20  C   UNK N   1      34.344  14.096   6.542  0.00  0.00     0.032 C 
ENDBRANCH  14  15
ENDBRANCH   5  14
BRANCH   4  21
HETATM   21  C   UNK N   1      32.869  17.483   6.836  0.00  0.00     0.047 C 
BRANCH  21  22
HETATM   22  C   UNK N   1      33.533  17.441   5.468  0.00  0.00     0.000 C 
HETATM   23  C   UNK N   1      32.471  17.482   4.391  0.00  0.00     0.005 C 
ENDBRANCH  21  22
ENDBRANCH   4  21
TORSDOF 4
ENDMDL
