REMARK  4 active torsions:
REMARK  status: ('A' for Active; 'I' for Inactive)
REMARK    1  A    between atoms: C_1  and  O_12 
REMARK    2  A    between atoms: C_10  and  C_20 
REMARK    3  A    between atoms: C_11  and  O_12 
REMARK    4  A    between atoms: C_20  and  C_21 
ROOT
HETATM    1  N   UNK N   1       1.749  -3.224  -0.076  0.00  0.00    -0.322 N 
HETATM    2  C   UNK N   1       0.443  -2.826  -0.133  0.00  0.00     0.255 A 
HETATM    3  O   UNK N   1      -0.421  -3.683  -0.204  0.00  0.00    -0.268 OA
HETATM    4  C   UNK N   1       0.108  -1.442  -0.121  0.00  0.00     0.044 A 
HETATM    5  C   UNK N   1       1.175  -0.488  -0.034  0.00  0.00     0.093 A 
HETATM    6  C   UNK N   1       2.768  -2.338  -0.005  0.00  0.00     0.048 A 
HETATM    7  C   UNK N   1       2.501  -0.957   0.021  0.00  0.00     0.026 A 
HETATM    8  C   UNK N   1       3.575  -0.053   0.081  0.00  0.00     0.040 A 
HETATM    9  C   UNK N   1       4.891  -0.521   0.111  0.00  0.00     0.035 A 
HETATM   10  C   UNK N   1       5.147  -1.893   0.085  0.00  0.00     0.026 A 
HETATM   11  C   UNK N   1       4.086  -2.801   0.030  0.00  0.00     0.032 A 
HETATM   12 Cl   UNK N   1       6.221   0.616   0.168  0.00  0.00    -0.084 Cl
HETATM   13  H   UNK N   1       1.955  -4.187  -0.085  0.00  0.00     0.169 HD
ENDROOT
BRANCH   5  14
HETATM   14  O   UNK N   1       1.004   0.870  -0.015  0.00  0.00    -0.344 OA
BRANCH  14  15
HETATM   15  C   UNK N   1      -0.125   1.632  -0.233  0.00  0.00     0.129 C 
HETATM   16  C   UNK N   1      -1.042   1.658   0.992  0.00  0.00     0.032 C 
HETATM   17  C   UNK N   1      -2.284   2.484   0.664  0.00  0.00     0.002 C 
HETATM   18  C   UNK N   1      -1.881   3.920   0.338  0.00  0.00     0.000 C 
HETATM   19  C   UNK N   1      -0.891   3.948  -0.825  0.00  0.00     0.002 C 
HETATM   20  C   UNK N   1       0.318   3.065  -0.525  0.00  0.00     0.032 C 
ENDBRANCH  14  15
ENDBRANCH   5  14
BRANCH   4  21
HETATM   21  C   UNK N   1      -1.331  -0.963  -0.199  0.00  0.00     0.047 C 
BRANCH  21  22
HETATM   22  C   UNK N   1      -2.451  -1.993  -0.176  0.00  0.00     0.000 C 
HETATM   23  C   UNK N   1      -3.787  -1.283  -0.146  0.00  0.00     0.005 C 
ENDBRANCH  21  22
ENDBRANCH   4  21
TORSDOF 4
