REMARK  4 active torsions:
REMARK  status: ('A' for Active; 'I' for Inactive)
REMARK    1  A    between atoms: C_1  and  S_12 
REMARK    2  A    between atoms: C_10  and  C_20 
REMARK    3  A    between atoms: C_11  and  S_12 
REMARK    4  A    between atoms: C_20  and  C_21 
ROOT
HETATM    1  N   UNK N   1       1.688  -3.218   0.545  0.00  0.00    -0.322 N 
HETATM    2  C   UNK N   1       0.416  -2.856   0.205  0.00  0.00     0.253 A 
HETATM    3  O   UNK N   1      -0.487  -3.668   0.330  0.00  0.00    -0.268 OA
HETATM    4  C   UNK N   1       0.151  -1.566  -0.298  0.00  0.00     0.028 A 
HETATM    5  C   UNK N   1       1.220  -0.649  -0.452  0.00  0.00     0.025 A 
HETATM    6  C   UNK N   1       2.732  -2.363   0.412  0.00  0.00     0.046 A 
HETATM    7  C   UNK N   1       2.523  -1.057  -0.090  0.00  0.00     0.010 A 
HETATM    8  C   UNK N   1       3.627  -0.200  -0.234  0.00  0.00     0.039 A 
HETATM    9  C   UNK N   1       4.910  -0.635   0.116  0.00  0.00     0.035 A 
HETATM   10  C   UNK N   1       5.104  -1.928   0.608  0.00  0.00     0.026 A 
HETATM   11  C   UNK N   1       4.017  -2.790   0.755  0.00  0.00     0.032 A 
HETATM   12 Cl   UNK N   1       6.280   0.440  -0.060  0.00  0.00    -0.084 Cl
HETATM   13  H   UNK N   1       1.852  -4.123   0.896  0.00  0.00     0.169 HD
ENDROOT
BRANCH   5  14
HETATM   14  S   UNK N   1       0.968   0.994  -1.201  0.00  0.00    -0.123 SA
BRANCH  14  15
HETATM   15  C   UNK N   1      -0.234   1.714  -0.034  0.00  0.00     0.052 C 
HETATM   16  C   UNK N   1      -1.572   1.849  -0.763  0.00  0.00     0.015 C 
HETATM   17  C   UNK N   1      -2.606   2.542   0.116  0.00  0.00     0.001 C 
HETATM   18  C   UNK N   1      -2.108   3.933   0.483  0.00  0.00     0.000 C 
HETATM   19  C   UNK N   1      -0.788   3.824   1.241  0.00  0.00     0.001 C 
HETATM   20  C   UNK N   1       0.261   3.098   0.395  0.00  0.00     0.015 C 
ENDBRANCH  14  15
ENDBRANCH   5  14
BRANCH   4  21
HETATM   21  C   UNK N   1      -1.251  -1.197  -0.683  0.00  0.00     0.045 C 
BRANCH  21  22
HETATM   22  C   UNK N   1      -2.153  -1.196   0.543  0.00  0.00     0.000 C 
HETATM   23  C   UNK N   1      -3.585  -0.939   0.128  0.00  0.00     0.005 C 
ENDBRANCH  21  22
ENDBRANCH   4  21
TORSDOF 4
