MODEL 1
REMARK VINA RESULT:      -6.4      0.000      0.000
REMARK  4 active torsions:
REMARK  status: ('A' for Active; 'I' for Inactive)
REMARK    1  A    between atoms: C_1  and  S_12 
REMARK    2  A    between atoms: C_10  and  C_20 
REMARK    3  A    between atoms: C_11  and  S_12 
REMARK    4  A    between atoms: C_20  and  C_21 
ROOT
HETATM    1  N   UNK N   1      28.606  23.634  -2.547  0.00  0.00    -0.322 N 
HETATM    2  C   UNK N   1      29.906  23.219  -2.531  0.00  0.00     0.253 A 
HETATM    3  O   UNK N   1      30.473  23.080  -1.459  0.00  0.00    -0.268 OA
HETATM    4  C   UNK N   1      30.591  22.970  -3.738  0.00  0.00     0.028 A 
HETATM    5  C   UNK N   1      29.917  23.158  -4.970  0.00  0.00     0.025 A 
HETATM    6  C   UNK N   1      27.932  23.821  -3.709  0.00  0.00     0.046 A 
HETATM    7  C   UNK N   1      28.571  23.588  -4.949  0.00  0.00     0.010 A 
HETATM    8  C   UNK N   1      27.853  23.808  -6.136  0.00  0.00     0.039 A 
HETATM    9  C   UNK N   1      26.526  24.250  -6.088  0.00  0.00     0.035 A 
HETATM   10  C   UNK N   1      25.906  24.480  -4.857  0.00  0.00     0.026 A 
HETATM   11  C   UNK N   1      26.608  24.266  -3.671  0.00  0.00     0.032 A 
HETATM   12 Cl   UNK N   1      25.635  24.517  -7.571  0.00  0.00    -0.084 Cl
HETATM   13  H   UNK N   1      28.144  23.801  -1.694  0.00  0.00     0.169 HD
ENDROOT
BRANCH   5  14
HETATM   14  S   UNK N   1      30.774  22.964  -6.567  0.00  0.00    -0.123 SA
BRANCH  14  15
HETATM   15  C   UNK N   1      30.667  21.157  -6.787  0.00  0.00     0.052 C 
HETATM   16  C   UNK N   1      31.754  20.740  -7.779  0.00  0.00     0.015 C 
HETATM   17  C   UNK N   1      31.662  19.253  -8.098  0.00  0.00     0.001 C 
HETATM   18  C   UNK N   1      30.302  18.948  -8.709  0.00  0.00     0.000 C 
HETATM   19  C   UNK N   1      29.199  19.326  -7.724  0.00  0.00     0.001 C 
HETATM   20  C   UNK N   1      29.288  20.809  -7.357  0.00  0.00     0.015 C 
ENDBRANCH  14  15
ENDBRANCH   5  14
BRANCH   4  21
HETATM   21  C   UNK N   1      32.026  22.534  -3.696  0.00  0.00     0.045 C 
BRANCH  21  22
HETATM   22  C   UNK N   1      32.115  21.020  -3.558  0.00  0.00     0.000 C 
HETATM   23  C   UNK N   1      33.562  20.583  -3.608  0.00  0.00     0.005 C 
ENDBRANCH  21  22
ENDBRANCH   4  21
TORSDOF 4
ENDMDL
MODEL 2
REMARK VINA RESULT:      -6.3      3.631      5.896
REMARK  4 active torsions:
REMARK  status: ('A' for Active; 'I' for Inactive)
REMARK    1  A    between atoms: C_1  and  S_12 
REMARK    2  A    between atoms: C_10  and  C_20 
REMARK    3  A    between atoms: C_11  and  S_12 
REMARK    4  A    between atoms: C_20  and  C_21 
ROOT
HETATM    1  N   UNK N   1      26.621  26.654  -7.736  0.00  0.00    -0.322 N 
HETATM    2  C   UNK N   1      27.001  27.318  -6.605  0.00  0.00     0.253 A 
HETATM    3  O   UNK N   1      27.350  28.485  -6.689  0.00  0.00    -0.268 OA
HETATM    4  C   UNK N   1      27.005  26.660  -5.358  0.00  0.00     0.028 A 
HETATM    5  C   UNK N   1      26.614  25.299  -5.291  0.00  0.00     0.025 A 
HETATM    6  C   UNK N   1      26.239  25.353  -7.705  0.00  0.00     0.046 A 
HETATM    7  C   UNK N   1      26.226  24.644  -6.481  0.00  0.00     0.010 A 
HETATM    8  C   UNK N   1      25.844  23.292  -6.483  0.00  0.00     0.039 A 
HETATM    9  C   UNK N   1      25.481  22.662  -7.679  0.00  0.00     0.035 A 
HETATM   10  C   UNK N   1      25.500  23.372  -8.882  0.00  0.00     0.026 A 
HETATM   11  C   UNK N   1      25.879  24.715  -8.894  0.00  0.00     0.032 A 
HETATM   12 Cl   UNK N   1      25.000  20.979  -7.673  0.00  0.00    -0.084 Cl
HETATM   13  H   UNK N   1      26.623  27.132  -8.597  0.00  0.00     0.169 HD
ENDROOT
BRANCH   5  14
HETATM   14  S   UNK N   1      26.703  24.356  -3.734  0.00  0.00    -0.123 SA
BRANCH  14  15
HETATM   15  C   UNK N   1      28.503  24.093  -3.603  0.00  0.00     0.052 C 
HETATM   16  C   UNK N   1      28.954  23.315  -4.840  0.00  0.00     0.015 C 
HETATM   17  C   UNK N   1      30.434  22.963  -4.755  0.00  0.00     0.001 C 
HETATM   18  C   UNK N   1      30.681  22.105  -3.522  0.00  0.00     0.000 C 
HETATM   19  C   UNK N   1      30.269  22.873  -2.269  0.00  0.00     0.001 C 
HETATM   20  C   UNK N   1      28.793  23.272  -2.343  0.00  0.00     0.015 C 
ENDBRANCH  14  15
ENDBRANCH   5  14
BRANCH   4  21
HETATM   21  C   UNK N   1      27.444  27.403  -4.132  0.00  0.00     0.045 C 
BRANCH  21  22
HETATM   22  C   UNK N   1      26.251  28.065  -3.458  0.00  0.00     0.000 C 
HETATM   23  C   UNK N   1      26.387  29.570  -3.532  0.00  0.00     0.005 C 
ENDBRANCH  21  22
ENDBRANCH   4  21
TORSDOF 4
ENDMDL
MODEL 3
REMARK VINA RESULT:      -6.3     15.330     17.030
REMARK  4 active torsions:
REMARK  status: ('A' for Active; 'I' for Inactive)
REMARK    1  A    between atoms: C_1  and  S_12 
REMARK    2  A    between atoms: C_10  and  C_20 
REMARK    3  A    between atoms: C_11  and  S_12 
REMARK    4  A    between atoms: C_20  and  C_21 
ROOT
HETATM    1  N   UNK N   1      21.879  18.001   5.887  0.00  0.00    -0.322 N 
HETATM    2  C   UNK N   1      21.108  17.899   7.010  0.00  0.00     0.253 A 
HETATM    3  O   UNK N   1      20.735  18.918   7.570  0.00  0.00    -0.268 OA
HETATM    4  C   UNK N   1      20.759  16.634   7.524  0.00  0.00     0.028 A 
HETATM    5  C   UNK N   1      21.221  15.467   6.866  0.00  0.00     0.025 A 
HETATM    6  C   UNK N   1      22.334  16.904   5.233  0.00  0.00     0.046 A 
HETATM    7  C   UNK N   1      22.016  15.610   5.707  0.00  0.00     0.010 A 
HETATM    8  C   UNK N   1      22.518  14.492   5.019  0.00  0.00     0.039 A 
HETATM    9  C   UNK N   1      23.318  14.662   3.883  0.00  0.00     0.035 A 
HETATM   10  C   UNK N   1      23.627  15.946   3.426  0.00  0.00     0.026 A 
HETATM   11  C   UNK N   1      23.136  17.064   4.101  0.00  0.00     0.032 A 
HETATM   12 Cl   UNK N   1      23.934  13.266   3.027  0.00  0.00    -0.084 Cl
HETATM   13  H   UNK N   1      22.110  18.894   5.543  0.00  0.00     0.169 HD
ENDROOT
BRANCH   5  14
HETATM   14  S   UNK N   1      20.904  13.802   7.538  0.00  0.00    -0.123 SA
BRANCH  14  15
HETATM   15  C   UNK N   1      22.118  13.753   8.898  0.00  0.00     0.052 C 
HETATM   16  C   UNK N   1      23.451  13.278   8.319  0.00  0.00     0.015 C 
HETATM   17  C   UNK N   1      24.495  13.109   9.416  0.00  0.00     0.001 C 
HETATM   18  C   UNK N   1      24.007  12.079  10.425  0.00  0.00     0.000 C 
HETATM   19  C   UNK N   1      22.692  12.546  11.042  0.00  0.00     0.001 C 
HETATM   20  C   UNK N   1      21.633  12.759   9.958  0.00  0.00     0.015 C 
ENDBRANCH  14  15
ENDBRANCH   5  14
BRANCH   4  21
HETATM   21  C   UNK N   1      19.928  16.546   8.769  0.00  0.00     0.045 C 
BRANCH  21  22
HETATM   22  C   UNK N   1      18.452  16.697   8.431  0.00  0.00     0.000 C 
HETATM   23  C   UNK N   1      17.747  17.457   9.533  0.00  0.00     0.005 C 
ENDBRANCH  21  22
ENDBRANCH   4  21
TORSDOF 4
ENDMDL
MODEL 4
REMARK VINA RESULT:      -6.2     20.228     22.659
REMARK  4 active torsions:
REMARK  status: ('A' for Active; 'I' for Inactive)
REMARK    1  A    between atoms: C_1  and  S_12 
REMARK    2  A    between atoms: C_10  and  C_20 
REMARK    3  A    between atoms: C_11  and  S_12 
REMARK    4  A    between atoms: C_20  and  C_21 
ROOT
HETATM    1  N   UNK N   1      36.841  14.910  13.674  0.00  0.00    -0.322 N 
HETATM    2  C   UNK N   1      36.757  14.336  14.910  0.00  0.00     0.253 A 
HETATM    3  O   UNK N   1      37.429  14.789  15.823  0.00  0.00    -0.268 OA
HETATM    4  C   UNK N   1      35.916  13.226  15.126  0.00  0.00     0.028 A 
HETATM    5  C   UNK N   1      35.161  12.707  14.045  0.00  0.00     0.025 A 
HETATM    6  C   UNK N   1      36.130  14.439  12.619  0.00  0.00     0.046 A 
HETATM    7  C   UNK N   1      35.272  13.326  12.780  0.00  0.00     0.010 A 
HETATM    8  C   UNK N   1      34.562  12.849  11.665  0.00  0.00     0.039 A 
HETATM    9  C   UNK N   1      34.703  13.470  10.419  0.00  0.00     0.035 A 
HETATM   10  C   UNK N   1      35.555  14.567  10.272  0.00  0.00     0.026 A 
HETATM   11  C   UNK N   1      36.267  15.050  11.371  0.00  0.00     0.032 A 
HETATM   12 Cl   UNK N   1      33.811  12.875   9.035  0.00  0.00    -0.084 Cl
HETATM   13  H   UNK N   1      37.433  15.686  13.544  0.00  0.00     0.169 HD
ENDROOT
BRANCH   5  14
HETATM   14  S   UNK N   1      34.141  11.207  14.225  0.00  0.00    -0.123 SA
BRANCH  14  15
HETATM   15  C   UNK N   1      35.388   9.914  13.909  0.00  0.00     0.052 C 
HETATM   16  C   UNK N   1      34.896   9.066  12.734  0.00  0.00     0.015 C 
HETATM   17  C   UNK N   1      35.836   7.895  12.474  0.00  0.00     0.001 C 
HETATM   18  C   UNK N   1      35.906   7.016  13.715  0.00  0.00     0.000 C 
HETATM   19  C   UNK N   1      36.425   7.832  14.895  0.00  0.00     0.001 C 
HETATM   20  C   UNK N   1      35.519   9.037  15.157  0.00  0.00     0.015 C 
ENDBRANCH  14  15
ENDBRANCH   5  14
BRANCH   4  21
HETATM   21  C   UNK N   1      35.854  12.599  16.487  0.00  0.00     0.045 C 
BRANCH  21  22
HETATM   22  C   UNK N   1      34.848  13.334  17.362  0.00  0.00     0.000 C 
HETATM   23  C   UNK N   1      35.192  13.134  18.822  0.00  0.00     0.005 C 
ENDBRANCH  21  22
ENDBRANCH   4  21
TORSDOF 4
ENDMDL
MODEL 5
REMARK VINA RESULT:      -6.1      2.502      4.962
REMARK  4 active torsions:
REMARK  status: ('A' for Active; 'I' for Inactive)
REMARK    1  A    between atoms: C_1  and  S_12 
REMARK    2  A    between atoms: C_10  and  C_20 
REMARK    3  A    between atoms: C_11  and  S_12 
REMARK    4  A    between atoms: C_20  and  C_21 
ROOT
HETATM    1  N   UNK N   1      31.608  21.690  -2.846  0.00  0.00    -0.322 N 
HETATM    2  C   UNK N   1      30.738  22.724  -2.651  0.00  0.00     0.253 A 
HETATM    3  O   UNK N   1      30.488  23.085  -1.512  0.00  0.00    -0.268 OA
HETATM    4  C   UNK N   1      30.124  23.357  -3.751  0.00  0.00     0.028 A 
HETATM    5  C   UNK N   1      30.416  22.906  -5.062  0.00  0.00     0.025 A 
HETATM    6  C   UNK N   1      31.910  21.237  -4.087  0.00  0.00     0.046 A 
HETATM    7  C   UNK N   1      31.321  21.835  -5.226  0.00  0.00     0.010 A 
HETATM    8  C   UNK N   1      31.639  21.331  -6.499  0.00  0.00     0.039 A 
HETATM    9  C   UNK N   1      32.526  20.257  -6.633  0.00  0.00     0.035 A 
HETATM   10  C   UNK N   1      33.099  19.674  -5.500  0.00  0.00     0.026 A 
HETATM   11  C   UNK N   1      32.792  20.163  -4.230  0.00  0.00     0.032 A 
HETATM   12 Cl   UNK N   1      32.923  19.639  -8.221  0.00  0.00    -0.084 Cl
HETATM   13  H   UNK N   1      32.028  21.262  -2.064  0.00  0.00     0.169 HD
ENDROOT
BRANCH   5  14
HETATM   14  S   UNK N   1      29.573  23.603  -6.521  0.00  0.00    -0.123 SA
BRANCH  14  15
HETATM   15  C   UNK N   1      28.159  22.461  -6.669  0.00  0.00     0.052 C 
HETATM   16  C   UNK N   1      28.320  21.684  -7.976  0.00  0.00     0.015 C 
HETATM   17  C   UNK N   1      27.119  20.779  -8.225  0.00  0.00     0.001 C 
HETATM   18  C   UNK N   1      25.857  21.626  -8.313  0.00  0.00     0.000 C 
HETATM   19  C   UNK N   1      25.656  22.388  -7.006  0.00  0.00     0.001 C 
HETATM   20  C   UNK N   1      26.865  23.279  -6.711  0.00  0.00     0.015 C 
ENDBRANCH  14  15
ENDBRANCH   5  14
BRANCH   4  21
HETATM   21  C   UNK N   1      29.157  24.479  -3.512  0.00  0.00     0.045 C 
BRANCH  21  22
HETATM   22  C   UNK N   1      27.774  23.926  -3.199  0.00  0.00     0.000 C 
HETATM   23  C   UNK N   1      26.719  24.955  -3.538  0.00  0.00     0.005 C 
ENDBRANCH  21  22
ENDBRANCH   4  21
TORSDOF 4
ENDMDL
MODEL 6
REMARK VINA RESULT:      -6.0     11.195     12.937
REMARK  4 active torsions:
REMARK  status: ('A' for Active; 'I' for Inactive)
REMARK    1  A    between atoms: C_1  and  S_12 
REMARK    2  A    between atoms: C_10  and  C_20 
REMARK    3  A    between atoms: C_11  and  S_12 
REMARK    4  A    between atoms: C_20  and  C_21 
ROOT
HETATM    1  N   UNK N   1      27.503  19.729   7.579  0.00  0.00    -0.322 N 
HETATM    2  C   UNK N   1      27.086  19.957   6.299  0.00  0.00     0.253 A 
HETATM    3  O   UNK N   1      26.203  20.776   6.098  0.00  0.00    -0.268 OA
HETATM    4  C   UNK N   1      27.656  19.246   5.224  0.00  0.00     0.028 A 
HETATM    5  C   UNK N   1      28.665  18.286   5.486  0.00  0.00     0.025 A 
HETATM    6  C   UNK N   1      28.468  18.819   7.862  0.00  0.00     0.046 A 
HETATM    7  C   UNK N   1      29.073  18.076   6.822  0.00  0.00     0.010 A 
HETATM    8  C   UNK N   1      30.057  17.127   7.148  0.00  0.00     0.039 A 
HETATM    9  C   UNK N   1      30.430  16.926   8.482  0.00  0.00     0.035 A 
HETATM   10  C   UNK N   1      29.823  17.665   9.501  0.00  0.00     0.026 A 
HETATM   11  C   UNK N   1      28.844  18.609   9.191  0.00  0.00     0.032 A 
HETATM   12 Cl   UNK N   1      31.661  15.748   8.881  0.00  0.00    -0.084 Cl
HETATM   13  H   UNK N   1      27.093  20.237   8.315  0.00  0.00     0.169 HD
ENDROOT
BRANCH   5  14
HETATM   14  S   UNK N   1      29.366  17.251   4.159  0.00  0.00    -0.123 SA
BRANCH  14  15
HETATM   15  C   UNK N   1      28.156  15.887   4.123  0.00  0.00     0.052 C 
HETATM   16  C   UNK N   1      28.865  14.619   4.602  0.00  0.00     0.015 C 
HETATM   17  C   UNK N   1      27.945  13.408   4.502  0.00  0.00     0.001 C 
HETATM   18  C   UNK N   1      27.523  13.212   3.053  0.00  0.00     0.000 C 
HETATM   19  C   UNK N   1      26.784  14.452   2.560  0.00  0.00     0.001 C 
HETATM   20  C   UNK N   1      27.672  15.693   2.683  0.00  0.00     0.015 C 
ENDBRANCH  14  15
ENDBRANCH   5  14
BRANCH   4  21
HETATM   21  C   UNK N   1      27.169  19.499   3.828  0.00  0.00     0.045 C 
BRANCH  21  22
HETATM   22  C   UNK N   1      25.816  18.836   3.612  0.00  0.00     0.000 C 
HETATM   23  C   UNK N   1      24.835  19.839   3.046  0.00  0.00     0.005 C 
ENDBRANCH  21  22
ENDBRANCH   4  21
TORSDOF 4
ENDMDL
MODEL 7
REMARK VINA RESULT:      -5.9     13.975     16.443
REMARK  4 active torsions:
REMARK  status: ('A' for Active; 'I' for Inactive)
REMARK    1  A    between atoms: C_1  and  S_12 
REMARK    2  A    between atoms: C_10  and  C_20 
REMARK    3  A    between atoms: C_11  and  S_12 
REMARK    4  A    between atoms: C_20  and  C_21 
ROOT
HETATM    1  N   UNK N   1      35.272  17.631   9.796  0.00  0.00    -0.322 N 
HETATM    2  C   UNK N   1      34.553  17.999   8.695  0.00  0.00     0.253 A 
HETATM    3  O   UNK N   1      34.670  19.133   8.259  0.00  0.00    -0.268 OA
HETATM    4  C   UNK N   1      33.674  17.085   8.078  0.00  0.00     0.028 A 
HETATM    5  C   UNK N   1      33.541  15.781   8.616  0.00  0.00     0.025 A 
HETATM    6  C   UNK N   1      35.169  16.390  10.333  0.00  0.00     0.046 A 
HETATM    7  C   UNK N   1      34.300  15.435   9.755  0.00  0.00     0.010 A 
HETATM    8  C   UNK N   1      34.201  14.163  10.345  0.00  0.00     0.039 A 
HETATM    9  C   UNK N   1      34.952  13.851  11.484  0.00  0.00     0.035 A 
HETATM   10  C   UNK N   1      35.804  14.805  12.046  0.00  0.00     0.026 A 
HETATM   11  C   UNK N   1      35.911  16.071  11.472  0.00  0.00     0.032 A 
HETATM   12 Cl   UNK N   1      34.828  12.263  12.209  0.00  0.00    -0.084 Cl
HETATM   13  H   UNK N   1      35.881  18.283  10.211  0.00  0.00     0.169 HD
ENDROOT
BRANCH   5  14
HETATM   14  S   UNK N   1      32.341  14.587   7.938  0.00  0.00    -0.123 SA
BRANCH  14  15
HETATM   15  C   UNK N   1      33.386  13.713   6.726  0.00  0.00     0.052 C 
HETATM   16  C   UNK N   1      34.782  14.336   6.775  0.00  0.00     0.015 C 
HETATM   17  C   UNK N   1      35.690  13.727   5.713  0.00  0.00     0.001 C 
HETATM   18  C   UNK N   1      35.093  13.975   4.334  0.00  0.00     0.000 C 
HETATM   19  C   UNK N   1      33.711  13.334   4.249  0.00  0.00     0.001 C 
HETATM   20  C   UNK N   1      32.786  13.901   5.329  0.00  0.00     0.015 C 
ENDBRANCH  14  15
ENDBRANCH   5  14
BRANCH   4  21
HETATM   21  C   UNK N   1      32.880  17.517   6.881  0.00  0.00     0.045 C 
BRANCH  21  22
HETATM   22  C   UNK N   1      33.722  17.404   5.619  0.00  0.00     0.000 C 
HETATM   23  C   UNK N   1      32.836  17.512   4.398  0.00  0.00     0.005 C 
ENDBRANCH  21  22
ENDBRANCH   4  21
TORSDOF 4
ENDMDL
MODEL 8
REMARK VINA RESULT:      -5.9      3.637      6.756
REMARK  4 active torsions:
REMARK  status: ('A' for Active; 'I' for Inactive)
REMARK    1  A    between atoms: C_1  and  S_12 
REMARK    2  A    between atoms: C_10  and  C_20 
REMARK    3  A    between atoms: C_11  and  S_12 
REMARK    4  A    between atoms: C_20  and  C_21 
ROOT
HETATM    1  N   UNK N   1      27.016  22.460  -7.759  0.00  0.00    -0.322 N 
HETATM    2  C   UNK N   1      26.144  23.374  -7.241  0.00  0.00     0.253 A 
HETATM    3  O   UNK N   1      25.143  23.667  -7.876  0.00  0.00    -0.268 OA
HETATM    4  C   UNK N   1      26.403  23.982  -5.996  0.00  0.00     0.028 A 
HETATM    5  C   UNK N   1      27.581  23.639  -5.289  0.00  0.00     0.025 A 
HETATM    6  C   UNK N   1      28.151  22.108  -7.106  0.00  0.00     0.046 A 
HETATM    7  C   UNK N   1      28.461  22.689  -5.854  0.00  0.00     0.010 A 
HETATM    8  C   UNK N   1      29.653  22.319  -5.210  0.00  0.00     0.039 A 
HETATM    9  C   UNK N   1      30.516  21.388  -5.800  0.00  0.00     0.035 A 
HETATM   10  C   UNK N   1      30.200  20.823  -7.038  0.00  0.00     0.026 A 
HETATM   11  C   UNK N   1      29.020  21.183  -7.689  0.00  0.00     0.032 A 
HETATM   12 Cl   UNK N   1      31.997  20.926  -4.989  0.00  0.00    -0.084 Cl
HETATM   13  H   UNK N   1      26.816  22.045  -8.629  0.00  0.00     0.169 HD
ENDROOT
BRANCH   5  14
HETATM   14  S   UNK N   1      28.035  24.468  -3.730  0.00  0.00    -0.123 SA
BRANCH  14  15
HETATM   15  C   UNK N   1      29.185  25.741  -4.349  0.00  0.00     0.052 C 
HETATM   16  C   UNK N   1      30.518  25.561  -3.622  0.00  0.00     0.015 C 
HETATM   17  C   UNK N   1      31.504  26.657  -4.010  0.00  0.00     0.001 C 
HETATM   18  C   UNK N   1      30.925  28.014  -3.638  0.00  0.00     0.000 C 
HETATM   19  C   UNK N   1      29.608  28.232  -4.377  0.00  0.00     0.001 C 
HETATM   20  C   UNK N   1      28.608  27.124  -4.035  0.00  0.00     0.015 C 
ENDBRANCH  14  15
ENDBRANCH   5  14
BRANCH   4  21
HETATM   21  C   UNK N   1      25.440  24.998  -5.456  0.00  0.00     0.045 C 
BRANCH  21  22
HETATM   22  C   UNK N   1      25.659  26.345  -6.130  0.00  0.00     0.000 C 
HETATM   23  C   UNK N   1      25.039  27.444  -5.296  0.00  0.00     0.005 C 
ENDBRANCH  21  22
ENDBRANCH   4  21
TORSDOF 4
ENDMDL
MODEL 9
REMARK VINA RESULT:      -5.8      2.625      4.976
REMARK  4 active torsions:
REMARK  status: ('A' for Active; 'I' for Inactive)
REMARK    1  A    between atoms: C_1  and  S_12 
REMARK    2  A    between atoms: C_10  and  C_20 
REMARK    3  A    between atoms: C_11  and  S_12 
REMARK    4  A    between atoms: C_20  and  C_21 
ROOT
HETATM    1  N   UNK N   1      29.425  22.863  -2.247  0.00  0.00    -0.322 N 
HETATM    2  C   UNK N   1      28.241  23.517  -2.435  0.00  0.00     0.253 A 
HETATM    3  O   UNK N   1      27.519  23.729  -1.473  0.00  0.00    -0.268 OA
HETATM    4  C   UNK N   1      27.849  23.929  -3.725  0.00  0.00     0.028 A 
HETATM    5  C   UNK N   1      28.696  23.653  -4.827  0.00  0.00     0.025 A 
HETATM    6  C   UNK N   1      30.258  22.587  -3.280  0.00  0.00     0.046 A 
HETATM    7  C   UNK N   1      29.914  22.976  -4.596  0.00  0.00     0.010 A 
HETATM    8  C   UNK N   1      30.789  22.659  -5.648  0.00  0.00     0.039 A 
HETATM    9  C   UNK N   1      31.981  21.972  -5.394  0.00  0.00     0.035 A 
HETATM   10  C   UNK N   1      32.308  21.591  -4.091  0.00  0.00     0.026 A 
HETATM   11  C   UNK N   1      31.448  21.898  -3.036  0.00  0.00     0.032 A 
HETATM   12 Cl   UNK N   1      33.069  21.586  -6.710  0.00  0.00    -0.084 Cl
HETATM   13  H   UNK N   1      29.681  22.585  -1.337  0.00  0.00     0.169 HD
ENDROOT
BRANCH   5  14
HETATM   14  S   UNK N   1      28.201  24.056  -6.535  0.00  0.00    -0.123 SA
BRANCH  14  15
HETATM   15  C   UNK N   1      27.336  22.521  -7.004  0.00  0.00     0.052 C 
HETATM   16  C   UNK N   1      27.756  22.164  -8.431  0.00  0.00     0.015 C 
HETATM   17  C   UNK N   1      26.993  20.946  -8.937  0.00  0.00     0.001 C 
HETATM   18  C   UNK N   1      25.500  21.243  -8.928  0.00  0.00     0.000 C 
HETATM   19  C   UNK N   1      25.049  21.571  -7.507  0.00  0.00     0.001 C 
HETATM   20  C   UNK N   1      25.826  22.771  -6.959  0.00  0.00     0.015 C 
ENDBRANCH  14  15
ENDBRANCH   5  14
BRANCH   4  21
HETATM   21  C   UNK N   1      26.535  24.628  -3.910  0.00  0.00     0.045 C 
BRANCH  21  22
HETATM   22  C   UNK N   1      26.714  26.134  -3.775  0.00  0.00     0.000 C 
HETATM   23  C   UNK N   1      25.792  26.850  -4.738  0.00  0.00     0.005 C 
ENDBRANCH  21  22
ENDBRANCH   4  21
TORSDOF 4
ENDMDL
