MODEL 1
REMARK VINA RESULT:      -7.8      0.000      0.000
REMARK  7 active torsions:
REMARK  status: ('A' for Active; 'I' for Inactive)
REMARK    1  A    between atoms: O_1  and  C_2 
REMARK    2  A    between atoms: C_2  and  C_4 
REMARK    3  A    between atoms: C_4  and  O_6 
REMARK    4  A    between atoms: O_6  and  C_7 
REMARK    5  A    between atoms: C_12  and  O_13 
REMARK    6  A    between atoms: O_13  and  C_14 
REMARK    7  A    between atoms: C_18  and  C_19 
ROOT
HETATM    1  C   UNK N   1      23.397  19.794   3.295  0.00  0.00     0.070 A 
HETATM    2  C   UNK N   1      23.845  18.622   3.925  0.00  0.00     0.039 A 
HETATM    3  C   UNK N   1      25.221  18.402   4.103  0.00  0.00     0.040 A 
HETATM    4  C   UNK N   1      24.323  20.676   2.737  0.00  0.00     0.039 A 
HETATM    5  C   UNK N   1      25.675  20.463   2.908  0.00  0.00     0.040 A 
HETATM    6  C   UNK N   1      26.137  19.363   3.648  0.00  0.00     0.078 A 
ENDROOT
BRANCH   6   7
HETATM    7  O   UNK N   1      27.433  19.323   4.037  0.00  0.00    -0.292 OA
BRANCH   7   8
HETATM    8  C   UNK N   1      27.738  18.916   5.309  0.00  0.00     0.170 A 
HETATM    9  N   UNK N   1      28.257  17.680   5.508  0.00  0.00    -0.344 N 
HETATM   10  C   UNK N   1      28.687  17.277   6.743  0.00  0.00     0.106 A 
ATOM     11  HN  UNK N   1      28.330  17.036   4.720  1.00  0.00     0.167 HD
HETATM   12  C   UNK N   1      28.595  18.145   7.840  0.00  0.00     0.065 A 
HETATM   13  C   UNK N   1      28.017  19.394   7.668  0.00  0.00     0.045 A 
HETATM   14  C   UNK N   1      27.572  19.797   6.416  0.00  0.00     0.086 A 
HETATM   15 Cl   UNK N   1      26.835  21.392   6.297  0.00  0.00    -0.080 Cl
BRANCH  12  16
HETATM   16  C   UNK N   1      29.135  17.775   9.189  0.00  0.00     0.418 C 
HETATM   17  F   UNK N   1      29.548  18.915   9.855  0.00  0.00    -0.166 F 
HETATM   18  F   UNK N   1      30.223  16.933   9.023  0.00  0.00    -0.166 F 
HETATM   19  F   UNK N   1      28.182  17.124   9.950  0.00  0.00    -0.166 F 
ENDBRANCH  12  16
ENDBRANCH   7   8
ENDBRANCH   6   7
BRANCH   1  20
HETATM   20  O   UNK N   1      22.085  20.125   3.319  0.00  0.00    -0.336 OA
BRANCH  20  21
HETATM   21  C   UNK N   1      21.180  19.537   2.434  0.00  0.00     0.222 C 
HETATM   22  C   UNK N   1      19.831  19.236   3.086  0.00  0.00     0.051 C 
BRANCH  21  23
HETATM   23  C   UNK N   1      20.925  20.412   1.247  0.00  0.00     0.170 C 
HETATM   24  O   UNK N   1      20.934  21.627   1.355  0.00  0.00    -0.648 OA
BRANCH  23  25
HETATM   25  O   UNK N   1      20.674  19.851   0.047  0.00  0.00    -0.774 OA
HETATM   26  H   UNK N   1      20.036  20.179  -0.554  0.00  0.00     0.167 HD
ENDBRANCH  23  25
ENDBRANCH  21  23
ENDBRANCH  20  21
ENDBRANCH   1  20
TORSDOF 7
ENDMDL
MODEL 2
REMARK VINA RESULT:      -6.9      5.739      6.762
REMARK  7 active torsions:
REMARK  status: ('A' for Active; 'I' for Inactive)
REMARK    1  A    between atoms: O_1  and  C_2 
REMARK    2  A    between atoms: C_2  and  C_4 
REMARK    3  A    between atoms: C_4  and  O_6 
REMARK    4  A    between atoms: O_6  and  C_7 
REMARK    5  A    between atoms: C_12  and  O_13 
REMARK    6  A    between atoms: O_13  and  C_14 
REMARK    7  A    between atoms: C_18  and  C_19 
ROOT
HETATM    1  C   UNK N   1      21.361  17.717   3.904  0.00  0.00     0.070 A 
HETATM    2  C   UNK N   1      21.178  16.418   3.402  0.00  0.00     0.039 A 
HETATM    3  C   UNK N   1      20.757  15.388   4.260  0.00  0.00     0.040 A 
HETATM    4  C   UNK N   1      21.246  17.952   5.274  0.00  0.00     0.039 A 
HETATM    5  C   UNK N   1      20.834  16.943   6.119  0.00  0.00     0.040 A 
HETATM    6  C   UNK N   1      20.521  15.671   5.613  0.00  0.00     0.078 A 
ENDROOT
BRANCH   6   7
HETATM    7  O   UNK N   1      19.863  14.789   6.401  0.00  0.00    -0.292 OA
BRANCH   7   8
HETATM    8  C   UNK N   1      20.557  14.101   7.362  0.00  0.00     0.170 A 
HETATM    9  N   UNK N   1      21.375  13.085   6.996  0.00  0.00    -0.344 N 
HETATM   10  C   UNK N   1      22.177  12.451   7.905  0.00  0.00     0.106 A 
ATOM     11  HN  UNK N   1      21.395  12.786   6.021  1.00  0.00     0.167 HD
HETATM   12  C   UNK N   1      22.165  12.845   9.251  0.00  0.00     0.065 A 
HETATM   13  C   UNK N   1      21.294  13.846   9.655  0.00  0.00     0.045 A 
HETATM   14  C   UNK N   1      20.475  14.481   8.732  0.00  0.00     0.086 A 
HETATM   15 Cl   UNK N   1      19.390  15.728   9.340  0.00  0.00    -0.080 Cl
BRANCH  12  16
HETATM   16  C   UNK N   1      23.091  12.236  10.261  0.00  0.00     0.418 C 
HETATM   17  F   UNK N   1      22.909  10.866  10.293  0.00  0.00    -0.166 F 
HETATM   18  F   UNK N   1      22.800  12.758  11.511  0.00  0.00    -0.166 F 
HETATM   19  F   UNK N   1      24.412  12.511   9.961  0.00  0.00    -0.166 F 
ENDBRANCH  12  16
ENDBRANCH   7   8
ENDBRANCH   6   7
BRANCH   1  20
HETATM   20  O   UNK N   1      21.544  18.757   3.057  0.00  0.00    -0.336 OA
BRANCH  20  21
HETATM   21  C   UNK N   1      20.623  19.028   2.043  0.00  0.00     0.222 C 
HETATM   22  C   UNK N   1      19.191  19.138   2.563  0.00  0.00     0.051 C 
BRANCH  21  23
HETATM   23  C   UNK N   1      20.948  20.306   1.335  0.00  0.00     0.170 C 
HETATM   24  O   UNK N   1      21.510  21.218   1.919  0.00  0.00    -0.648 OA
BRANCH  23  25
HETATM   25  O   UNK N   1      20.608  20.454   0.038  0.00  0.00    -0.774 OA
HETATM   26  H   UNK N   1      21.155  20.190  -0.674  0.00  0.00     0.167 HD
ENDBRANCH  23  25
ENDBRANCH  21  23
ENDBRANCH  20  21
ENDBRANCH   1  20
TORSDOF 7
ENDMDL
MODEL 3
REMARK VINA RESULT:      -6.8      5.786     10.441
REMARK  7 active torsions:
REMARK  status: ('A' for Active; 'I' for Inactive)
REMARK    1  A    between atoms: O_1  and  C_2 
REMARK    2  A    between atoms: C_2  and  C_4 
REMARK    3  A    between atoms: C_4  and  O_6 
REMARK    4  A    between atoms: O_6  and  C_7 
REMARK    5  A    between atoms: C_12  and  O_13 
REMARK    6  A    between atoms: O_13  and  C_14 
REMARK    7  A    between atoms: C_18  and  C_19 
ROOT
HETATM    1  C   UNK N   1      33.786  16.301   7.737  0.00  0.00     0.070 A 
HETATM    2  C   UNK N   1      33.018  17.389   8.186  0.00  0.00     0.039 A 
HETATM    3  C   UNK N   1      31.654  17.466   7.861  0.00  0.00     0.040 A 
HETATM    4  C   UNK N   1      33.220  15.368   6.868  0.00  0.00     0.039 A 
HETATM    5  C   UNK N   1      31.881  15.441   6.546  0.00  0.00     0.040 A 
HETATM    6  C   UNK N   1      31.070  16.449   7.091  0.00  0.00     0.078 A 
ENDROOT
BRANCH   6   7
HETATM    7  O   UNK N   1      29.724  16.343   6.990  0.00  0.00    -0.292 OA
BRANCH   7   8
HETATM    8  C   UNK N   1      28.978  17.473   6.774  0.00  0.00     0.170 A 
HETATM    9  N   UNK N   1      28.456  18.140   7.832  0.00  0.00    -0.344 N 
HETATM   10  C   UNK N   1      27.809  19.334   7.673  0.00  0.00     0.106 A 
ATOM     11  HN  UNK N   1      28.549  17.744   8.767  1.00  0.00     0.167 HD
HETATM   12  C   UNK N   1      27.669  19.897   6.396  0.00  0.00     0.065 A 
HETATM   13  C   UNK N   1      28.148  19.202   5.295  0.00  0.00     0.045 A 
HETATM   14  C   UNK N   1      28.796  17.986   5.458  0.00  0.00     0.086 A 
HETATM   15 Cl   UNK N   1      29.354  17.168   4.001  0.00  0.00    -0.080 Cl
BRANCH  12  16
HETATM   16  C   UNK N   1      27.044  21.244   6.189  0.00  0.00     0.418 C 
HETATM   17  F   UNK N   1      25.975  21.399   7.053  0.00  0.00    -0.166 F 
HETATM   18  F   UNK N   1      26.585  21.332   4.885  0.00  0.00    -0.166 F 
HETATM   19  F   UNK N   1      27.956  22.260   6.409  0.00  0.00    -0.166 F 
ENDBRANCH  12  16
ENDBRANCH   7   8
ENDBRANCH   6   7
BRANCH   1  20
HETATM   20  O   UNK N   1      35.031  16.097   8.224  0.00  0.00    -0.336 OA
BRANCH  20  21
HETATM   21  C   UNK N   1      35.233  15.376   9.403  0.00  0.00     0.222 C 
HETATM   22  C   UNK N   1      36.159  14.177   9.210  0.00  0.00     0.051 C 
BRANCH  21  23
HETATM   23  C   UNK N   1      35.821  16.236  10.478  0.00  0.00     0.170 C 
HETATM   24  O   UNK N   1      35.172  17.138  10.981  0.00  0.00    -0.648 OA
BRANCH  23  25
HETATM   25  O   UNK N   1      37.087  16.018  10.887  0.00  0.00    -0.774 OA
HETATM   26  H   UNK N   1      37.454  16.398  11.660  0.00  0.00     0.167 HD
ENDBRANCH  23  25
ENDBRANCH  21  23
ENDBRANCH  20  21
ENDBRANCH   1  20
TORSDOF 7
ENDMDL
MODEL 4
REMARK VINA RESULT:      -6.8      5.874      7.059
REMARK  7 active torsions:
REMARK  status: ('A' for Active; 'I' for Inactive)
REMARK    1  A    between atoms: O_1  and  C_2 
REMARK    2  A    between atoms: C_2  and  C_4 
REMARK    3  A    between atoms: C_4  and  O_6 
REMARK    4  A    between atoms: O_6  and  C_7 
REMARK    5  A    between atoms: C_12  and  O_13 
REMARK    6  A    between atoms: O_13  and  C_14 
REMARK    7  A    between atoms: C_18  and  C_19 
ROOT
HETATM    1  C   UNK N   1      23.150  17.745   4.499  0.00  0.00     0.070 A 
HETATM    2  C   UNK N   1      23.576  16.782   5.429  0.00  0.00     0.039 A 
HETATM    3  C   UNK N   1      22.631  15.987   6.099  0.00  0.00     0.040 A 
HETATM    4  C   UNK N   1      21.787  17.993   4.337  0.00  0.00     0.039 A 
HETATM    5  C   UNK N   1      20.856  17.216   4.994  0.00  0.00     0.040 A 
HETATM    6  C   UNK N   1      21.266  16.164   5.828  0.00  0.00     0.078 A 
ENDROOT
BRANCH   6   7
HETATM    7  O   UNK N   1      20.355  15.250   6.237  0.00  0.00    -0.292 OA
BRANCH   7   8
HETATM    8  C   UNK N   1      20.635  14.468   7.328  0.00  0.00     0.170 A 
HETATM    9  N   UNK N   1      21.203  13.251   7.148  0.00  0.00    -0.344 N 
HETATM   10  C   UNK N   1      21.608  12.489   8.209  0.00  0.00     0.106 A 
ATOM     11  HN  UNK N   1      21.333  12.895   6.201  1.00  0.00     0.167 HD
HETATM   12  C   UNK N   1      21.439  12.958   9.520  0.00  0.00     0.065 A 
HETATM   13  C   UNK N   1      20.809  14.177   9.726  0.00  0.00     0.045 A 
HETATM   14  C   UNK N   1      20.390  14.943   8.647  0.00  0.00     0.086 A 
HETATM   15 Cl   UNK N   1      19.585  16.468   9.007  0.00  0.00    -0.080 Cl
BRANCH  12  16
HETATM   16  C   UNK N   1      21.948  12.194  10.705  0.00  0.00     0.418 C 
HETATM   17  F   UNK N   1      22.925  12.931  11.350  0.00  0.00    -0.166 F 
HETATM   18  F   UNK N   1      22.500  11.001  10.269  0.00  0.00    -0.166 F 
HETATM   19  F   UNK N   1      20.930  11.913  11.597  0.00  0.00    -0.166 F 
ENDBRANCH  12  16
ENDBRANCH   7   8
ENDBRANCH   6   7
BRANCH   1  20
HETATM   20  O   UNK N   1      24.045  18.354   3.687  0.00  0.00    -0.336 OA
BRANCH  20  21
HETATM   21  C   UNK N   1      24.530  19.630   3.982  0.00  0.00     0.222 C 
HETATM   22  C   UNK N   1      26.046  19.654   4.171  0.00  0.00     0.051 C 
BRANCH  21  23
HETATM   23  C   UNK N   1      24.192  20.608   2.901  0.00  0.00     0.170 C 
HETATM   24  O   UNK N   1      24.981  20.838   1.999  0.00  0.00    -0.648 OA
BRANCH  23  25
HETATM   25  O   UNK N   1      23.006  21.249   2.929  0.00  0.00    -0.774 OA
HETATM   26  H   UNK N   1      22.861  22.086   2.535  0.00  0.00     0.167 HD
ENDBRANCH  23  25
ENDBRANCH  21  23
ENDBRANCH  20  21
ENDBRANCH   1  20
TORSDOF 7
ENDMDL
MODEL 5
REMARK VINA RESULT:      -6.6      9.846     12.939
REMARK  7 active torsions:
REMARK  status: ('A' for Active; 'I' for Inactive)
REMARK    1  A    between atoms: O_1  and  C_2 
REMARK    2  A    between atoms: C_2  and  C_4 
REMARK    3  A    between atoms: C_4  and  O_6 
REMARK    4  A    between atoms: O_6  and  C_7 
REMARK    5  A    between atoms: C_12  and  O_13 
REMARK    6  A    between atoms: O_13  and  C_14 
REMARK    7  A    between atoms: C_18  and  C_19 
ROOT
HETATM    1  C   UNK N   1      34.339  15.743   9.468  0.00  0.00     0.070 A 
HETATM    2  C   UNK N   1      34.418  14.386   9.114  0.00  0.00     0.039 A 
HETATM    3  C   UNK N   1      35.336  13.544   9.764  0.00  0.00     0.040 A 
HETATM    4  C   UNK N   1      35.258  16.276  10.373  0.00  0.00     0.039 A 
HETATM    5  C   UNK N   1      36.161  15.452  11.012  0.00  0.00     0.040 A 
HETATM    6  C   UNK N   1      36.165  14.070  10.764  0.00  0.00     0.078 A 
ENDROOT
BRANCH   6   7
HETATM    7  O   UNK N   1      36.857  13.252  11.592  0.00  0.00    -0.292 OA
BRANCH   7   8
HETATM    8  C   UNK N   1      36.506  13.186  12.915  0.00  0.00     0.170 A 
HETATM    9  N   UNK N   1      37.136  13.983  13.813  0.00  0.00    -0.344 N 
HETATM   10  C   UNK N   1      36.738  14.037  15.120  0.00  0.00     0.106 A 
ATOM     11  HN  UNK N   1      37.923  14.555  13.507  1.00  0.00     0.167 HD
HETATM   12  C   UNK N   1      35.659  13.259  15.562  0.00  0.00     0.065 A 
HETATM   13  C   UNK N   1      35.037  12.396  14.671  0.00  0.00     0.045 A 
HETATM   14  C   UNK N   1      35.450  12.335  13.347  0.00  0.00     0.086 A 
HETATM   15 Cl   UNK N   1      34.613  11.198  12.294  0.00  0.00    -0.080 Cl
BRANCH  12  16
HETATM   16  C   UNK N   1      35.136  13.355  16.964  0.00  0.00     0.418 C 
HETATM   17  F   UNK N   1      35.819  14.343  17.650  0.00  0.00    -0.166 F 
HETATM   18  F   UNK N   1      35.337  12.143  17.604  0.00  0.00    -0.166 F 
HETATM   19  F   UNK N   1      33.784  13.647  16.977  0.00  0.00    -0.166 F 
ENDBRANCH  12  16
ENDBRANCH   7   8
ENDBRANCH   6   7
BRANCH   1  20
HETATM   20  O   UNK N   1      33.318  16.509   9.019  0.00  0.00    -0.336 OA
BRANCH  20  21
HETATM   21  C   UNK N   1      33.007  16.568   7.659  0.00  0.00     0.222 C 
HETATM   22  C   UNK N   1      31.723  17.348   7.382  0.00  0.00     0.051 C 
BRANCH  21  23
HETATM   23  C   UNK N   1      34.107  17.209   6.873  0.00  0.00     0.170 C 
HETATM   24  O   UNK N   1      34.527  18.314   7.174  0.00  0.00    -0.648 OA
BRANCH  23  25
HETATM   25  O   UNK N   1      34.633  16.562   5.813  0.00  0.00    -0.774 OA
HETATM   26  H   UNK N   1      35.417  16.051   5.856  0.00  0.00     0.167 HD
ENDBRANCH  23  25
ENDBRANCH  21  23
ENDBRANCH  20  21
ENDBRANCH   1  20
TORSDOF 7
ENDMDL
MODEL 6
REMARK VINA RESULT:      -6.5      5.701      8.242
REMARK  7 active torsions:
REMARK  status: ('A' for Active; 'I' for Inactive)
REMARK    1  A    between atoms: O_1  and  C_2 
REMARK    2  A    between atoms: C_2  and  C_4 
REMARK    3  A    between atoms: C_4  and  O_6 
REMARK    4  A    between atoms: O_6  and  C_7 
REMARK    5  A    between atoms: C_12  and  O_13 
REMARK    6  A    between atoms: O_13  and  C_14 
REMARK    7  A    between atoms: C_18  and  C_19 
ROOT
HETATM    1  C   UNK N   1      29.699  17.564   7.093  0.00  0.00     0.070 A 
HETATM    2  C   UNK N   1      30.148  17.816   8.400  0.00  0.00     0.039 A 
HETATM    3  C   UNK N   1      31.523  17.778   8.688  0.00  0.00     0.040 A 
HETATM    4  C   UNK N   1      30.607  17.156   6.116  0.00  0.00     0.039 A 
HETATM    5  C   UNK N   1      31.958  17.117   6.396  0.00  0.00     0.040 A 
HETATM    6  C   UNK N   1      32.435  17.491   7.662  0.00  0.00     0.078 A 
ENDROOT
BRANCH   6   7
HETATM    7  O   UNK N   1      33.760  17.712   7.831  0.00  0.00    -0.292 OA
BRANCH   7   8
HETATM    8  C   UNK N   1      34.468  16.910   8.687  0.00  0.00     0.170 A 
HETATM    9  N   UNK N   1      34.658  17.306   9.969  0.00  0.00    -0.344 N 
HETATM   10  C   UNK N   1      35.253  16.487  10.889  0.00  0.00     0.106 A 
ATOM     11  HN  UNK N   1      34.349  18.235  10.256  1.00  0.00     0.167 HD
HETATM   12  C   UNK N   1      35.686  15.206  10.517  0.00  0.00     0.065 A 
HETATM   13  C   UNK N   1      35.550  14.803   9.196  0.00  0.00     0.045 A 
HETATM   14  C   UNK N   1      34.955  15.641   8.263  0.00  0.00     0.086 A 
HETATM   15 Cl   UNK N   1      34.842  15.052   6.607  0.00  0.00    -0.080 Cl
BRANCH  12  16
HETATM   16  C   UNK N   1      36.262  14.245  11.513  0.00  0.00     0.418 C 
HETATM   17  F   UNK N   1      36.388  14.868  12.742  0.00  0.00    -0.166 F 
HETATM   18  F   UNK N   1      37.517  13.847  11.081  0.00  0.00    -0.166 F 
HETATM   19  F   UNK N   1      35.463  13.126  11.652  0.00  0.00    -0.166 F 
ENDBRANCH  12  16
ENDBRANCH   7   8
ENDBRANCH   6   7
BRANCH   1  20
HETATM   20  O   UNK N   1      28.414  17.816   6.752  0.00  0.00    -0.336 OA
BRANCH  20  21
HETATM   21  C   UNK N   1      28.085  18.909   5.948  0.00  0.00     0.222 C 
HETATM   22  C   UNK N   1      27.059  18.561   4.871  0.00  0.00     0.051 C 
BRANCH  21  23
HETATM   23  C   UNK N   1      27.528  20.038   6.758  0.00  0.00     0.170 C 
HETATM   24  O   UNK N   1      27.473  21.167   6.300  0.00  0.00    -0.648 OA
BRANCH  23  25
HETATM   25  O   UNK N   1      27.090  19.805   8.012  0.00  0.00    -0.774 OA
HETATM   26  H   UNK N   1      27.647  19.810   8.764  0.00  0.00     0.167 HD
ENDBRANCH  23  25
ENDBRANCH  21  23
ENDBRANCH  20  21
ENDBRANCH   1  20
TORSDOF 7
ENDMDL
MODEL 7
REMARK VINA RESULT:      -6.5      7.491     10.604
REMARK  7 active torsions:
REMARK  status: ('A' for Active; 'I' for Inactive)
REMARK    1  A    between atoms: O_1  and  C_2 
REMARK    2  A    between atoms: C_2  and  C_4 
REMARK    3  A    between atoms: C_4  and  O_6 
REMARK    4  A    between atoms: O_6  and  C_7 
REMARK    5  A    between atoms: C_12  and  O_13 
REMARK    6  A    between atoms: O_13  and  C_14 
REMARK    7  A    between atoms: C_18  and  C_19 
ROOT
HETATM    1  C   UNK N   1      31.451  16.756   8.463  0.00  0.00     0.070 A 
HETATM    2  C   UNK N   1      32.429  17.752   8.314  0.00  0.00     0.039 A 
HETATM    3  C   UNK N   1      33.762  17.485   8.670  0.00  0.00     0.040 A 
HETATM    4  C   UNK N   1      31.781  15.550   9.081  0.00  0.00     0.039 A 
HETATM    5  C   UNK N   1      33.088  15.284   9.433  0.00  0.00     0.040 A 
HETATM    6  C   UNK N   1      34.101  16.220   9.171  0.00  0.00     0.078 A 
ENDROOT
BRANCH   6   7
HETATM    7  O   UNK N   1      35.396  15.837   9.266  0.00  0.00    -0.292 OA
BRANCH   7   8
HETATM    8  C   UNK N   1      35.815  15.164  10.384  0.00  0.00     0.170 A 
HETATM    9  N   UNK N   1      35.743  15.770  11.594  0.00  0.00    -0.344 N 
HETATM   10  C   UNK N   1      36.036  15.097  12.748  0.00  0.00     0.106 A 
ATOM     11  HN  UNK N   1      35.462  16.750  11.646  1.00  0.00     0.167 HD
HETATM   12  C   UNK N   1      36.424  13.750  12.700  0.00  0.00     0.065 A 
HETATM   13  C   UNK N   1      36.557  13.128  11.467  0.00  0.00     0.045 A 
HETATM   14  C   UNK N   1      36.268  13.817  10.297  0.00  0.00     0.086 A 
HETATM   15 Cl   UNK N   1      36.483  12.951   8.778  0.00  0.00    -0.080 Cl
BRANCH  12  16
HETATM   16  C   UNK N   1      36.668  12.953  13.946  0.00  0.00     0.418 C 
HETATM   17  F   UNK N   1      37.147  13.782  14.944  0.00  0.00    -0.166 F 
HETATM   18  F   UNK N   1      37.617  11.979  13.678  0.00  0.00    -0.166 F 
HETATM   19  F   UNK N   1      35.510  12.337  14.384  0.00  0.00    -0.166 F 
ENDBRANCH  12  16
ENDBRANCH   7   8
ENDBRANCH   6   7
BRANCH   1  20
HETATM   20  O   UNK N   1      30.222  16.918   7.920  0.00  0.00    -0.336 OA
BRANCH  20  21
HETATM   21  C   UNK N   1      29.571  18.152   7.970  0.00  0.00     0.222 C 
HETATM   22  C   UNK N   1      28.526  18.312   6.867  0.00  0.00     0.051 C 
BRANCH  21  23
HETATM   23  C   UNK N   1      28.880  18.355   9.282  0.00  0.00     0.170 C 
HETATM   24  O   UNK N   1      29.496  18.759  10.255  0.00  0.00    -0.648 OA
BRANCH  23  25
HETATM   25  O   UNK N   1      27.565  18.079   9.393  0.00  0.00    -0.774 OA
HETATM   26  H   UNK N   1      26.895  18.570   8.960  0.00  0.00     0.167 HD
ENDBRANCH  23  25
ENDBRANCH  21  23
ENDBRANCH  20  21
ENDBRANCH   1  20
TORSDOF 7
ENDMDL
MODEL 8
REMARK VINA RESULT:      -6.3      7.653     12.765
REMARK  7 active torsions:
REMARK  status: ('A' for Active; 'I' for Inactive)
REMARK    1  A    between atoms: O_1  and  C_2 
REMARK    2  A    between atoms: C_2  and  C_4 
REMARK    3  A    between atoms: C_4  and  O_6 
REMARK    4  A    between atoms: O_6  and  C_7 
REMARK    5  A    between atoms: C_12  and  O_13 
REMARK    6  A    between atoms: O_13  and  C_14 
REMARK    7  A    between atoms: C_18  and  C_19 
ROOT
HETATM    1  C   UNK N   1      36.018  14.555  10.947  0.00  0.00     0.070 A 
HETATM    2  C   UNK N   1      35.181  14.133   9.902  0.00  0.00     0.039 A 
HETATM    3  C   UNK N   1      34.442  15.077   9.169  0.00  0.00     0.040 A 
HETATM    4  C   UNK N   1      36.017  15.895  11.334  0.00  0.00     0.039 A 
HETATM    5  C   UNK N   1      35.292  16.825  10.618  0.00  0.00     0.040 A 
HETATM    6  C   UNK N   1      34.552  16.437   9.490  0.00  0.00     0.078 A 
ENDROOT
BRANCH   6   7
HETATM    7  O   UNK N   1      34.081  17.388   8.649  0.00  0.00    -0.292 OA
BRANCH   7   8
HETATM    8  C   UNK N   1      32.787  17.306   8.204  0.00  0.00     0.170 A 
HETATM    9  N   UNK N   1      31.769  17.378   9.096  0.00  0.00    -0.344 N 
HETATM   10  C   UNK N   1      30.464  17.421   8.686  0.00  0.00     0.106 A 
ATOM     11  HN  UNK N   1      31.979  17.402  10.093  1.00  0.00     0.167 HD
HETATM   12  C   UNK N   1      30.152  17.389   7.320  0.00  0.00     0.065 A 
HETATM   13  C   UNK N   1      31.177  17.260   6.394  0.00  0.00     0.045 A 
HETATM   14  C   UNK N   1      32.500  17.207   6.813  0.00  0.00     0.086 A 
HETATM   15 Cl   UNK N   1      33.732  17.024   5.568  0.00  0.00    -0.080 Cl
BRANCH  12  16
HETATM   16  C   UNK N   1      28.742  17.523   6.827  0.00  0.00     0.418 C 
HETATM   17  F   UNK N   1      28.674  17.140   5.500  0.00  0.00    -0.166 F 
HETATM   18  F   UNK N   1      28.352  18.848   6.933  0.00  0.00    -0.166 F 
HETATM   19  F   UNK N   1      27.875  16.743   7.569  0.00  0.00    -0.166 F 
ENDBRANCH  12  16
ENDBRANCH   7   8
ENDBRANCH   6   7
BRANCH   1  20
HETATM   20  O   UNK N   1      36.899  13.695  11.507  0.00  0.00    -0.336 OA
BRANCH  20  21
HETATM   21  C   UNK N   1      36.480  12.739  12.435  0.00  0.00     0.222 C 
HETATM   22  C   UNK N   1      37.556  11.697  12.734  0.00  0.00     0.051 C 
BRANCH  21  23
HETATM   23  C   UNK N   1      36.087  13.372  13.734  0.00  0.00     0.170 C 
HETATM   24  O   UNK N   1      34.927  13.353  14.111  0.00  0.00    -0.648 OA
BRANCH  23  25
HETATM   25  O   UNK N   1      37.025  13.977  14.490  0.00  0.00    -0.774 OA
HETATM   26  H   UNK N   1      36.824  14.530  15.219  0.00  0.00     0.167 HD
ENDBRANCH  23  25
ENDBRANCH  21  23
ENDBRANCH  20  21
ENDBRANCH   1  20
TORSDOF 7
ENDMDL
MODEL 9
REMARK VINA RESULT:      -6.3      5.496     10.202
REMARK  7 active torsions:
REMARK  status: ('A' for Active; 'I' for Inactive)
REMARK    1  A    between atoms: O_1  and  C_2 
REMARK    2  A    between atoms: C_2  and  C_4 
REMARK    3  A    between atoms: C_4  and  O_6 
REMARK    4  A    between atoms: O_6  and  C_7 
REMARK    5  A    between atoms: C_12  and  O_13 
REMARK    6  A    between atoms: O_13  and  C_14 
REMARK    7  A    between atoms: C_18  and  C_19 
ROOT
HETATM    1  C   UNK N   1      33.328  16.664   7.617  0.00  0.00     0.070 A 
HETATM    2  C   UNK N   1      32.453  17.482   8.350  0.00  0.00     0.039 A 
HETATM    3  C   UNK N   1      31.092  17.539   8.005  0.00  0.00     0.040 A 
HETATM    4  C   UNK N   1      32.869  16.008   6.475  0.00  0.00     0.039 A 
HETATM    5  C   UNK N   1      31.534  16.062   6.133  0.00  0.00     0.040 A 
HETATM    6  C   UNK N   1      30.621  16.771   6.930  0.00  0.00     0.078 A 
ENDROOT
BRANCH   6   7
HETATM    7  O   UNK N   1      29.294  16.586   6.739  0.00  0.00    -0.292 OA
BRANCH   7   8
HETATM    8  C   UNK N   1      28.596  17.483   5.973  0.00  0.00     0.170 A 
HETATM    9  N   UNK N   1      28.486  17.275   4.638  0.00  0.00    -0.344 N 
HETATM   10  C   UNK N   1      27.701  18.076   3.854  0.00  0.00     0.106 A 
ATOM     11  HN  UNK N   1      28.997  16.505   4.208  1.00  0.00     0.167 HD
HETATM   12  C   UNK N   1      26.988  19.141   4.424  0.00  0.00     0.065 A 
HETATM   13  C   UNK N   1      27.132  19.403   5.778  0.00  0.00     0.045 A 
HETATM   14  C   UNK N   1      27.937  18.595   6.570  0.00  0.00     0.086 A 
HETATM   15 Cl   UNK N   1      28.072  19.015   8.275  0.00  0.00    -0.080 Cl
BRANCH  12  16
HETATM   16  C   UNK N   1      26.050  19.987   3.616  0.00  0.00     0.418 C 
HETATM   17  F   UNK N   1      25.165  20.635   4.458  0.00  0.00    -0.166 F 
HETATM   18  F   UNK N   1      25.334  19.169   2.756  0.00  0.00    -0.166 F 
HETATM   19  F   UNK N   1      26.737  20.926   2.869  0.00  0.00    -0.166 F 
ENDBRANCH  12  16
ENDBRANCH   7   8
ENDBRANCH   6   7
BRANCH   1  20
HETATM   20  O   UNK N   1      34.581  16.425   8.071  0.00  0.00    -0.336 OA
BRANCH  20  21
HETATM   21  C   UNK N   1      34.793  15.728   9.262  0.00  0.00     0.222 C 
HETATM   22  C   UNK N   1      35.872  14.655   9.133  0.00  0.00     0.051 C 
BRANCH  21  23
HETATM   23  C   UNK N   1      35.197  16.647  10.372  0.00  0.00     0.170 C 
HETATM   24  O   UNK N   1      35.584  17.780  10.133  0.00  0.00    -0.648 OA
BRANCH  23  25
HETATM   25  O   UNK N   1      35.143  16.216  11.648  0.00  0.00    -0.774 OA
HETATM   26  H   UNK N   1      34.775  15.393  11.901  0.00  0.00     0.167 HD
ENDBRANCH  23  25
ENDBRANCH  21  23
ENDBRANCH  20  21
ENDBRANCH   1  20
TORSDOF 7
ENDMDL
