REMARK  7 active torsions:
REMARK  status: ('A' for Active; 'I' for Inactive)
REMARK    1  A    between atoms: O_1  and  C_2 
REMARK    2  A    between atoms: C_2  and  C_4 
REMARK    3  A    between atoms: C_4  and  O_6 
REMARK    4  A    between atoms: O_6  and  C_7 
REMARK    5  A    between atoms: C_12  and  O_13 
REMARK    6  A    between atoms: O_13  and  C_14 
REMARK    7  A    between atoms: C_18  and  C_19 
ROOT
HETATM    1  C   UNK N   1       1.972   1.944   0.041  0.00  0.00     0.070 A 
HETATM    2  C   UNK N   1       2.926   1.384  -0.824  0.00  0.00     0.039 A 
HETATM    3  C   UNK N   1       3.080  -0.011  -0.890  0.00  0.00     0.040 A 
HETATM    4  C   UNK N   1       1.269   1.121   0.921  0.00  0.00     0.039 A 
HETATM    5  C   UNK N   1       1.418  -0.249   0.860  0.00  0.00     0.040 A 
HETATM    6  C   UNK N   1       2.273  -0.832  -0.089  0.00  0.00     0.078 A 
ENDROOT
BRANCH   6   7
HETATM    7  O   UNK N   1       2.197  -2.164  -0.318  0.00  0.00    -0.292 OA
BRANCH   7   8
HETATM    8  C   UNK N   1       0.975  -2.783  -0.269  0.00  0.00     0.170 A 
HETATM    9  N   UNK N   1       0.833  -3.923   0.450  0.00  0.00    -0.344 N 
HETATM   10  C   UNK N   1      -0.391  -4.508   0.625  0.00  0.00     0.106 A 
ATOM     11  HN  UNK N   1       1.656  -4.354   0.871  1.00  0.00     0.167 HD
HETATM   12  C   UNK N   1      -1.536  -3.933   0.055  0.00  0.00     0.065 A 
HETATM   13  C   UNK N   1      -1.403  -2.797  -0.730  0.00  0.00     0.045 A 
HETATM   14  C   UNK N   1      -0.158  -2.211  -0.914  0.00  0.00     0.086 A 
HETATM   15 Cl   UNK N   1      -0.084  -0.782  -1.941  0.00  0.00    -0.080 Cl
BRANCH  12  16
HETATM   16  C   UNK N   1      -2.906  -4.493   0.296  0.00  0.00     0.418 C 
HETATM   17  F   UNK N   1      -3.501  -4.805  -0.913  0.00  0.00    -0.166 F 
HETATM   18  F   UNK N   1      -3.675  -3.539   0.942  0.00  0.00    -0.166 F 
HETATM   19  F   UNK N   1      -2.853  -5.629   1.082  0.00  0.00    -0.166 F 
ENDBRANCH  12  16
ENDBRANCH   7   8
ENDBRANCH   6   7
BRANCH   1  20
HETATM   20  O   UNK N   1       1.656   3.257  -0.048  0.00  0.00    -0.336 OA
BRANCH  20  21
HETATM   21  C   UNK N   1       0.383   3.664  -0.452  0.00  0.00     0.222 C 
HETATM   22  C   UNK N   1      -0.721   3.141   0.465  0.00  0.00     0.051 C 
BRANCH  21  23
HETATM   23  C   UNK N   1       0.271   5.156  -0.492  0.00  0.00     0.170 C 
HETATM   24  O   UNK N   1       1.198   5.861  -0.129  0.00  0.00    -0.648 OA
BRANCH  23  25
HETATM   25  O   UNK N   1      -0.871   5.727  -0.925  0.00  0.00    -0.774 OA
HETATM   26  H   UNK N   1      -0.925   6.612  -1.227  0.00  0.00     0.167 HD
ENDBRANCH  23  25
ENDBRANCH  21  23
ENDBRANCH  20  21
ENDBRANCH   1  20
TORSDOF 7
