MODEL 1
REMARK VINA RESULT:      -6.3      0.000      0.000
REMARK  3 active torsions:
REMARK  status: ('A' for Active; 'I' for Inactive)
REMARK    1  A    between atoms: C_1  and  O_12 
REMARK    2  A    between atoms: C_10  and  C_20 
REMARK    3  A    between atoms: C_11  and  O_12 
ROOT
HETATM    1  N   UNK N   1      29.314  17.322   4.395  0.00  0.00    -0.322 N 
HETATM    2  C   UNK N   1      30.276  16.575   3.765  0.00  0.00     0.255 A 
HETATM    3  O   UNK N   1      30.150  16.348   2.575  0.00  0.00    -0.268 OA
HETATM    4  C   UNK N   1      31.389  16.072   4.497  0.00  0.00     0.048 A 
HETATM    5  C   UNK N   1      31.464  16.371   5.885  0.00  0.00     0.093 A 
HETATM    6  C   UNK N   1      29.383  17.616   5.714  0.00  0.00     0.048 A 
HETATM    7  C   UNK N   1      30.464  17.152   6.484  0.00  0.00     0.026 A 
HETATM    8  C   UNK N   1      30.522  17.465   7.846  0.00  0.00     0.040 A 
HETATM    9  C   UNK N   1      29.514  18.219   8.444  0.00  0.00     0.035 A 
HETATM   10  C   UNK N   1      28.438  18.677   7.679  0.00  0.00     0.026 A 
HETATM   11  C   UNK N   1      28.374  18.378   6.314  0.00  0.00     0.032 A 
HETATM   12 Cl   UNK N   1      29.596  18.572  10.156  0.00  0.00    -0.084 Cl
HETATM   13  H   UNK N   1      28.549  17.654   3.871  0.00  0.00     0.169 HD
ENDROOT
BRANCH   5  14
HETATM   14  O   UNK N   1      32.493  15.935   6.657  0.00  0.00    -0.344 OA
BRANCH  14  15
HETATM   15  C   UNK N   1      33.812  16.272   6.405  0.00  0.00     0.129 C 
HETATM   16  C   UNK N   1      34.026  17.775   6.612  0.00  0.00     0.032 C 
HETATM   17  C   UNK N   1      34.128  18.208   8.084  0.00  0.00     0.002 C 
HETATM   18  C   UNK N   1      33.905  17.064   9.069  0.00  0.00     0.000 C 
HETATM   19  C   UNK N   1      34.835  15.894   8.751  0.00  0.00     0.002 C 
HETATM   20  C   UNK N   1      34.794  15.466   7.274  0.00  0.00     0.032 C 
ENDBRANCH  14  15
ENDBRANCH   5  14
BRANCH   4  21
HETATM   21  C   UNK N   1      32.506  15.255   3.842  0.00  0.00     0.019 C 
HETATM   22  C   UNK N   1      31.988  13.958   3.254  0.00  0.00     0.015 C 
HETATM   23  C   UNK N   1      33.339  15.958   2.780  0.00  0.00     0.015 C 
ENDBRANCH   4  21
TORSDOF 3
ENDMDL
MODEL 2
REMARK VINA RESULT:      -6.2     12.315     14.899
REMARK  3 active torsions:
REMARK  status: ('A' for Active; 'I' for Inactive)
REMARK    1  A    between atoms: C_1  and  O_12 
REMARK    2  A    between atoms: C_10  and  C_20 
REMARK    3  A    between atoms: C_11  and  O_12 
ROOT
HETATM    1  N   UNK N   1      30.469  20.627  -5.476  0.00  0.00    -0.322 N 
HETATM    2  C   UNK N   1      30.447  21.537  -4.450  0.00  0.00     0.255 A 
HETATM    3  O   UNK N   1      31.149  21.333  -3.476  0.00  0.00    -0.268 OA
HETATM    4  C   UNK N   1      29.609  22.686  -4.527  0.00  0.00     0.048 A 
HETATM    5  C   UNK N   1      28.812  22.852  -5.692  0.00  0.00     0.093 A 
HETATM    6  C   UNK N   1      29.718  20.783  -6.590  0.00  0.00     0.048 A 
HETATM    7  C   UNK N   1      28.879  21.903  -6.723  0.00  0.00     0.026 A 
HETATM    8  C   UNK N   1      28.109  22.052  -7.882  0.00  0.00     0.040 A 
HETATM    9  C   UNK N   1      28.159  21.094  -8.894  0.00  0.00     0.035 A 
HETATM   10  C   UNK N   1      28.990  19.979  -8.759  0.00  0.00     0.026 A 
HETATM   11  C   UNK N   1      29.772  19.825  -7.609  0.00  0.00     0.032 A 
HETATM   12 Cl   UNK N   1      27.163  21.288 -10.319  0.00  0.00    -0.084 Cl
HETATM   13  H   UNK N   1      31.051  19.836  -5.399  0.00  0.00     0.169 HD
ENDROOT
BRANCH   5  14
HETATM   14  O   UNK N   1      27.988  23.921  -5.850  0.00  0.00    -0.344 OA
BRANCH  14  15
HETATM   15  C   UNK N   1      26.625  23.855  -5.620  0.00  0.00     0.129 C 
HETATM   16  C   UNK N   1      26.311  24.239  -4.170  0.00  0.00     0.032 C 
HETATM   17  C   UNK N   1      26.352  25.750  -3.887  0.00  0.00     0.002 C 
HETATM   18  C   UNK N   1      26.789  26.580  -5.091  0.00  0.00     0.000 C 
HETATM   19  C   UNK N   1      25.931  26.250  -6.310  0.00  0.00     0.002 C 
HETATM   20  C   UNK N   1      25.828  24.742  -6.594  0.00  0.00     0.032 C 
ENDBRANCH  14  15
ENDBRANCH   5  14
BRANCH   4  21
HETATM   21  C   UNK N   1      29.562  23.747  -3.425  0.00  0.00     0.019 C 
HETATM   22  C   UNK N   1      29.304  23.136  -2.062  0.00  0.00     0.015 C 
HETATM   23  C   UNK N   1      30.764  24.673  -3.310  0.00  0.00     0.015 C 
ENDBRANCH   4  21
TORSDOF 3
ENDMDL
MODEL 3
REMARK VINA RESULT:      -6.2     12.798     14.927
REMARK  3 active torsions:
REMARK  status: ('A' for Active; 'I' for Inactive)
REMARK    1  A    between atoms: C_1  and  O_12 
REMARK    2  A    between atoms: C_10  and  C_20 
REMARK    3  A    between atoms: C_11  and  O_12 
ROOT
HETATM    1  N   UNK N   1      25.245  24.330  -6.656  0.00  0.00    -0.322 N 
HETATM    2  C   UNK N   1      25.561  25.429  -5.898  0.00  0.00     0.255 A 
HETATM    3  O   UNK N   1      24.692  26.251  -5.674  0.00  0.00    -0.268 OA
HETATM    4  C   UNK N   1      26.884  25.600  -5.399  0.00  0.00     0.048 A 
HETATM    5  C   UNK N   1      27.847  24.601  -5.708  0.00  0.00     0.093 A 
HETATM    6  C   UNK N   1      26.155  23.373  -6.948  0.00  0.00     0.048 A 
HETATM    7  C   UNK N   1      27.473  23.486  -6.474  0.00  0.00     0.026 A 
HETATM    8  C   UNK N   1      28.404  22.488  -6.783  0.00  0.00     0.040 A 
HETATM    9  C   UNK N   1      28.036  21.394  -7.566  0.00  0.00     0.035 A 
HETATM   10  C   UNK N   1      26.727  21.285  -8.040  0.00  0.00     0.026 A 
HETATM   11  C   UNK N   1      25.785  22.272  -7.729  0.00  0.00     0.032 A 
HETATM   12 Cl   UNK N   1      29.227  20.175  -7.963  0.00  0.00    -0.084 Cl
HETATM   13  H   UNK N   1      24.326  24.235  -6.997  0.00  0.00     0.169 HD
ENDROOT
BRANCH   5  14
HETATM   14  O   UNK N   1      29.130  24.683  -5.268  0.00  0.00    -0.344 OA
BRANCH  14  15
HETATM   15  C   UNK N   1      29.457  24.755  -3.925  0.00  0.00     0.129 C 
HETATM   16  C   UNK N   1      29.020  23.477  -3.202  0.00  0.00     0.032 C 
HETATM   17  C   UNK N   1      29.944  22.268  -3.429  0.00  0.00     0.002 C 
HETATM   18  C   UNK N   1      31.078  22.549  -4.411  0.00  0.00     0.000 C 
HETATM   19  C   UNK N   1      31.857  23.793  -3.988  0.00  0.00     0.002 C 
HETATM   20  C   UNK N   1      30.959  25.009  -3.705  0.00  0.00     0.032 C 
ENDBRANCH  14  15
ENDBRANCH   5  14
BRANCH   4  21
HETATM   21  C   UNK N   1      27.289  26.791  -4.528  0.00  0.00     0.019 C 
HETATM   22  C   UNK N   1      27.351  28.079  -5.325  0.00  0.00     0.015 C 
HETATM   23  C   UNK N   1      26.455  27.046  -3.280  0.00  0.00     0.015 C 
ENDBRANCH   4  21
TORSDOF 3
ENDMDL
MODEL 4
REMARK VINA RESULT:      -6.1      2.869      6.389
REMARK  3 active torsions:
REMARK  status: ('A' for Active; 'I' for Inactive)
REMARK    1  A    between atoms: C_1  and  O_12 
REMARK    2  A    between atoms: C_10  and  C_20 
REMARK    3  A    between atoms: C_11  and  O_12 
ROOT
HETATM    1  N   UNK N   1      32.093  17.788   8.070  0.00  0.00    -0.322 N 
HETATM    2  C   UNK N   1      30.778  18.027   8.378  0.00  0.00     0.255 A 
HETATM    3  O   UNK N   1      30.517  18.564   9.439  0.00  0.00    -0.268 OA
HETATM    4  C   UNK N   1      29.747  17.641   7.474  0.00  0.00     0.048 A 
HETATM    5  C   UNK N   1      30.129  17.012   6.257  0.00  0.00     0.093 A 
HETATM    6  C   UNK N   1      32.463  17.196   6.911  0.00  0.00     0.048 A 
HETATM    7  C   UNK N   1      31.488  16.802   5.979  0.00  0.00     0.026 A 
HETATM    8  C   UNK N   1      31.886  16.191   4.784  0.00  0.00     0.040 A 
HETATM    9  C   UNK N   1      33.235  15.961   4.521  0.00  0.00     0.035 A 
HETATM   10  C   UNK N   1      34.203  16.350   5.450  0.00  0.00     0.026 A 
HETATM   11  C   UNK N   1      33.818  16.970   6.644  0.00  0.00     0.032 A 
HETATM   12 Cl   UNK N   1      33.704  15.169   3.033  0.00  0.00    -0.084 Cl
HETATM   13  H   UNK N   1      32.789  18.057   8.712  0.00  0.00     0.169 HD
ENDROOT
BRANCH   5  14
HETATM   14  O   UNK N   1      29.211  16.616   5.337  0.00  0.00    -0.344 OA
BRANCH  14  15
HETATM   15  C   UNK N   1      29.027  17.274   4.133  0.00  0.00     0.129 C 
HETATM   16  C   UNK N   1      28.565  16.290   3.054  0.00  0.00     0.032 C 
HETATM   17  C   UNK N   1      27.080  15.899   3.142  0.00  0.00     0.002 C 
HETATM   18  C   UNK N   1      26.366  16.499   4.349  0.00  0.00     0.000 C 
HETATM   19  C   UNK N   1      26.562  18.014   4.390  0.00  0.00     0.002 C 
HETATM   20  C   UNK N   1      28.033  18.443   4.256  0.00  0.00     0.032 C 
ENDBRANCH  14  15
ENDBRANCH   5  14
BRANCH   4  21
HETATM   21  C   UNK N   1      28.265  17.905   7.752  0.00  0.00     0.019 C 
HETATM   22  C   UNK N   1      27.808  17.256   9.043  0.00  0.00     0.015 C 
HETATM   23  C   UNK N   1      27.816  19.358   7.766  0.00  0.00     0.015 C 
ENDBRANCH   4  21
TORSDOF 3
ENDMDL
MODEL 5
REMARK VINA RESULT:      -6.1     12.759     14.973
REMARK  3 active torsions:
REMARK  status: ('A' for Active; 'I' for Inactive)
REMARK    1  A    between atoms: C_1  and  O_12 
REMARK    2  A    between atoms: C_10  and  C_20 
REMARK    3  A    between atoms: C_11  and  O_12 
ROOT
HETATM    1  N   UNK N   1      26.529  22.089  -8.083  0.00  0.00    -0.322 N 
HETATM    2  C   UNK N   1      26.096  23.356  -7.784  0.00  0.00     0.255 A 
HETATM    3  O   UNK N   1      25.026  23.726  -8.231  0.00  0.00    -0.268 OA
HETATM    4  C   UNK N   1      26.894  24.215  -6.975  0.00  0.00     0.048 A 
HETATM    5  C   UNK N   1      28.136  23.714  -6.495  0.00  0.00     0.093 A 
HETATM    6  C   UNK N   1      27.706  21.605  -7.624  0.00  0.00     0.048 A 
HETATM    7  C   UNK N   1      28.530  22.406  -6.815  0.00  0.00     0.026 A 
HETATM    8  C   UNK N   1      29.744  21.891  -6.347  0.00  0.00     0.040 A 
HETATM    9  C   UNK N   1      30.145  20.600  -6.687  0.00  0.00     0.035 A 
HETATM   10  C   UNK N   1      29.326  19.806  -7.494  0.00  0.00     0.026 A 
HETATM   11  C   UNK N   1      28.106  20.306  -7.960  0.00  0.00     0.032 A 
HETATM   12 Cl   UNK N   1      31.681  19.991  -6.113  0.00  0.00    -0.084 Cl
HETATM   13  H   UNK N   1      25.964  21.514  -8.649  0.00  0.00     0.169 HD
ENDROOT
BRANCH   5  14
HETATM   14  O   UNK N   1      28.957  24.464  -5.715  0.00  0.00    -0.344 OA
BRANCH  14  15
HETATM   15  C   UNK N   1      28.567  24.963  -4.484  0.00  0.00     0.129 C 
HETATM   16  C   UNK N   1      28.531  23.841  -3.442  0.00  0.00     0.032 C 
HETATM   17  C   UNK N   1      29.912  23.422  -2.908  0.00  0.00     0.002 C 
HETATM   18  C   UNK N   1      31.070  24.146  -3.589  0.00  0.00     0.000 C 
HETATM   19  C   UNK N   1      30.867  25.659  -3.526  0.00  0.00     0.002 C 
HETATM   20  C   UNK N   1      29.478  26.110  -4.007  0.00  0.00     0.032 C 
ENDBRANCH  14  15
ENDBRANCH   5  14
BRANCH   4  21
HETATM   21  C   UNK N   1      26.453  25.627  -6.587  0.00  0.00     0.019 C 
HETATM   22  C   UNK N   1      26.266  26.515  -7.802  0.00  0.00     0.015 C 
HETATM   23  C   UNK N   1      25.209  25.745  -5.719  0.00  0.00     0.015 C 
ENDBRANCH   4  21
TORSDOF 3
ENDMDL
MODEL 6
REMARK VINA RESULT:      -6.1      6.562      8.924
REMARK  3 active torsions:
REMARK  status: ('A' for Active; 'I' for Inactive)
REMARK    1  A    between atoms: C_1  and  O_12 
REMARK    2  A    between atoms: C_10  and  C_20 
REMARK    3  A    between atoms: C_11  and  O_12 
ROOT
HETATM    1  N   UNK N   1      22.628  20.327   2.639  0.00  0.00    -0.322 N 
HETATM    2  C   UNK N   1      23.924  20.445   3.073  0.00  0.00     0.255 A 
HETATM    3  O   UNK N   1      24.599  21.364   2.644  0.00  0.00    -0.268 OA
HETATM    4  C   UNK N   1      24.462  19.503   3.995  0.00  0.00     0.048 A 
HETATM    5  C   UNK N   1      23.615  18.453   4.445  0.00  0.00     0.093 A 
HETATM    6  C   UNK N   1      21.815  19.334   3.069  0.00  0.00     0.048 A 
HETATM    7  C   UNK N   1      22.291  18.381   3.986  0.00  0.00     0.026 A 
HETATM    8  C   UNK N   1      21.438  17.360   4.422  0.00  0.00     0.040 A 
HETATM    9  C   UNK N   1      20.131  17.277   3.944  0.00  0.00     0.035 A 
HETATM   10  C   UNK N   1      19.660  18.223   3.030  0.00  0.00     0.026 A 
HETATM   11  C   UNK N   1      20.501  19.253   2.595  0.00  0.00     0.032 A 
HETATM   12 Cl   UNK N   1      19.095  15.974   4.483  0.00  0.00    -0.084 Cl
HETATM   13  H   UNK N   1      22.279  20.986   1.996  0.00  0.00     0.169 HD
ENDROOT
BRANCH   5  14
HETATM   14  O   UNK N   1      24.045  17.514   5.328  0.00  0.00    -0.344 OA
BRANCH  14  15
HETATM   15  C   UNK N   1      24.179  16.178   4.992  0.00  0.00     0.129 C 
HETATM   16  C   UNK N   1      25.323  15.993   3.991  0.00  0.00     0.032 C 
HETATM   17  C   UNK N   1      26.730  16.046   4.612  0.00  0.00     0.002 C 
HETATM   18  C   UNK N   1      26.720  16.365   6.104  0.00  0.00     0.000 C 
HETATM   19  C   UNK N   1      25.800  15.402   6.853  0.00  0.00     0.002 C 
HETATM   20  C   UNK N   1      24.399  15.288   6.229  0.00  0.00     0.032 C 
ENDBRANCH  14  15
ENDBRANCH   5  14
BRANCH   4  21
HETATM   21  C   UNK N   1      25.891  19.598   4.533  0.00  0.00     0.019 C 
HETATM   22  C   UNK N   1      26.915  19.627   3.415  0.00  0.00     0.015 C 
HETATM   23  C   UNK N   1      26.193  20.749   5.482  0.00  0.00     0.015 C 
ENDBRANCH   4  21
TORSDOF 3
ENDMDL
MODEL 7
REMARK VINA RESULT:      -6.0      3.316      6.354
REMARK  3 active torsions:
REMARK  status: ('A' for Active; 'I' for Inactive)
REMARK    1  A    between atoms: C_1  and  O_12 
REMARK    2  A    between atoms: C_10  and  C_20 
REMARK    3  A    between atoms: C_11  and  O_12 
ROOT
HETATM    1  N   UNK N   1      27.612  19.740   7.327  0.00  0.00    -0.322 N 
HETATM    2  C   UNK N   1      26.813  19.878   6.221  0.00  0.00     0.255 A 
HETATM    3  O   UNK N   1      25.982  20.769   6.210  0.00  0.00    -0.268 OA
HETATM    4  C   UNK N   1      26.953  18.988   5.118  0.00  0.00     0.048 A 
HETATM    5  C   UNK N   1      27.940  17.968   5.207  0.00  0.00     0.093 A 
HETATM    6  C   UNK N   1      28.557  18.777   7.415  0.00  0.00     0.048 A 
HETATM    7  C   UNK N   1      28.745  17.876   6.352  0.00  0.00     0.026 A 
HETATM    8  C   UNK N   1      29.727  16.884   6.457  0.00  0.00     0.040 A 
HETATM    9  C   UNK N   1      30.508  16.778   7.607  0.00  0.00     0.035 A 
HETATM   10  C   UNK N   1      30.318  17.672   8.663  0.00  0.00     0.026 A 
HETATM   11  C   UNK N   1      29.345  18.673   8.567  0.00  0.00     0.032 A 
HETATM   12 Cl   UNK N   1      31.709  15.511   7.724  0.00  0.00    -0.084 Cl
HETATM   13  H   UNK N   1      27.493  20.363   8.081  0.00  0.00     0.169 HD
ENDROOT
BRANCH   5  14
HETATM   14  O   UNK N   1      28.144  17.080   4.199  0.00  0.00    -0.344 OA
BRANCH  14  15
HETATM   15  C   UNK N   1      28.013  15.713   4.370  0.00  0.00     0.129 C 
HETATM   16  C   UNK N   1      26.565  15.356   4.719  0.00  0.00     0.032 C 
HETATM   17  C   UNK N   1      25.600  15.365   3.522  0.00  0.00     0.002 C 
HETATM   18  C   UNK N   1      26.254  15.818   2.220  0.00  0.00     0.000 C 
HETATM   19  C   UNK N   1      27.510  14.995   1.936  0.00  0.00     0.002 C 
HETATM   20  C   UNK N   1      28.476  14.925   3.131  0.00  0.00     0.032 C 
ENDBRANCH  14  15
ENDBRANCH   5  14
BRANCH   4  21
HETATM   21  C   UNK N   1      26.109  19.109   3.848  0.00  0.00     0.019 C 
HETATM   22  C   UNK N   1      24.649  18.789   4.106  0.00  0.00     0.015 C 
HETATM   23  C   UNK N   1      26.178  20.432   3.100  0.00  0.00     0.015 C 
ENDBRANCH   4  21
TORSDOF 3
ENDMDL
MODEL 8
REMARK VINA RESULT:      -6.0     11.191     13.449
REMARK  3 active torsions:
REMARK  status: ('A' for Active; 'I' for Inactive)
REMARK    1  A    between atoms: C_1  and  O_12 
REMARK    2  A    between atoms: C_10  and  C_20 
REMARK    3  A    between atoms: C_11  and  O_12 
ROOT
HETATM    1  N   UNK N   1      28.146  22.784  -6.343  0.00  0.00    -0.322 N 
HETATM    2  C   UNK N   1      28.614  23.314  -5.167  0.00  0.00     0.255 A 
HETATM    3  O   UNK N   1      28.051  24.289  -4.704  0.00  0.00    -0.268 OA
HETATM    4  C   UNK N   1      29.742  22.735  -4.518  0.00  0.00     0.048 A 
HETATM    5  C   UNK N   1      30.351  21.603  -5.124  0.00  0.00     0.093 A 
HETATM    6  C   UNK N   1      28.718  21.703  -6.921  0.00  0.00     0.048 A 
HETATM    7  C   UNK N   1      29.828  21.086  -6.319  0.00  0.00     0.026 A 
HETATM    8  C   UNK N   1      30.408  19.968  -6.928  0.00  0.00     0.040 A 
HETATM    9  C   UNK N   1      29.902  19.472  -8.128  0.00  0.00     0.035 A 
HETATM   10  C   UNK N   1      28.800  20.088  -8.728  0.00  0.00     0.026 A 
HETATM   11  C   UNK N   1      28.206  21.201  -8.123  0.00  0.00     0.032 A 
HETATM   12 Cl   UNK N   1      30.664  18.090  -8.884  0.00  0.00    -0.084 Cl
HETATM   13  H   UNK N   1      27.370  23.204  -6.779  0.00  0.00     0.169 HD
ENDROOT
BRANCH   5  14
HETATM   14  O   UNK N   1      31.428  20.986  -4.569  0.00  0.00    -0.344 OA
BRANCH  14  15
HETATM   15  C   UNK N   1      32.638  21.628  -4.374  0.00  0.00     0.129 C 
HETATM   16  C   UNK N   1      33.500  20.846  -3.378  0.00  0.00     0.032 C 
HETATM   17  C   UNK N   1      34.181  19.598  -3.965  0.00  0.00     0.002 C 
HETATM   18  C   UNK N   1      33.794  19.323  -5.415  0.00  0.00     0.000 C 
HETATM   19  C   UNK N   1      34.030  20.562  -6.277  0.00  0.00     0.002 C 
HETATM   20  C   UNK N   1      33.403  21.840  -5.694  0.00  0.00     0.032 C 
ENDBRANCH  14  15
ENDBRANCH   5  14
BRANCH   4  21
HETATM   21  C   UNK N   1      30.293  23.267  -3.192  0.00  0.00     0.019 C 
HETATM   22  C   UNK N   1      30.656  24.736  -3.280  0.00  0.00     0.015 C 
HETATM   23  C   UNK N   1      29.427  23.065  -1.958  0.00  0.00     0.015 C 
ENDBRANCH   4  21
TORSDOF 3
ENDMDL
MODEL 9
REMARK VINA RESULT:      -5.9      6.235      9.391
REMARK  3 active torsions:
REMARK  status: ('A' for Active; 'I' for Inactive)
REMARK    1  A    between atoms: C_1  and  O_12 
REMARK    2  A    between atoms: C_10  and  C_20 
REMARK    3  A    between atoms: C_11  and  O_12 
ROOT
HETATM    1  N   UNK N   1      36.374  15.494  13.032  0.00  0.00    -0.322 N 
HETATM    2  C   UNK N   1      36.414  14.492  13.968  0.00  0.00     0.255 A 
HETATM    3  O   UNK N   1      37.019  14.690  15.007  0.00  0.00    -0.268 OA
HETATM    4  C   UNK N   1      35.769  13.248  13.717  0.00  0.00     0.048 A 
HETATM    5  C   UNK N   1      35.089  13.088  12.479  0.00  0.00     0.093 A 
HETATM    6  C   UNK N   1      35.724  15.350  11.855  0.00  0.00     0.048 A 
HETATM    7  C   UNK N   1      35.062  14.146  11.558  0.00  0.00     0.026 A 
HETATM    8  C   UNK N   1      34.392  14.013  10.336  0.00  0.00     0.040 A 
HETATM    9  C   UNK N   1      34.388  15.057   9.412  0.00  0.00     0.035 A 
HETATM   10  C   UNK N   1      35.049  16.252   9.707  0.00  0.00     0.026 A 
HETATM   11  C   UNK N   1      35.714  16.400  10.929  0.00  0.00     0.032 A 
HETATM   12 Cl   UNK N   1      33.568  14.853   7.880  0.00  0.00    -0.084 Cl
HETATM   13  H   UNK N   1      36.833  16.343  13.224  0.00  0.00     0.169 HD
ENDROOT
BRANCH   5  14
HETATM   14  O   UNK N   1      34.443  11.936  12.160  0.00  0.00    -0.344 OA
BRANCH  14  15
HETATM   15  C   UNK N   1      35.108  10.743  11.939  0.00  0.00     0.129 C 
HETATM   16  C   UNK N   1      34.144   9.561  12.086  0.00  0.00     0.032 C 
HETATM   17  C   UNK N   1      33.215   9.342  10.880  0.00  0.00     0.002 C 
HETATM   18  C   UNK N   1      33.368  10.406   9.796  0.00  0.00     0.000 C 
HETATM   19  C   UNK N   1      34.831  10.535   9.375  0.00  0.00     0.002 C 
HETATM   20  C   UNK N   1      35.795  10.706  10.561  0.00  0.00     0.032 C 
ENDBRANCH  14  15
ENDBRANCH   5  14
BRANCH   4  21
HETATM   21  C   UNK N   1      35.759  12.104  14.734  0.00  0.00     0.019 C 
HETATM   22  C   UNK N   1      37.134  11.493  14.912  0.00  0.00     0.015 C 
HETATM   23  C   UNK N   1      35.196  12.415  16.113  0.00  0.00     0.015 C 
ENDBRANCH   4  21
TORSDOF 3
ENDMDL
