REMARK  3 active torsions:
REMARK  status: ('A' for Active; 'I' for Inactive)
REMARK    1  A    between atoms: C_1  and  O_12 
REMARK    2  A    between atoms: C_10  and  C_20 
REMARK    3  A    between atoms: C_11  and  O_12 
ROOT
HETATM    1  N   UNK N   1      -1.257  -2.986  -0.318  0.00  0.00    -0.322 N 
HETATM    2  C   UNK N   1      -2.353  -2.195  -0.085  0.00  0.00     0.255 A 
HETATM    3  O   UNK N   1      -3.461  -2.684  -0.212  0.00  0.00    -0.268 OA
HETATM    4  C   UNK N   1      -2.188  -0.830   0.286  0.00  0.00     0.048 A 
HETATM    5  C   UNK N   1      -0.863  -0.328   0.407  0.00  0.00     0.093 A 
HETATM    6  C   UNK N   1       0.006  -2.516  -0.198  0.00  0.00     0.048 A 
HETATM    7  C   UNK N   1       0.228  -1.179   0.174  0.00  0.00     0.026 A 
HETATM    8  C   UNK N   1       1.540  -0.707   0.295  0.00  0.00     0.040 A 
HETATM    9  C   UNK N   1       2.622  -1.548   0.038  0.00  0.00     0.035 A 
HETATM   10  C   UNK N   1       2.400  -2.876  -0.335  0.00  0.00     0.026 A 
HETATM   11  C   UNK N   1       1.093  -3.361  -0.450  0.00  0.00     0.032 A 
HETATM   12 Cl   UNK N   1       4.252  -0.925   0.168  0.00  0.00    -0.084 Cl
HETATM   13  H   UNK N   1      -1.394  -3.925  -0.580  0.00  0.00     0.169 HD
ENDROOT
BRANCH   5  14
HETATM   14  O   UNK N   1      -0.615   0.960   0.761  0.00  0.00    -0.344 OA
BRANCH  14  15
HETATM   15  C   UNK N   1      -0.739   2.016  -0.125  0.00  0.00     0.129 C 
HETATM   16  C   UNK N   1      -0.469   3.344   0.589  0.00  0.00     0.032 C 
HETATM   17  C   UNK N   1       1.019   3.643   0.839  0.00  0.00     0.002 C 
HETATM   18  C   UNK N   1       1.945   2.510   0.406  0.00  0.00     0.000 C 
HETATM   19  C   UNK N   1       1.676   2.123  -1.047  0.00  0.00     0.002 C 
HETATM   20  C   UNK N   1       0.189   1.864  -1.344  0.00  0.00     0.032 C 
ENDBRANCH  14  15
ENDBRANCH   5  14
BRANCH   4  21
HETATM   21  C   UNK N   1      -3.372   0.093   0.583  0.00  0.00     0.019 C 
HETATM   22  C   UNK N   1      -3.545   1.153  -0.487  0.00  0.00     0.015 C 
HETATM   23  C   UNK N   1      -4.721  -0.572   0.814  0.00  0.00     0.015 C 
ENDBRANCH   4  21
TORSDOF 3
