MODEL 1
REMARK VINA RESULT:      -8.3      0.000      0.000
REMARK  6 active torsions:
REMARK  status: ('A' for Active; 'I' for Inactive)
REMARK    1  A    between atoms: C_4  and  N_5 
REMARK    2  A    between atoms: C_14  and  N_15 
REMARK       I    between atoms: N_15  and  C_16 
REMARK    3  A    between atoms: C_16  and  C_18 
REMARK    4  A    between atoms: C_18  and  N_19 
REMARK    5  A    between atoms: C_21  and  N_24 
REMARK       I    between atoms: N_24  and  C_25 
REMARK    6  A    between atoms: C_25  and  C_27 
ROOT
HETATM    1  N   UNK N   1      35.354  15.955   9.913  0.00  0.00    -0.323 N 
HETATM    2  C   UNK N   1      36.119  14.968   9.376  0.00  0.00     0.250 C 
HETATM    3  O   UNK N   1      35.838  14.484   8.289  0.00  0.00    -0.271 OA
HETATM    4  H   UNK N   1      35.662  16.420  10.725  0.00  0.00     0.169 HD
ENDROOT
BRANCH   2   5
HETATM    5  C   UNK N   1      37.238  14.369  10.179  0.00  0.00     0.375 C 
BRANCH   5   6
HETATM    6  N   UNK N   1      36.834  13.090  10.773  0.00  0.00     0.099 N 
HETATM    7  C   UNK N   1      36.351  13.284  12.129  0.00  0.00     0.298 C 
HETATM    8  C   UNK N   1      36.373  11.888  12.708  0.00  0.00     0.114 C 
HETATM    9  C   UNK N   1      37.647  11.299  12.137  0.00  0.00     0.057 C 
HETATM   10  C   UNK N   1      37.961  12.172  10.947  0.00  0.00     0.275 C 
BRANCH   8  11
HETATM   11  N   UNK N   1      36.269  11.877  14.162  0.00  0.00    -0.350 N 
HETATM   12  C   UNK N   1      35.129  11.999  14.901  0.00  0.00     0.259 C 
HETATM   13  O   UNK N   1      34.032  12.086  14.370  0.00  0.00    -0.267 OA
HETATM   14  H   UNK N   1      37.111  11.767  14.662  0.00  0.00     0.163 HD
BRANCH  12  15
HETATM   15  C   UNK N   1      35.219  12.096  16.362  0.00  0.00     0.074 A 
HETATM   16  C   UNK N   1      35.084  13.256  17.132  0.00  0.00     0.027 A 
HETATM   17  C   UNK N   1      35.159  13.003  18.533  0.00  0.00     0.033 A 
HETATM   18  C   UNK N   1      35.344  11.650  18.834  0.00  0.00     0.075 A 
HETATM   19  S   UNK N   1      35.416  10.825  17.405  0.00  0.00    -0.072 SA
HETATM   20 Cl   UNK N   1      35.450  10.943  20.431  0.00  0.00    -0.076 Cl
ENDBRANCH  12  15
ENDBRANCH   8  11
ENDBRANCH   5   6
ENDBRANCH   2   5
BRANCH   1  21
HETATM   21  C   UNK N   1      34.123  16.326   9.322  0.00  0.00     0.073 A 
HETATM   22  C   UNK N   1      34.006  17.563   8.668  0.00  0.00     0.145 A 
HETATM   23  F   UNK N   1      35.076  18.387   8.551  0.00  0.00    -0.204 F 
HETATM   24  C   UNK N   1      32.778  17.963   8.148  0.00  0.00     0.074 A 
HETATM   25  C   UNK N   1      31.642  17.143   8.263  0.00  0.00     0.045 A 
HETATM   26  C   UNK N   1      31.785  15.892   8.896  0.00  0.00     0.032 A 
HETATM   27  C   UNK N   1      33.016  15.486   9.419  0.00  0.00     0.035 A 
BRANCH  25  28
HETATM   28  N   UNK N   1      30.352  17.615   7.779  0.00  0.00    -0.290 N 
HETATM   29  C   UNK N   1      29.990  17.292   6.498  0.00  0.00     0.100 A 
HETATM   30  C   UNK N   1      28.787  17.731   5.948  0.00  0.00     0.018 A 
HETATM   31  C   UNK N   1      27.932  18.514   6.711  0.00  0.00     0.007 A 
HETATM   32  C   UNK N   1      28.283  18.849   8.015  0.00  0.00     0.075 A 
HETATM   33  C   UNK N   1      29.493  18.398   8.548  0.00  0.00     0.252 A 
HETATM   34  O   UNK N   1      29.776  18.711   9.692  0.00  0.00    -0.268 OA
ENDBRANCH  25  28
ENDBRANCH   1  21
TORSDOF 6
ENDMDL
MODEL 2
REMARK VINA RESULT:      -8.1      2.227      3.215
REMARK  6 active torsions:
REMARK  status: ('A' for Active; 'I' for Inactive)
REMARK    1  A    between atoms: C_4  and  N_5 
REMARK    2  A    between atoms: C_14  and  N_15 
REMARK       I    between atoms: N_15  and  C_16 
REMARK    3  A    between atoms: C_16  and  C_18 
REMARK    4  A    between atoms: C_18  and  N_19 
REMARK    5  A    between atoms: C_21  and  N_24 
REMARK       I    between atoms: N_24  and  C_25 
REMARK    6  A    between atoms: C_25  and  C_27 
ROOT
HETATM    1  N   UNK N   1      32.412  16.796   9.026  0.00  0.00    -0.323 N 
HETATM    2  C   UNK N   1      33.594  17.435   8.819  0.00  0.00     0.250 C 
HETATM    3  O   UNK N   1      33.667  18.371   8.036  0.00  0.00    -0.271 OA
HETATM    4  H   UNK N   1      32.341  16.130   9.747  0.00  0.00     0.169 HD
ENDROOT
BRANCH   2   5
HETATM    5  C   UNK N   1      34.850  16.907   9.450  0.00  0.00     0.375 C 
BRANCH   5   6
HETATM    6  N   UNK N   1      34.720  15.480   9.768  0.00  0.00     0.099 N 
HETATM    7  C   UNK N   1      34.558  15.287  11.198  0.00  0.00     0.298 C 
HETATM    8  C   UNK N   1      34.847  13.815  11.385  0.00  0.00     0.114 C 
HETATM    9  C   UNK N   1      35.998  13.567  10.430  0.00  0.00     0.057 C 
HETATM   10  C   UNK N   1      35.936  14.725   9.464  0.00  0.00     0.275 C 
BRANCH   8  11
HETATM   11  N   UNK N   1      35.095  13.459  12.776  0.00  0.00    -0.350 N 
HETATM   12  C   UNK N   1      34.864  12.248  13.363  0.00  0.00     0.259 C 
HETATM   13  O   UNK N   1      34.452  11.296  12.718  0.00  0.00    -0.267 OA
HETATM   14  H   UNK N   1      35.469  14.165  13.352  0.00  0.00     0.163 HD
BRANCH  12  15
HETATM   15  C   UNK N   1      35.051  12.097  14.810  0.00  0.00     0.074 A 
HETATM   16  C   UNK N   1      35.148  13.127  15.751  0.00  0.00     0.027 A 
HETATM   17  C   UNK N   1      35.260  12.647  17.089  0.00  0.00     0.033 A 
HETATM   18  C   UNK N   1      35.241  11.252  17.171  0.00  0.00     0.075 A 
HETATM   19  S   UNK N   1      35.098  10.662  15.635  0.00  0.00    -0.072 SA
HETATM   20 Cl   UNK N   1      35.321  10.293  18.632  0.00  0.00    -0.076 Cl
ENDBRANCH  12  15
ENDBRANCH   8  11
ENDBRANCH   5   6
ENDBRANCH   2   5
BRANCH   1  21
HETATM   21  C   UNK N   1      31.282  17.074   8.220  0.00  0.00     0.073 A 
HETATM   22  C   UNK N   1      31.166  16.481   6.953  0.00  0.00     0.145 A 
HETATM   23  F   UNK N   1      32.100  15.603   6.511  0.00  0.00    -0.204 F 
HETATM   24  C   UNK N   1      30.093  16.807   6.127  0.00  0.00     0.074 A 
HETATM   25  C   UNK N   1      29.112  17.724   6.544  0.00  0.00     0.045 A 
HETATM   26  C   UNK N   1      29.229  18.286   7.831  0.00  0.00     0.032 A 
HETATM   27  C   UNK N   1      30.304  17.962   8.663  0.00  0.00     0.035 A 
BRANCH  25  28
HETATM   28  N   UNK N   1      28.041  18.107   5.634  0.00  0.00    -0.290 N 
HETATM   29  C   UNK N   1      28.232  19.212   4.847  0.00  0.00     0.100 A 
HETATM   30  C   UNK N   1      27.245  19.664   3.974  0.00  0.00     0.018 A 
HETATM   31  C   UNK N   1      26.038  18.982   3.894  0.00  0.00     0.007 A 
HETATM   32  C   UNK N   1      25.829  17.856   4.683  0.00  0.00     0.075 A 
HETATM   33  C   UNK N   1      26.832  17.419   5.553  0.00  0.00     0.252 A 
HETATM   34  O   UNK N   1      26.618  16.431   6.235  0.00  0.00    -0.268 OA
ENDBRANCH  25  28
ENDBRANCH   1  21
TORSDOF 6
ENDMDL
MODEL 3
REMARK VINA RESULT:      -8.0      2.450      3.611
REMARK  6 active torsions:
REMARK  status: ('A' for Active; 'I' for Inactive)
REMARK    1  A    between atoms: C_4  and  N_5 
REMARK    2  A    between atoms: C_14  and  N_15 
REMARK       I    between atoms: N_15  and  C_16 
REMARK    3  A    between atoms: C_16  and  C_18 
REMARK    4  A    between atoms: C_18  and  N_19 
REMARK    5  A    between atoms: C_21  and  N_24 
REMARK       I    between atoms: N_24  and  C_25 
REMARK    6  A    between atoms: C_25  and  C_27 
ROOT
HETATM    1  N   UNK N   1      32.141  17.077   8.962  0.00  0.00    -0.323 N 
HETATM    2  C   UNK N   1      33.390  17.559   8.729  0.00  0.00     0.250 C 
HETATM    3  O   UNK N   1      33.588  18.372   7.837  0.00  0.00    -0.271 OA
HETATM    4  H   UNK N   1      31.976  16.523   9.758  0.00  0.00     0.169 HD
ENDROOT
BRANCH   2   5
HETATM    5  C   UNK N   1      34.562  16.993   9.478  0.00  0.00     0.375 C 
BRANCH   5   6
HETATM    6  N   UNK N   1      34.488  15.529   9.542  0.00  0.00     0.099 N 
HETATM    7  C   UNK N   1      34.232  15.088  10.902  0.00  0.00     0.298 C 
HETATM    8  C   UNK N   1      34.588  13.620  10.864  0.00  0.00     0.114 C 
HETATM    9  C   UNK N   1      35.818  13.587   9.980  0.00  0.00     0.057 C 
HETATM   10  C   UNK N   1      35.764  14.889   9.219  0.00  0.00     0.275 C 
BRANCH   8  11
HETATM   11  N   UNK N   1      34.751  13.042  12.192  0.00  0.00    -0.350 N 
HETATM   12  C   UNK N   1      35.639  13.436  13.152  0.00  0.00     0.259 C 
HETATM   13  O   UNK N   1      36.378  14.393  12.980  0.00  0.00    -0.267 OA
HETATM   14  H   UNK N   1      34.158  12.291  12.421  0.00  0.00     0.163 HD
BRANCH  12  15
HETATM   15  C   UNK N   1      35.758  12.660  14.391  0.00  0.00     0.074 A 
HETATM   16  C   UNK N   1      36.683  11.645  14.654  0.00  0.00     0.027 A 
HETATM   17  C   UNK N   1      36.580  11.131  15.981  0.00  0.00     0.033 A 
HETATM   18  C   UNK N   1      35.581  11.758  16.731  0.00  0.00     0.075 A 
HETATM   19  S   UNK N   1      34.867  12.892  15.767  0.00  0.00    -0.072 SA
HETATM   20 Cl   UNK N   1      35.174  11.431  18.401  0.00  0.00    -0.076 Cl
ENDBRANCH  12  15
ENDBRANCH   8  11
ENDBRANCH   5   6
ENDBRANCH   2   5
BRANCH   1  21
HETATM   21  C   UNK N   1      31.073  17.360   8.077  0.00  0.00     0.073 A 
HETATM   22  C   UNK N   1      30.026  18.198   8.491  0.00  0.00     0.145 A 
HETATM   23  F   UNK N   1      30.050  18.782   9.714  0.00  0.00    -0.204 F 
HETATM   24  C   UNK N   1      28.938  18.422   7.651  0.00  0.00     0.074 A 
HETATM   25  C   UNK N   1      28.871  17.822   6.380  0.00  0.00     0.045 A 
HETATM   26  C   UNK N   1      29.946  17.009   5.970  0.00  0.00     0.032 A 
HETATM   27  C   UNK N   1      31.039  16.781   6.809  0.00  0.00     0.035 A 
BRANCH  25  28
HETATM   28  N   UNK N   1      27.689  18.009   5.550  0.00  0.00    -0.290 N 
HETATM   29  C   UNK N   1      26.742  17.019   5.550  0.00  0.00     0.100 A 
HETATM   30  C   UNK N   1      25.598  17.106   4.759  0.00  0.00     0.018 A 
HETATM   31  C   UNK N   1      25.408  18.219   3.951  0.00  0.00     0.007 A 
HETATM   32  C   UNK N   1      26.358  19.234   3.942  0.00  0.00     0.075 A 
HETATM   33  C   UNK N   1      27.498  19.128   4.743  0.00  0.00     0.252 A 
HETATM   34  O   UNK N   1      28.315  20.033   4.711  0.00  0.00    -0.268 OA
ENDBRANCH  25  28
ENDBRANCH   1  21
TORSDOF 6
ENDMDL
MODEL 4
REMARK VINA RESULT:      -8.0      2.057      2.612
REMARK  6 active torsions:
REMARK  status: ('A' for Active; 'I' for Inactive)
REMARK    1  A    between atoms: C_4  and  N_5 
REMARK    2  A    between atoms: C_14  and  N_15 
REMARK       I    between atoms: N_15  and  C_16 
REMARK    3  A    between atoms: C_16  and  C_18 
REMARK    4  A    between atoms: C_18  and  N_19 
REMARK    5  A    between atoms: C_21  and  N_24 
REMARK       I    between atoms: N_24  and  C_25 
REMARK    6  A    between atoms: C_25  and  C_27 
ROOT
HETATM    1  N   UNK N   1      34.498  16.637  10.004  0.00  0.00    -0.323 N 
HETATM    2  C   UNK N   1      35.553  15.781  10.000  0.00  0.00     0.250 C 
HETATM    3  O   UNK N   1      35.860  15.173   8.984  0.00  0.00    -0.271 OA
HETATM    4  H   UNK N   1      34.341  17.210  10.789  0.00  0.00     0.169 HD
ENDROOT
BRANCH   2   5
HETATM    5  C   UNK N   1      36.268  15.470  11.284  0.00  0.00     0.375 C 
BRANCH   5   6
HETATM    6  N   UNK N   1      36.034  14.082  11.695  0.00  0.00     0.099 N 
HETATM    7  C   UNK N   1      35.722  14.013  13.112  0.00  0.00     0.298 C 
HETATM    8  C   UNK N   1      35.914  12.550  13.439  0.00  0.00     0.114 C 
HETATM    9  C   UNK N   1      37.138  12.174  12.629  0.00  0.00     0.057 C 
HETATM   10  C   UNK N   1      37.233  13.251  11.576  0.00  0.00     0.275 C 
BRANCH   8  11
HETATM   11  N   UNK N   1      36.004  12.297  14.871  0.00  0.00    -0.350 N 
HETATM   12  C   UNK N   1      34.977  12.314  15.771  0.00  0.00     0.259 C 
HETATM   13  O   UNK N   1      33.824  12.508  15.417  0.00  0.00    -0.267 OA
HETATM   14  H   UNK N   1      36.899  12.090  15.227  0.00  0.00     0.163 HD
BRANCH  12  15
HETATM   15  C   UNK N   1      35.264  12.163  17.201  0.00  0.00     0.074 A 
HETATM   16  C   UNK N   1      35.113  13.139  18.191  0.00  0.00     0.027 A 
HETATM   17  C   UNK N   1      35.415  12.656  19.498  0.00  0.00     0.033 A 
HETATM   18  C   UNK N   1      35.791  11.309  19.507  0.00  0.00     0.075 A 
HETATM   19  S   UNK N   1      35.748  10.766  17.949  0.00  0.00    -0.072 SA
HETATM   20 Cl   UNK N   1      36.202  10.353  20.913  0.00  0.00    -0.076 Cl
ENDBRANCH  12  15
ENDBRANCH   8  11
ENDBRANCH   5   6
ENDBRANCH   2   5
BRANCH   1  21
HETATM   21  C   UNK N   1      33.621  16.718   8.895  0.00  0.00     0.073 A 
HETATM   22  C   UNK N   1      32.526  15.845   8.806  0.00  0.00     0.145 A 
HETATM   23  F   UNK N   1      32.268  14.956   9.796  0.00  0.00    -0.204 F 
HETATM   24  C   UNK N   1      31.703  15.872   7.683  0.00  0.00     0.074 A 
HETATM   25  C   UNK N   1      31.948  16.769   6.629  0.00  0.00     0.045 A 
HETATM   26  C   UNK N   1      33.033  17.659   6.750  0.00  0.00     0.032 A 
HETATM   27  C   UNK N   1      33.862  17.636   7.875  0.00  0.00     0.035 A 
BRANCH  25  28
HETATM   28  N   UNK N   1      31.119  16.728   5.431  0.00  0.00    -0.290 N 
HETATM   29  C   UNK N   1      29.920  17.389   5.458  0.00  0.00     0.100 A 
HETATM   30  C   UNK N   1      29.054  17.372   4.366  0.00  0.00     0.018 A 
HETATM   31  C   UNK N   1      29.410  16.671   3.222  0.00  0.00     0.007 A 
HETATM   32  C   UNK N   1      30.626  15.997   3.177  0.00  0.00     0.075 A 
HETATM   33  C   UNK N   1      31.480  16.026   4.283  0.00  0.00     0.252 A 
HETATM   34  O   UNK N   1      32.537  15.423   4.215  0.00  0.00    -0.268 OA
ENDBRANCH  25  28
ENDBRANCH   1  21
TORSDOF 6
ENDMDL
MODEL 5
REMARK VINA RESULT:      -7.9      4.196      9.486
REMARK  6 active torsions:
REMARK  status: ('A' for Active; 'I' for Inactive)
REMARK    1  A    between atoms: C_4  and  N_5 
REMARK    2  A    between atoms: C_14  and  N_15 
REMARK       I    between atoms: N_15  and  C_16 
REMARK    3  A    between atoms: C_16  and  C_18 
REMARK    4  A    between atoms: C_18  and  N_19 
REMARK    5  A    between atoms: C_21  and  N_24 
REMARK       I    between atoms: N_24  and  C_25 
REMARK    6  A    between atoms: C_25  and  C_27 
ROOT
HETATM    1  N   UNK N   1      36.757  11.968  10.441  0.00  0.00    -0.323 N 
HETATM    2  C   UNK N   1      37.605  12.671   9.645  0.00  0.00     0.250 C 
HETATM    3  O   UNK N   1      38.323  13.542  10.115  0.00  0.00    -0.271 OA
HETATM    4  H   UNK N   1      36.280  11.189  10.073  0.00  0.00     0.169 HD
ENDROOT
BRANCH   2   5
HETATM    5  C   UNK N   1      37.567  12.476   8.156  0.00  0.00     0.375 C 
BRANCH   5   6
HETATM    6  N   UNK N   1      37.217  13.725   7.471  0.00  0.00     0.099 N 
HETATM    7  C   UNK N   1      35.942  14.232   7.949  0.00  0.00     0.298 C 
HETATM    8  C   UNK N   1      35.553  15.242   6.894  0.00  0.00     0.114 C 
HETATM    9  C   UNK N   1      35.983  14.574   5.603  0.00  0.00     0.057 C 
HETATM   10  C   UNK N   1      36.984  13.532   6.039  0.00  0.00     0.275 C 
BRANCH   8  11
HETATM   11  N   UNK N   1      34.148  15.624   6.968  0.00  0.00    -0.350 N 
HETATM   12  C   UNK N   1      33.629  16.870   6.765  0.00  0.00     0.259 C 
HETATM   13  O   UNK N   1      34.337  17.810   6.438  0.00  0.00    -0.267 OA
HETATM   14  H   UNK N   1      33.508  14.909   7.186  0.00  0.00     0.163 HD
BRANCH  12  15
HETATM   15  C   UNK N   1      32.201  17.108   7.005  0.00  0.00     0.074 A 
HETATM   16  C   UNK N   1      31.151  16.852   6.117  0.00  0.00     0.027 A 
HETATM   17  C   UNK N   1      29.870  17.132   6.678  0.00  0.00     0.033 A 
HETATM   18  C   UNK N   1      29.941  17.595   7.995  0.00  0.00     0.075 A 
HETATM   19  S   UNK N   1      31.536  17.652   8.420  0.00  0.00    -0.072 SA
HETATM   20 Cl   UNK N   1      28.591  18.011   9.027  0.00  0.00    -0.076 Cl
ENDBRANCH  12  15
ENDBRANCH   8  11
ENDBRANCH   5   6
ENDBRANCH   2   5
BRANCH   1  21
HETATM   21  C   UNK N   1      36.550  12.337  11.792  0.00  0.00     0.073 A 
HETATM   22  C   UNK N   1      35.587  13.307  12.111  0.00  0.00     0.145 A 
HETATM   23  F   UNK N   1      34.815  13.859  11.143  0.00  0.00    -0.204 F 
HETATM   24  C   UNK N   1      35.430  13.726  13.429  0.00  0.00     0.074 A 
HETATM   25  C   UNK N   1      36.223  13.187  14.458  0.00  0.00     0.045 A 
HETATM   26  C   UNK N   1      37.163  12.193  14.124  0.00  0.00     0.032 A 
HETATM   27  C   UNK N   1      37.324  11.769  12.802  0.00  0.00     0.035 A 
BRANCH  25  28
HETATM   28  N   UNK N   1      36.093  13.695  15.817  0.00  0.00    -0.290 N 
HETATM   29  C   UNK N   1      35.237  13.044  16.667  0.00  0.00     0.100 A 
HETATM   30  C   UNK N   1      35.032  13.484  17.972  0.00  0.00     0.018 A 
HETATM   31  C   UNK N   1      35.708  14.608  18.429  0.00  0.00     0.007 A 
HETATM   32  C   UNK N   1      36.583  15.278  17.582  0.00  0.00     0.075 A 
HETATM   33  C   UNK N   1      36.775  14.820  16.276  0.00  0.00     0.252 A 
HETATM   34  O   UNK N   1      37.546  15.431  15.554  0.00  0.00    -0.268 OA
ENDBRANCH  25  28
ENDBRANCH   1  21
TORSDOF 6
ENDMDL
MODEL 6
REMARK VINA RESULT:      -7.7      5.027     11.093
REMARK  6 active torsions:
REMARK  status: ('A' for Active; 'I' for Inactive)
REMARK    1  A    between atoms: C_4  and  N_5 
REMARK    2  A    between atoms: C_14  and  N_15 
REMARK       I    between atoms: N_15  and  C_16 
REMARK    3  A    between atoms: C_16  and  C_18 
REMARK    4  A    between atoms: C_18  and  N_19 
REMARK    5  A    between atoms: C_21  and  N_24 
REMARK       I    between atoms: N_24  and  C_25 
REMARK    6  A    between atoms: C_25  and  C_27 
ROOT
HETATM    1  N   UNK N   1      34.460  12.680  12.112  0.00  0.00    -0.323 N 
HETATM    2  C   UNK N   1      35.224  12.338  11.042  0.00  0.00     0.250 C 
HETATM    3  O   UNK N   1      36.174  11.579  11.171  0.00  0.00    -0.271 OA
HETATM    4  H   UNK N   1      33.629  13.189  11.972  0.00  0.00     0.169 HD
ENDROOT
BRANCH   2   5
HETATM    5  C   UNK N   1      34.988  12.998   9.714  0.00  0.00     0.375 C 
BRANCH   5   6
HETATM    6  N   UNK N   1      34.267  14.265   9.875  0.00  0.00     0.099 N 
HETATM    7  C   UNK N   1      33.171  14.356   8.927  0.00  0.00     0.298 C 
HETATM    8  C   UNK N   1      32.816  15.824   8.946  0.00  0.00     0.114 C 
HETATM    9  C   UNK N   1      34.167  16.504   9.034  0.00  0.00     0.057 C 
HETATM   10  C   UNK N   1      35.093  15.427   9.543  0.00  0.00     0.275 C 
BRANCH   8  11
HETATM   11  N   UNK N   1      31.983  16.220   7.817  0.00  0.00    -0.350 N 
HETATM   12  C   UNK N   1      30.986  17.152   7.824  0.00  0.00     0.259 C 
HETATM   13  O   UNK N   1      30.729  17.802   8.826  0.00  0.00    -0.267 OA
HETATM   14  H   UNK N   1      32.160  15.769   6.960  0.00  0.00     0.163 HD
BRANCH  12  15
HETATM   15  C   UNK N   1      30.159  17.337   6.627  0.00  0.00     0.074 A 
HETATM   16  C   UNK N   1      30.554  17.136   5.300  0.00  0.00     0.027 A 
HETATM   17  C   UNK N   1      29.493  17.339   4.369  0.00  0.00     0.033 A 
HETATM   18  C   UNK N   1      28.287  17.688   4.984  0.00  0.00     0.075 A 
HETATM   19  S   UNK N   1      28.553  17.743   6.612  0.00  0.00    -0.072 SA
HETATM   20 Cl   UNK N   1      26.758  17.984   4.186  0.00  0.00    -0.076 Cl
ENDBRANCH  12  15
ENDBRANCH   8  11
ENDBRANCH   5   6
ENDBRANCH   2   5
BRANCH   1  21
HETATM   21  C   UNK N   1      34.841  12.317  13.426  0.00  0.00     0.073 A 
HETATM   22  C   UNK N   1      34.221  11.227  14.057  0.00  0.00     0.145 A 
HETATM   23  F   UNK N   1      33.295  10.485  13.403  0.00  0.00    -0.204 F 
HETATM   24  C   UNK N   1      34.541  10.910  15.374  0.00  0.00     0.074 A 
HETATM   25  C   UNK N   1      35.486  11.666  16.091  0.00  0.00     0.045 A 
HETATM   26  C   UNK N   1      36.120  12.738  15.432  0.00  0.00     0.032 A 
HETATM   27  C   UNK N   1      35.803  13.059  14.109  0.00  0.00     0.035 A 
BRANCH  25  28
HETATM   28  N   UNK N   1      35.749  11.363  17.491  0.00  0.00    -0.290 N 
HETATM   29  C   UNK N   1      36.374  10.179  17.785  0.00  0.00     0.100 A 
HETATM   30  C   UNK N   1      36.633   9.799  19.100  0.00  0.00     0.018 A 
HETATM   31  C   UNK N   1      36.252  10.636  20.141  0.00  0.00     0.007 A 
HETATM   32  C   UNK N   1      35.620  11.843  19.860  0.00  0.00     0.075 A 
HETATM   33  C   UNK N   1      35.369  12.205  18.534  0.00  0.00     0.252 A 
HETATM   34  O   UNK N   1      34.810  13.267  18.319  0.00  0.00    -0.268 OA
ENDBRANCH  25  28
ENDBRANCH   1  21
TORSDOF 6
ENDMDL
MODEL 7
REMARK VINA RESULT:      -7.6      4.492      7.408
REMARK  6 active torsions:
REMARK  status: ('A' for Active; 'I' for Inactive)
REMARK    1  A    between atoms: C_4  and  N_5 
REMARK    2  A    between atoms: C_14  and  N_15 
REMARK       I    between atoms: N_15  and  C_16 
REMARK    3  A    between atoms: C_16  and  C_18 
REMARK    4  A    between atoms: C_18  and  N_19 
REMARK    5  A    between atoms: C_21  and  N_24 
REMARK       I    between atoms: N_24  and  C_25 
REMARK    6  A    between atoms: C_25  and  C_27 
ROOT
HETATM    1  N   UNK N   1      28.913  18.271   5.581  0.00  0.00    -0.323 N 
HETATM    2  C   UNK N   1      29.073  17.754   6.828  0.00  0.00     0.250 C 
HETATM    3  O   UNK N   1      28.105  17.389   7.480  0.00  0.00    -0.271 OA
HETATM    4  H   UNK N   1      29.705  18.443   5.022  0.00  0.00     0.169 HD
ENDROOT
BRANCH   2   5
HETATM    5  C   UNK N   1      30.431  17.753   7.469  0.00  0.00     0.375 C 
BRANCH   5   6
HETATM    6  N   UNK N   1      30.936  16.385   7.632  0.00  0.00     0.099 N 
HETATM    7  C   UNK N   1      31.563  16.221   8.931  0.00  0.00     0.298 C 
HETATM    8  C   UNK N   1      32.358  14.946   8.775  0.00  0.00     0.114 C 
HETATM    9  C   UNK N   1      32.907  15.053   7.367  0.00  0.00     0.057 C 
HETATM   10  C   UNK N   1      32.017  16.071   6.697  0.00  0.00     0.275 C 
BRANCH   8  11
HETATM   11  N   UNK N   1      33.351  14.765   9.826  0.00  0.00    -0.350 N 
HETATM   12  C   UNK N   1      34.058  13.629  10.097  0.00  0.00     0.259 C 
HETATM   13  O   UNK N   1      33.941  12.628   9.407  0.00  0.00    -0.267 OA
HETATM   14  H   UNK N   1      33.532  15.545  10.400  0.00  0.00     0.163 HD
BRANCH  12  15
HETATM   15  C   UNK N   1      34.928  13.581  11.277  0.00  0.00     0.074 A 
HETATM   16  C   UNK N   1      35.472  14.674  11.958  0.00  0.00     0.027 A 
HETATM   17  C   UNK N   1      36.224  14.293  13.109  0.00  0.00     0.033 A 
HETATM   18  C   UNK N   1      36.248  12.910  13.310  0.00  0.00     0.075 A 
HETATM   19  S   UNK N   1      35.373  12.212  12.096  0.00  0.00    -0.072 SA
HETATM   20 Cl   UNK N   1      37.032  12.062  14.624  0.00  0.00    -0.076 Cl
ENDBRANCH  12  15
ENDBRANCH   8  11
ENDBRANCH   5   6
ENDBRANCH   2   5
BRANCH   1  21
HETATM   21  C   UNK N   1      27.625  18.566   5.074  0.00  0.00     0.073 A 
HETATM   22  C   UNK N   1      26.989  19.763   5.438  0.00  0.00     0.145 A 
HETATM   23  F   UNK N   1      27.615  20.666   6.232  0.00  0.00    -0.204 F 
HETATM   24  C   UNK N   1      25.693  20.025   4.999  0.00  0.00     0.074 A 
HETATM   25  C   UNK N   1      25.005  19.106   4.187  0.00  0.00     0.045 A 
HETATM   26  C   UNK N   1      25.672  17.924   3.807  0.00  0.00     0.032 A 
HETATM   27  C   UNK N   1      26.972  17.657   4.244  0.00  0.00     0.035 A 
BRANCH  25  28
HETATM   28  N   UNK N   1      23.625  19.366   3.804  0.00  0.00    -0.290 N 
HETATM   29  C   UNK N   1      22.643  18.609   4.387  0.00  0.00     0.100 A 
HETATM   30  C   UNK N   1      21.301  18.772   4.052  0.00  0.00     0.018 A 
HETATM   31  C   UNK N   1      20.943  19.723   3.106  0.00  0.00     0.007 A 
HETATM   32  C   UNK N   1      21.926  20.503   2.506  0.00  0.00     0.075 A 
HETATM   33  C   UNK N   1      23.267  20.323   2.856  0.00  0.00     0.252 A 
HETATM   34  O   UNK N   1      24.107  21.019   2.311  0.00  0.00    -0.268 OA
ENDBRANCH  25  28
ENDBRANCH   1  21
TORSDOF 6
ENDMDL
MODEL 8
REMARK VINA RESULT:      -7.6      5.184     11.701
REMARK  6 active torsions:
REMARK  status: ('A' for Active; 'I' for Inactive)
REMARK    1  A    between atoms: C_4  and  N_5 
REMARK    2  A    between atoms: C_14  and  N_15 
REMARK       I    between atoms: N_15  and  C_16 
REMARK    3  A    between atoms: C_16  and  C_18 
REMARK    4  A    between atoms: C_18  and  N_19 
REMARK    5  A    between atoms: C_21  and  N_24 
REMARK       I    between atoms: N_24  and  C_25 
REMARK    6  A    between atoms: C_25  and  C_27 
ROOT
HETATM    1  N   UNK N   1      36.293  12.930  14.791  0.00  0.00    -0.323 N 
HETATM    2  C   UNK N   1      35.430  12.797  13.749  0.00  0.00     0.250 C 
HETATM    3  O   UNK N   1      34.352  12.240  13.900  0.00  0.00    -0.271 OA
HETATM    4  H   UNK N   1      37.097  13.488  14.687  0.00  0.00     0.169 HD
ENDROOT
BRANCH   2   5
HETATM    5  C   UNK N   1      35.853  13.215  12.370  0.00  0.00     0.375 C 
BRANCH   5   6
HETATM    6  N   UNK N   1      35.077  14.371  11.909  0.00  0.00     0.099 N 
HETATM    7  C   UNK N   1      34.654  14.188  10.532  0.00  0.00     0.298 C 
HETATM    8  C   UNK N   1      34.250  15.580  10.104  0.00  0.00     0.114 C 
HETATM    9  C   UNK N   1      35.299  16.458  10.756  0.00  0.00     0.057 C 
HETATM   10  C   UNK N   1      35.877  15.596  11.852  0.00  0.00     0.275 C 
BRANCH   8  11
HETATM   11  N   UNK N   1      34.125  15.714   8.658  0.00  0.00    -0.350 N 
HETATM   12  C   UNK N   1      33.383  16.640   7.984  0.00  0.00     0.259 C 
HETATM   13  O   UNK N   1      32.765  17.513   8.575  0.00  0.00    -0.267 OA
HETATM   14  H   UNK N   1      34.631  15.070   8.111  0.00  0.00     0.163 HD
BRANCH  12  15
HETATM   15  C   UNK N   1      33.268  16.554   6.525  0.00  0.00     0.074 A 
HETATM   16  C   UNK N   1      32.653  17.482   5.679  0.00  0.00     0.027 A 
HETATM   17  C   UNK N   1      32.768  17.138   4.300  0.00  0.00     0.033 A 
HETATM   18  C   UNK N   1      33.476  15.951   4.092  0.00  0.00     0.075 A 
HETATM   19  S   UNK N   1      33.923  15.369   5.571  0.00  0.00    -0.072 SA
HETATM   20 Cl   UNK N   1      33.854  15.221   2.547  0.00  0.00    -0.076 Cl
ENDBRANCH  12  15
ENDBRANCH   8  11
ENDBRANCH   5   6
ENDBRANCH   2   5
BRANCH   1  21
HETATM   21  C   UNK N   1      36.052  12.279  16.025  0.00  0.00     0.073 A 
HETATM   22  C   UNK N   1      36.449  10.944  16.198  0.00  0.00     0.145 A 
HETATM   23  F   UNK N   1      37.108  10.284  15.214  0.00  0.00    -0.204 F 
HETATM   24  C   UNK N   1      36.151  10.276  17.383  0.00  0.00     0.074 A 
HETATM   25  C   UNK N   1      35.456  10.922  18.421  0.00  0.00     0.045 A 
HETATM   26  C   UNK N   1      35.092  12.271  18.241  0.00  0.00     0.032 A 
HETATM   27  C   UNK N   1      35.390  12.945  17.054  0.00  0.00     0.035 A 
BRANCH  25  28
HETATM   28  N   UNK N   1      35.088  10.182  19.621  0.00  0.00    -0.290 N 
HETATM   29  C   UNK N   1      33.923   9.461  19.598  0.00  0.00     0.100 A 
HETATM   30  C   UNK N   1      33.483   8.751  20.713  0.00  0.00     0.018 A 
HETATM   31  C   UNK N   1      34.239   8.771  21.878  0.00  0.00     0.007 A 
HETATM   32  C   UNK N   1      35.426   9.494  21.917  0.00  0.00     0.075 A 
HETATM   33  C   UNK N   1      35.850  10.199  20.787  0.00  0.00     0.252 A 
HETATM   34  O   UNK N   1      36.893  10.828  20.853  0.00  0.00    -0.268 OA
ENDBRANCH  25  28
ENDBRANCH   1  21
TORSDOF 6
ENDMDL
MODEL 9
REMARK VINA RESULT:      -7.6      5.114     11.787
REMARK  6 active torsions:
REMARK  status: ('A' for Active; 'I' for Inactive)
REMARK    1  A    between atoms: C_4  and  N_5 
REMARK    2  A    between atoms: C_14  and  N_15 
REMARK       I    between atoms: N_15  and  C_16 
REMARK    3  A    between atoms: C_16  and  C_18 
REMARK    4  A    between atoms: C_18  and  N_19 
REMARK    5  A    between atoms: C_21  and  N_24 
REMARK       I    between atoms: N_24  and  C_25 
REMARK    6  A    between atoms: C_25  and  C_27 
ROOT
HETATM    1  N   UNK N   1      35.720  11.044  15.704  0.00  0.00    -0.323 N 
HETATM    2  C   UNK N   1      34.885  11.575  14.772  0.00  0.00     0.250 C 
HETATM    3  O   UNK N   1      33.790  12.012  15.094  0.00  0.00    -0.271 OA
HETATM    4  H   UNK N   1      36.644  10.813  15.453  0.00  0.00     0.169 HD
ENDROOT
BRANCH   2   5
HETATM    5  C   UNK N   1      35.248  11.505  13.317  0.00  0.00     0.375 C 
BRANCH   5   6
HETATM    6  N   UNK N   1      35.818  12.775  12.854  0.00  0.00     0.099 N 
HETATM    7  C   UNK N   1      34.893  13.459  11.968  0.00  0.00     0.298 C 
HETATM    8  C   UNK N   1      35.764  14.490  11.287  0.00  0.00     0.114 C 
HETATM    9  C   UNK N   1      37.061  13.744  11.052  0.00  0.00     0.057 C 
HETATM   10  C   UNK N   1      37.004  12.585  12.017  0.00  0.00     0.275 C 
BRANCH   8  11
HETATM   11  N   UNK N   1      35.141  15.061  10.099  0.00  0.00    -0.350 N 
HETATM   12  C   UNK N   1      35.101  16.380   9.750  0.00  0.00     0.259 C 
HETATM   13  O   UNK N   1      35.659  17.233  10.423  0.00  0.00    -0.267 OA
HETATM   14  H   UNK N   1      34.705  14.428   9.483  0.00  0.00     0.163 HD
BRANCH  12  15
HETATM   15  C   UNK N   1      34.320  16.797   8.581  0.00  0.00     0.074 A 
HETATM   16  C   UNK N   1      33.291  17.745   8.559  0.00  0.00     0.027 A 
HETATM   17  C   UNK N   1      32.775  17.973   7.250  0.00  0.00     0.033 A 
HETATM   18  C   UNK N   1      33.412  17.205   6.271  0.00  0.00     0.075 A 
HETATM   19  S   UNK N   1      34.559  16.286   7.024  0.00  0.00    -0.072 SA
HETATM   20 Cl   UNK N   1      33.085  17.228   4.553  0.00  0.00    -0.076 Cl
ENDBRANCH  12  15
ENDBRANCH   8  11
ENDBRANCH   5   6
ENDBRANCH   2   5
BRANCH   1  21
HETATM   21  C   UNK N   1      35.283  10.819  17.031  0.00  0.00     0.073 A 
HETATM   22  C   UNK N   1      35.420  11.832  17.993  0.00  0.00     0.145 A 
HETATM   23  F   UNK N   1      35.920  13.045  17.654  0.00  0.00    -0.204 F 
HETATM   24  C   UNK N   1      35.057  11.591  19.316  0.00  0.00     0.074 A 
HETATM   25  C   UNK N   1      34.548  10.341  19.710  0.00  0.00     0.045 A 
HETATM   26  C   UNK N   1      34.390   9.346  18.725  0.00  0.00     0.032 A 
HETATM   27  C   UNK N   1      34.752   9.583  17.396  0.00  0.00     0.035 A 
BRANCH  25  28
HETATM   28  N   UNK N   1      34.248  10.087  21.112  0.00  0.00    -0.290 N 
HETATM   29  C   UNK N   1      32.999  10.418  21.571  0.00  0.00     0.100 A 
HETATM   30  C   UNK N   1      32.642  10.238  22.905  0.00  0.00     0.018 A 
HETATM   31  C   UNK N   1      33.568   9.710  23.795  0.00  0.00     0.007 A 
HETATM   32  C   UNK N   1      34.838   9.365  23.346  0.00  0.00     0.075 A 
HETATM   33  C   UNK N   1      35.176   9.554  22.003  0.00  0.00     0.252 A 
HETATM   34  O   UNK N   1      36.299   9.246  21.639  0.00  0.00    -0.268 OA
ENDBRANCH  25  28
ENDBRANCH   1  21
TORSDOF 6
ENDMDL
