MODEL 1
REMARK VINA RESULT:      -5.1      0.000      0.000
REMARK  17 active torsions:
REMARK  status: ('A' for Active; 'I' for Inactive)
REMARK    1  A    between atoms: C_2  and  C_3 
REMARK    2  A    between atoms: C_3  and  C_4 
REMARK    3  A    between atoms: C_4  and  C_5 
REMARK    4  A    between atoms: C_5  and  C_6 
REMARK    5  A    between atoms: C_6  and  C_7 
REMARK    6  A    between atoms: C_7  and  C_8 
REMARK    7  A    between atoms: C_8  and  C_9 
REMARK    8  A    between atoms: C_9  and  C_10 
REMARK    9  A    between atoms: C_10  and  C_11 
REMARK   10  A    between atoms: C_11  and  C_12 
REMARK   11  A    between atoms: C_12  and  P_13 
REMARK   12  A    between atoms: C_12  and  P_17 
REMARK   13  A    between atoms: C_12  and  O_21 
REMARK   14  A    between atoms: P_13  and  O_14 
REMARK   15  A    between atoms: P_13  and  O_16 
REMARK   16  A    between atoms: P_17  and  O_19 
REMARK   17  A    between atoms: P_17  and  O_20 
ROOT
HETATM    1  C   UNK N   1      35.899  14.750  11.262  0.00  0.00     0.252 C 
ENDROOT
BRANCH   1   2
HETATM    2  C   UNK N   1      35.444  14.152  12.595  0.00  0.00     0.063 C 
BRANCH   2   3
HETATM    3  C   UNK N   1      36.394  14.460  13.748  0.00  0.00     0.004 C 
BRANCH   3   4
HETATM    4  C   UNK N   1      36.567  13.252  14.652  0.00  0.00     0.000 C 
BRANCH   4   5
HETATM    5  C   UNK N   1      36.243  13.597  16.096  0.00  0.00     0.000 C 
BRANCH   5   6
HETATM    6  C   UNK N   1      34.998  12.857  16.551  0.00  0.00     0.000 C 
BRANCH   6   7
HETATM    7  C   UNK N   1      35.266  12.087  17.828  0.00  0.00     0.000 C 
BRANCH   7   8
HETATM    8  C   UNK N   1      35.389  10.605  17.534  0.00  0.00     0.000 C 
BRANCH   8   9
HETATM    9  C   UNK N   1      34.532  10.238  16.336  0.00  0.00     0.000 C 
BRANCH   9  10
HETATM   10  C   UNK N   1      35.335   9.388  15.368  0.00  0.00    -0.000 C 
BRANCH  10  11
HETATM   11  C   UNK N   1      35.053   9.818  13.939  0.00  0.00    -0.005 C 
HETATM   12  C   UNK N   1      33.787  10.645  13.897  0.00  0.00     0.005 C 
ENDBRANCH  10  11
ENDBRANCH   9  10
ENDBRANCH   8   9
ENDBRANCH   7   8
ENDBRANCH   6   7
ENDBRANCH   5   6
ENDBRANCH   4   5
ENDBRANCH   3   4
ENDBRANCH   2   3
ENDBRANCH   1   2
BRANCH   1  13
HETATM   13  P   UNK N   1      36.828  13.476  10.255  0.00  0.00     0.283 P 
HETATM   14  O   UNK N   1      38.193  13.161  10.923  0.00  0.00    -0.651 OA
BRANCH  13  15
HETATM   15  O   UNK N   1      36.066  11.923  10.108  0.00  0.00    -0.327 OA
HETATM   16  H   UNK N   1      35.943  10.989   9.877  0.00  0.00     0.220 HD
ENDBRANCH  13  15
BRANCH  13  17
HETATM   17  O   UNK N   1      37.257  13.981   8.651  0.00  0.00    -0.327 OA
HETATM   18  H   UNK N   1      37.777  13.394   8.080  0.00  0.00     0.220 HD
ENDBRANCH  13  17
ENDBRANCH   1  13
BRANCH   1  19
HETATM   19  P   UNK N   1      34.439  15.404  10.295  0.00  0.00     0.283 P 
HETATM   20  O   UNK N   1      34.389  14.821   8.859  0.00  0.00    -0.651 OA
BRANCH  19  21
HETATM   21  O   UNK N   1      34.436  17.123  10.058  0.00  0.00    -0.327 OA
HETATM   22  H   UNK N   1      35.262  17.625  10.133  0.00  0.00     0.220 HD
ENDBRANCH  19  21
BRANCH  19  23
HETATM   23  O   UNK N   1      32.896  14.995  10.976  0.00  0.00    -0.327 OA
HETATM   24  H   UNK N   1      32.693  14.126  11.354  0.00  0.00     0.220 HD
ENDBRANCH  19  23
ENDBRANCH   1  19
BRANCH   1  25
HETATM   25  O   UNK N   1      36.757  15.813  11.525  0.00  0.00    -0.368 OA
HETATM   26  H   UNK N   1      37.411  16.527  11.459  0.00  0.00     0.212 HD
ENDBRANCH   1  25
TORSDOF 17
ENDMDL
MODEL 2
REMARK VINA RESULT:      -5.1      2.563      4.147
REMARK  17 active torsions:
REMARK  status: ('A' for Active; 'I' for Inactive)
REMARK    1  A    between atoms: C_2  and  C_3 
REMARK    2  A    between atoms: C_3  and  C_4 
REMARK    3  A    between atoms: C_4  and  C_5 
REMARK    4  A    between atoms: C_5  and  C_6 
REMARK    5  A    between atoms: C_6  and  C_7 
REMARK    6  A    between atoms: C_7  and  C_8 
REMARK    7  A    between atoms: C_8  and  C_9 
REMARK    8  A    between atoms: C_9  and  C_10 
REMARK    9  A    between atoms: C_10  and  C_11 
REMARK   10  A    between atoms: C_11  and  C_12 
REMARK   11  A    between atoms: C_12  and  P_13 
REMARK   12  A    between atoms: C_12  and  P_17 
REMARK   13  A    between atoms: C_12  and  O_21 
REMARK   14  A    between atoms: P_13  and  O_14 
REMARK   15  A    between atoms: P_13  and  O_16 
REMARK   16  A    between atoms: P_17  and  O_19 
REMARK   17  A    between atoms: P_17  and  O_20 
ROOT
HETATM    1  C   UNK N   1      34.405  16.264   8.843  0.00  0.00     0.252 C 
ENDROOT
BRANCH   1   2
HETATM    2  C   UNK N   1      35.069  16.404  10.215  0.00  0.00     0.063 C 
BRANCH   2   3
HETATM    3  C   UNK N   1      35.803  15.143  10.660  0.00  0.00     0.004 C 
BRANCH   3   4
HETATM    4  C   UNK N   1      36.062  15.161  12.157  0.00  0.00     0.000 C 
BRANCH   4   5
HETATM    5  C   UNK N   1      35.495  13.918  12.824  0.00  0.00     0.000 C 
BRANCH   5   6
HETATM    6  C   UNK N   1      36.616  13.045  13.358  0.00  0.00     0.000 C 
BRANCH   6   7
HETATM    7  C   UNK N   1      36.746  13.195  14.861  0.00  0.00     0.000 C 
BRANCH   7   8
HETATM    8  C   UNK N   1      35.698  12.358  15.567  0.00  0.00     0.000 C 
BRANCH   8   9
HETATM    9  C   UNK N   1      34.808  13.245  16.418  0.00  0.00     0.000 C 
BRANCH   9  10
HETATM   10  C   UNK N   1      35.104  13.014  17.889  0.00  0.00    -0.000 C 
BRANCH  10  11
HETATM   11  C   UNK N   1      35.567  11.585  18.110  0.00  0.00    -0.005 C 
HETATM   12  C   UNK N   1      35.581  11.278  19.591  0.00  0.00     0.005 C 
ENDBRANCH  10  11
ENDBRANCH   9  10
ENDBRANCH   8   9
ENDBRANCH   7   8
ENDBRANCH   6   7
ENDBRANCH   5   6
ENDBRANCH   4   5
ENDBRANCH   3   4
ENDBRANCH   2   3
ENDBRANCH   1   2
BRANCH   1  13
HETATM   13  P   UNK N   1      32.756  15.395   9.000  0.00  0.00     0.283 P 
HETATM   14  O   UNK N   1      32.850  13.964   8.405  0.00  0.00    -0.651 OA
BRANCH  13  15
HETATM   15  O   UNK N   1      32.184  15.139  10.618  0.00  0.00    -0.327 OA
HETATM   16  H   UNK N   1      31.617  14.835  11.344  0.00  0.00     0.220 HD
ENDBRANCH  13  15
BRANCH  13  17
HETATM   17  O   UNK N   1      31.455  16.127   8.114  0.00  0.00    -0.327 OA
HETATM   18  H   UNK N   1      30.614  16.318   8.556  0.00  0.00     0.220 HD
ENDBRANCH  13  17
ENDBRANCH   1  13
BRANCH   1  19
HETATM   19  P   UNK N   1      34.185  17.936   8.038  0.00  0.00     0.283 P 
HETATM   20  O   UNK N   1      34.349  17.862   6.498  0.00  0.00    -0.651 OA
BRANCH  19  21
HETATM   21  O   UNK N   1      35.337  19.138   8.532  0.00  0.00    -0.327 OA
HETATM   22  H   UNK N   1      35.455  19.942   8.004  0.00  0.00     0.220 HD
ENDBRANCH  19  21
BRANCH  19  23
HETATM   23  O   UNK N   1      32.613  18.634   8.267  0.00  0.00    -0.327 OA
HETATM   24  H   UNK N   1      32.432  19.349   8.898  0.00  0.00     0.220 HD
ENDBRANCH  19  23
ENDBRANCH   1  19
BRANCH   1  25
HETATM   25  O   UNK N   1      35.232  15.495   8.029  0.00  0.00    -0.368 OA
HETATM   26  H   UNK N   1      35.654  15.050   7.277  0.00  0.00     0.212 HD
ENDBRANCH   1  25
TORSDOF 17
ENDMDL
MODEL 3
REMARK VINA RESULT:      -4.9      8.325     11.120
REMARK  17 active torsions:
REMARK  status: ('A' for Active; 'I' for Inactive)
REMARK    1  A    between atoms: C_2  and  C_3 
REMARK    2  A    between atoms: C_3  and  C_4 
REMARK    3  A    between atoms: C_4  and  C_5 
REMARK    4  A    between atoms: C_5  and  C_6 
REMARK    5  A    between atoms: C_6  and  C_7 
REMARK    6  A    between atoms: C_7  and  C_8 
REMARK    7  A    between atoms: C_8  and  C_9 
REMARK    8  A    between atoms: C_9  and  C_10 
REMARK    9  A    between atoms: C_10  and  C_11 
REMARK   10  A    between atoms: C_11  and  C_12 
REMARK   11  A    between atoms: C_12  and  P_13 
REMARK   12  A    between atoms: C_12  and  P_17 
REMARK   13  A    between atoms: C_12  and  O_21 
REMARK   14  A    between atoms: P_13  and  O_14 
REMARK   15  A    between atoms: P_13  and  O_16 
REMARK   16  A    between atoms: P_17  and  O_19 
REMARK   17  A    between atoms: P_17  and  O_20 
ROOT
HETATM    1  C   UNK N   1      32.451  16.473   7.650  0.00  0.00     0.252 C 
ENDROOT
BRANCH   1   2
HETATM    2  C   UNK N   1      31.848  17.592   8.503  0.00  0.00     0.063 C 
BRANCH   2   3
HETATM    3  C   UNK N   1      30.385  17.353   8.863  0.00  0.00     0.004 C 
BRANCH   3   4
HETATM    4  C   UNK N   1      29.682  18.658   9.192  0.00  0.00     0.000 C 
BRANCH   4   5
HETATM    5  C   UNK N   1      28.257  18.661   8.663  0.00  0.00     0.000 C 
BRANCH   5   6
HETATM    6  C   UNK N   1      28.245  18.976   7.178  0.00  0.00     0.000 C 
BRANCH   6   7
HETATM    7  C   UNK N   1      27.251  20.077   6.869  0.00  0.00     0.000 C 
BRANCH   7   8
HETATM    8  C   UNK N   1      27.732  20.910   5.697  0.00  0.00     0.000 C 
BRANCH   8   9
HETATM    9  C   UNK N   1      27.302  20.269   4.390  0.00  0.00     0.000 C 
BRANCH   9  10
HETATM   10  C   UNK N   1      25.822  19.936   4.441  0.00  0.00    -0.000 C 
BRANCH  10  11
HETATM   11  C   UNK N   1      25.255  19.869   3.034  0.00  0.00    -0.005 C 
HETATM   12  C   UNK N   1      23.929  20.595   2.985  0.00  0.00     0.005 C 
ENDBRANCH  10  11
ENDBRANCH   9  10
ENDBRANCH   8   9
ENDBRANCH   7   8
ENDBRANCH   6   7
ENDBRANCH   5   6
ENDBRANCH   4   5
ENDBRANCH   3   4
ENDBRANCH   2   3
ENDBRANCH   1   2
BRANCH   1  13
HETATM   13  P   UNK N   1      33.889  17.119   6.642  0.00  0.00     0.283 P 
HETATM   14  O   UNK N   1      34.645  18.217   7.437  0.00  0.00    -0.651 OA
BRANCH  13  15
HETATM   15  O   UNK N   1      35.121  15.961   6.251  0.00  0.00    -0.327 OA
HETATM   16  H   UNK N   1      35.532  15.110   6.033  0.00  0.00     0.220 HD
ENDBRANCH  13  15
BRANCH  13  17
HETATM   17  O   UNK N   1      33.448  17.908   5.161  0.00  0.00    -0.327 OA
HETATM   18  H   UNK N   1      32.950  17.426   4.483  0.00  0.00     0.220 HD
ENDBRANCH  13  17
ENDBRANCH   1  13
BRANCH   1  19
HETATM   19  P   UNK N   1      32.999  15.044   8.723  0.00  0.00     0.283 P 
HETATM   20  O   UNK N   1      34.544  14.958   8.825  0.00  0.00    -0.651 OA
BRANCH  19  21
HETATM   21  O   UNK N   1      32.522  13.478   8.146  0.00  0.00    -0.327 OA
HETATM   22  H   UNK N   1      32.448  12.735   8.764  0.00  0.00     0.220 HD
ENDBRANCH  19  21
BRANCH  19  23
HETATM   23  O   UNK N   1      32.466  15.148  10.371  0.00  0.00    -0.327 OA
HETATM   24  H   UNK N   1      33.064  15.317  11.116  0.00  0.00     0.220 HD
ENDBRANCH  19  23
ENDBRANCH   1  19
BRANCH   1  25
HETATM   25  O   UNK N   1      31.473  16.010   6.775  0.00  0.00    -0.368 OA
HETATM   26  H   UNK N   1      30.983  15.705   5.995  0.00  0.00     0.212 HD
ENDBRANCH   1  25
TORSDOF 17
ENDMDL
MODEL 4
REMARK VINA RESULT:      -4.9      6.423      9.605
REMARK  17 active torsions:
REMARK  status: ('A' for Active; 'I' for Inactive)
REMARK    1  A    between atoms: C_2  and  C_3 
REMARK    2  A    between atoms: C_3  and  C_4 
REMARK    3  A    between atoms: C_4  and  C_5 
REMARK    4  A    between atoms: C_5  and  C_6 
REMARK    5  A    between atoms: C_6  and  C_7 
REMARK    6  A    between atoms: C_7  and  C_8 
REMARK    7  A    between atoms: C_8  and  C_9 
REMARK    8  A    between atoms: C_9  and  C_10 
REMARK    9  A    between atoms: C_10  and  C_11 
REMARK   10  A    between atoms: C_11  and  C_12 
REMARK   11  A    between atoms: C_12  and  P_13 
REMARK   12  A    between atoms: C_12  and  P_17 
REMARK   13  A    between atoms: C_12  and  O_21 
REMARK   14  A    between atoms: P_13  and  O_14 
REMARK   15  A    between atoms: P_13  and  O_16 
REMARK   16  A    between atoms: P_17  and  O_19 
REMARK   17  A    between atoms: P_17  and  O_20 
ROOT
HETATM    1  C   UNK N   1      34.238  15.934   8.367  0.00  0.00     0.252 C 
ENDROOT
BRANCH   1   2
HETATM    2  C   UNK N   1      32.960  15.155   8.046  0.00  0.00     0.063 C 
BRANCH   2   3
HETATM    3  C   UNK N   1      33.064  14.329   6.767  0.00  0.00     0.004 C 
BRANCH   3   4
HETATM    4  C   UNK N   1      32.199  14.916   5.666  0.00  0.00     0.000 C 
BRANCH   4   5
HETATM    5  C   UNK N   1      31.064  15.745   6.244  0.00  0.00     0.000 C 
BRANCH   5   6
HETATM    6  C   UNK N   1      30.801  16.962   5.375  0.00  0.00     0.000 C 
BRANCH   6   7
HETATM    7  C   UNK N   1      29.477  17.604   5.735  0.00  0.00     0.000 C 
BRANCH   7   8
HETATM    8  C   UNK N   1      28.930  17.003   7.015  0.00  0.00     0.000 C 
BRANCH   8   9
HETATM    9  C   UNK N   1      28.092  18.030   7.757  0.00  0.00     0.000 C 
BRANCH   9  10
HETATM   10  C   UNK N   1      28.389  19.420   7.226  0.00  0.00    -0.000 C 
BRANCH  10  11
HETATM   11  C   UNK N   1      27.095  20.183   7.008  0.00  0.00    -0.005 C 
HETATM   12  C   UNK N   1      27.331  21.318   6.035  0.00  0.00     0.005 C 
ENDBRANCH  10  11
ENDBRANCH   9  10
ENDBRANCH   8   9
ENDBRANCH   7   8
ENDBRANCH   6   7
ENDBRANCH   5   6
ENDBRANCH   4   5
ENDBRANCH   3   4
ENDBRANCH   2   3
ENDBRANCH   1   2
BRANCH   1  13
HETATM   13  P   UNK N   1      34.030  17.742   7.933  0.00  0.00     0.283 P 
HETATM   14  O   UNK N   1      34.229  17.949   6.407  0.00  0.00    -0.651 OA
BRANCH  13  15
HETATM   15  O   UNK N   1      32.465  18.422   8.247  0.00  0.00    -0.327 OA
HETATM   16  H   UNK N   1      31.768  18.935   8.687  0.00  0.00     0.220 HD
ENDBRANCH  13  15
BRANCH  13  17
HETATM   17  O   UNK N   1      35.198  18.806   8.651  0.00  0.00    -0.327 OA
HETATM   18  H   UNK N   1      35.822  19.292   8.091  0.00  0.00     0.220 HD
ENDBRANCH  13  17
ENDBRANCH   1  13
BRANCH   1  19
HETATM   19  P   UNK N   1      34.693  15.747  10.171  0.00  0.00     0.283 P 
HETATM   20  O   UNK N   1      35.947  14.853  10.359  0.00  0.00    -0.651 OA
BRANCH  19  21
HETATM   21  O   UNK N   1      33.479  14.989  11.152  0.00  0.00    -0.327 OA
HETATM   22  H   UNK N   1      32.749  14.507  10.735  0.00  0.00     0.220 HD
ENDBRANCH  19  21
BRANCH  19  23
HETATM   23  O   UNK N   1      35.108  17.237  10.957  0.00  0.00    -0.327 OA
HETATM   24  H   UNK N   1      35.863  17.331  11.558  0.00  0.00     0.220 HD
ENDBRANCH  19  23
ENDBRANCH   1  19
BRANCH   1  25
HETATM   25  O   UNK N   1      35.276  15.414   7.601  0.00  0.00    -0.368 OA
HETATM   26  H   UNK N   1      36.024  14.892   7.268  0.00  0.00     0.212 HD
ENDBRANCH   1  25
TORSDOF 17
ENDMDL
MODEL 5
REMARK VINA RESULT:      -4.9      1.909      3.344
REMARK  17 active torsions:
REMARK  status: ('A' for Active; 'I' for Inactive)
REMARK    1  A    between atoms: C_2  and  C_3 
REMARK    2  A    between atoms: C_3  and  C_4 
REMARK    3  A    between atoms: C_4  and  C_5 
REMARK    4  A    between atoms: C_5  and  C_6 
REMARK    5  A    between atoms: C_6  and  C_7 
REMARK    6  A    between atoms: C_7  and  C_8 
REMARK    7  A    between atoms: C_8  and  C_9 
REMARK    8  A    between atoms: C_9  and  C_10 
REMARK    9  A    between atoms: C_10  and  C_11 
REMARK   10  A    between atoms: C_11  and  C_12 
REMARK   11  A    between atoms: C_12  and  P_13 
REMARK   12  A    between atoms: C_12  and  P_17 
REMARK   13  A    between atoms: C_12  and  O_21 
REMARK   14  A    between atoms: P_13  and  O_14 
REMARK   15  A    between atoms: P_13  and  O_16 
REMARK   16  A    between atoms: P_17  and  O_19 
REMARK   17  A    between atoms: P_17  and  O_20 
ROOT
HETATM    1  C   UNK N   1      34.040  15.001   9.874  0.00  0.00     0.252 C 
ENDROOT
BRANCH   1   2
HETATM    2  C   UNK N   1      35.369  14.603  10.519  0.00  0.00     0.063 C 
BRANCH   2   3
HETATM    3  C   UNK N   1      35.296  14.511  12.040  0.00  0.00     0.004 C 
BRANCH   3   4
HETATM    4  C   UNK N   1      35.502  13.082  12.512  0.00  0.00     0.000 C 
BRANCH   4   5
HETATM    5  C   UNK N   1      36.614  13.002  13.546  0.00  0.00     0.000 C 
BRANCH   5   6
HETATM    6  C   UNK N   1      36.572  14.212  14.463  0.00  0.00     0.000 C 
BRANCH   6   7
HETATM    7  C   UNK N   1      36.622  13.787  15.916  0.00  0.00     0.000 C 
BRANCH   7   8
HETATM    8  C   UNK N   1      35.228  13.463  16.419  0.00  0.00     0.000 C 
BRANCH   8   9
HETATM    9  C   UNK N   1      35.262  12.216  17.284  0.00  0.00     0.000 C 
BRANCH   9  10
HETATM   10  C   UNK N   1      35.731  11.030  16.461  0.00  0.00    -0.000 C 
BRANCH  10  11
HETATM   11  C   UNK N   1      34.554  10.136  16.115  0.00  0.00    -0.005 C 
HETATM   12  C   UNK N   1      33.966  10.561  14.787  0.00  0.00     0.005 C 
ENDBRANCH  10  11
ENDBRANCH   9  10
ENDBRANCH   8   9
ENDBRANCH   7   8
ENDBRANCH   6   7
ENDBRANCH   5   6
ENDBRANCH   4   5
ENDBRANCH   3   4
ENDBRANCH   2   3
ENDBRANCH   1   2
BRANCH   1  13
HETATM   13  P   UNK N   1      34.194  16.659   9.023  0.00  0.00     0.283 P 
HETATM   14  O   UNK N   1      35.210  17.555   9.782  0.00  0.00    -0.651 OA
BRANCH  13  15
HETATM   15  O   UNK N   1      34.800  16.624   7.397  0.00  0.00    -0.327 OA
HETATM   16  H   UNK N   1      35.206  16.932   6.571  0.00  0.00     0.220 HD
ENDBRANCH  13  15
BRANCH  13  17
HETATM   17  O   UNK N   1      32.741  17.609   9.000  0.00  0.00    -0.327 OA
HETATM   18  H   UNK N   1      32.554  18.228   9.722  0.00  0.00     0.220 HD
ENDBRANCH  13  17
ENDBRANCH   1  13
BRANCH   1  19
HETATM   19  P   UNK N   1      33.476  13.696   8.659  0.00  0.00     0.283 P 
HETATM   20  O   UNK N   1      34.656  12.821   8.163  0.00  0.00    -0.651 OA
BRANCH  19  21
HETATM   21  O   UNK N   1      32.765  14.318   7.203  0.00  0.00    -0.327 OA
HETATM   22  H   UNK N   1      32.849  13.825   6.373  0.00  0.00     0.220 HD
ENDBRANCH  19  21
BRANCH  19  23
HETATM   23  O   UNK N   1      32.345  12.556   9.315  0.00  0.00    -0.327 OA
HETATM   24  H   UNK N   1      32.410  12.196  10.214  0.00  0.00     0.220 HD
ENDBRANCH  19  23
ENDBRANCH   1  19
BRANCH   1  25
HETATM   25  O   UNK N   1      33.078  15.107  10.874  0.00  0.00    -0.368 OA
HETATM   26  H   UNK N   1      32.596  15.310  11.691  0.00  0.00     0.212 HD
ENDBRANCH   1  25
TORSDOF 17
ENDMDL
MODEL 6
REMARK VINA RESULT:      -4.9     13.717     16.315
REMARK  17 active torsions:
REMARK  status: ('A' for Active; 'I' for Inactive)
REMARK    1  A    between atoms: C_2  and  C_3 
REMARK    2  A    between atoms: C_3  and  C_4 
REMARK    3  A    between atoms: C_4  and  C_5 
REMARK    4  A    between atoms: C_5  and  C_6 
REMARK    5  A    between atoms: C_6  and  C_7 
REMARK    6  A    between atoms: C_7  and  C_8 
REMARK    7  A    between atoms: C_8  and  C_9 
REMARK    8  A    between atoms: C_9  and  C_10 
REMARK    9  A    between atoms: C_10  and  C_11 
REMARK   10  A    between atoms: C_11  and  C_12 
REMARK   11  A    between atoms: C_12  and  P_13 
REMARK   12  A    between atoms: C_12  and  P_17 
REMARK   13  A    between atoms: C_12  and  O_21 
REMARK   14  A    between atoms: P_13  and  O_14 
REMARK   15  A    between atoms: P_13  and  O_16 
REMARK   16  A    between atoms: P_17  and  O_19 
REMARK   17  A    between atoms: P_17  and  O_20 
ROOT
HETATM    1  C   UNK N   1      21.402  19.308   3.423  0.00  0.00     0.252 C 
ENDROOT
BRANCH   1   2
HETATM    2  C   UNK N   1      22.550  20.106   2.801  0.00  0.00     0.063 C 
BRANCH   2   3
HETATM    3  C   UNK N   1      23.892  19.862   3.485  0.00  0.00     0.004 C 
BRANCH   3   4
HETATM    4  C   UNK N   1      25.032  20.464   2.682  0.00  0.00     0.000 C 
BRANCH   4   5
HETATM    5  C   UNK N   1      26.347  20.361   3.438  0.00  0.00     0.000 C 
BRANCH   5   6
HETATM    6  C   UNK N   1      26.105  19.894   4.862  0.00  0.00     0.000 C 
BRANCH   6   7
HETATM    7  C   UNK N   1      26.698  20.870   5.857  0.00  0.00     0.000 C 
BRANCH   7   8
HETATM    8  C   UNK N   1      27.654  20.154   6.792  0.00  0.00     0.000 C 
BRANCH   8   9
HETATM    9  C   UNK N   1      27.948  18.759   6.270  0.00  0.00     0.000 C 
BRANCH   9  10
HETATM   10  C   UNK N   1      28.295  17.838   7.425  0.00  0.00    -0.000 C 
BRANCH  10  11
HETATM   11  C   UNK N   1      28.227  18.598   8.738  0.00  0.00    -0.005 C 
HETATM   12  C   UNK N   1      29.560  18.510   9.447  0.00  0.00     0.005 C 
ENDBRANCH  10  11
ENDBRANCH   9  10
ENDBRANCH   8   9
ENDBRANCH   7   8
ENDBRANCH   6   7
ENDBRANCH   5   6
ENDBRANCH   4   5
ENDBRANCH   3   4
ENDBRANCH   2   3
ENDBRANCH   1   2
BRANCH   1  13
HETATM   13  P   UNK N   1      20.248  18.676   2.093  0.00  0.00     0.283 P 
HETATM   14  O   UNK N   1      20.509  17.168   1.834  0.00  0.00    -0.651 OA
BRANCH  13  15
HETATM   15  O   UNK N   1      18.553  18.749   2.463  0.00  0.00    -0.327 OA
HETATM   16  H   UNK N   1      17.665  18.453   2.714  0.00  0.00     0.220 HD
ENDBRANCH  13  15
BRANCH  13  17
HETATM   17  O   UNK N   1      20.456  19.408   0.533  0.00  0.00    -0.327 OA
HETATM   18  H   UNK N   1      21.330  19.414   0.113  0.00  0.00     0.220 HD
ENDBRANCH  13  17
ENDBRANCH   1  13
BRANCH   1  19
HETATM   19  P   UNK N   1      22.059  17.886   4.443  0.00  0.00     0.283 P 
HETATM   20  O   UNK N   1      20.916  17.066   5.096  0.00  0.00    -0.651 OA
BRANCH  19  21
HETATM   21  O   UNK N   1      23.065  18.353   5.778  0.00  0.00    -0.327 OA
HETATM   22  H   UNK N   1      22.941  19.216   6.199  0.00  0.00     0.220 HD
ENDBRANCH  19  21
BRANCH  19  23
HETATM   23  O   UNK N   1      22.958  16.714   3.532  0.00  0.00    -0.327 OA
HETATM   24  H   UNK N   1      23.727  16.238   3.884  0.00  0.00     0.220 HD
ENDBRANCH  19  23
ENDBRANCH   1  19
BRANCH   1  25
HETATM   25  O   UNK N   1      20.684  20.151   4.265  0.00  0.00    -0.368 OA
HETATM   26  H   UNK N   1      20.088  20.515   4.939  0.00  0.00     0.212 HD
ENDBRANCH   1  25
TORSDOF 17
ENDMDL
MODEL 7
REMARK VINA RESULT:      -4.8      1.798      2.920
REMARK  17 active torsions:
REMARK  status: ('A' for Active; 'I' for Inactive)
REMARK    1  A    between atoms: C_2  and  C_3 
REMARK    2  A    between atoms: C_3  and  C_4 
REMARK    3  A    between atoms: C_4  and  C_5 
REMARK    4  A    between atoms: C_5  and  C_6 
REMARK    5  A    between atoms: C_6  and  C_7 
REMARK    6  A    between atoms: C_7  and  C_8 
REMARK    7  A    between atoms: C_8  and  C_9 
REMARK    8  A    between atoms: C_9  and  C_10 
REMARK    9  A    between atoms: C_10  and  C_11 
REMARK   10  A    between atoms: C_11  and  C_12 
REMARK   11  A    between atoms: C_12  and  P_13 
REMARK   12  A    between atoms: C_12  and  P_17 
REMARK   13  A    between atoms: C_12  and  O_21 
REMARK   14  A    between atoms: P_13  and  O_14 
REMARK   15  A    between atoms: P_13  and  O_16 
REMARK   16  A    between atoms: P_17  and  O_19 
REMARK   17  A    between atoms: P_17  and  O_20 
ROOT
HETATM    1  C   UNK N   1      34.294  14.889  10.214  0.00  0.00     0.252 C 
ENDROOT
BRANCH   1   2
HETATM    2  C   UNK N   1      34.835  13.492   9.905  0.00  0.00     0.063 C 
BRANCH   2   3
HETATM    3  C   UNK N   1      34.936  12.599  11.138  0.00  0.00     0.004 C 
BRANCH   3   4
HETATM    4  C   UNK N   1      36.383  12.263  11.453  0.00  0.00     0.000 C 
BRANCH   4   5
HETATM    5  C   UNK N   1      36.797  12.833  12.800  0.00  0.00     0.000 C 
BRANCH   5   6
HETATM    6  C   UNK N   1      35.574  13.254  13.595  0.00  0.00     0.000 C 
BRANCH   6   7
HETATM    7  C   UNK N   1      35.919  13.433  15.059  0.00  0.00     0.000 C 
BRANCH   7   8
HETATM    8  C   UNK N   1      35.010  12.581  15.923  0.00  0.00     0.000 C 
BRANCH   8   9
HETATM    9  C   UNK N   1      34.082  11.757  15.049  0.00  0.00     0.000 C 
BRANCH   9  10
HETATM   10  C   UNK N   1      34.306  10.278  15.308  0.00  0.00    -0.000 C 
BRANCH  10  11
HETATM   11  C   UNK N   1      35.007   9.641  14.121  0.00  0.00    -0.005 C 
HETATM   12  C   UNK N   1      36.474   9.452  14.437  0.00  0.00     0.005 C 
ENDBRANCH  10  11
ENDBRANCH   9  10
ENDBRANCH   8   9
ENDBRANCH   7   8
ENDBRANCH   6   7
ENDBRANCH   5   6
ENDBRANCH   4   5
ENDBRANCH   3   4
ENDBRANCH   2   3
ENDBRANCH   1   2
BRANCH   1  13
HETATM   13  P   UNK N   1      35.684  16.032  10.724  0.00  0.00     0.283 P 
HETATM   14  O   UNK N   1      35.663  16.244  12.261  0.00  0.00    -0.651 OA
BRANCH  13  15
HETATM   15  O   UNK N   1      37.291  15.462  10.401  0.00  0.00    -0.327 OA
HETATM   16  H   UNK N   1      38.021  15.008   9.953  0.00  0.00     0.220 HD
ENDBRANCH  13  15
BRANCH  13  17
HETATM   17  O   UNK N   1      35.580  17.642  10.082  0.00  0.00    -0.327 OA
HETATM   18  H   UNK N   1      36.342  18.034   9.628  0.00  0.00     0.220 HD
ENDBRANCH  13  17
ENDBRANCH   1  13
BRANCH   1  19
HETATM   19  P   UNK N   1      33.383  15.589   8.740  0.00  0.00     0.283 P 
HETATM   20  O   UNK N   1      34.350  15.946   7.580  0.00  0.00    -0.651 OA
BRANCH  19  21
HETATM   21  O   UNK N   1      32.525  17.066   9.049  0.00  0.00    -0.327 OA
HETATM   22  H   UNK N   1      32.466  17.746   8.361  0.00  0.00     0.220 HD
ENDBRANCH  19  21
BRANCH  19  23
HETATM   23  O   UNK N   1      32.243  14.494   8.024  0.00  0.00    -0.327 OA
HETATM   24  H   UNK N   1      31.553  14.773   7.401  0.00  0.00     0.220 HD
ENDBRANCH  19  23
ENDBRANCH   1  19
BRANCH   1  25
HETATM   25  O   UNK N   1      33.395  14.790  11.273  0.00  0.00    -0.368 OA
HETATM   26  H   UNK N   1      32.970  14.612  12.127  0.00  0.00     0.212 HD
ENDBRANCH   1  25
TORSDOF 17
ENDMDL
MODEL 8
REMARK VINA RESULT:      -4.8      6.755      9.584
REMARK  17 active torsions:
REMARK  status: ('A' for Active; 'I' for Inactive)
REMARK    1  A    between atoms: C_2  and  C_3 
REMARK    2  A    between atoms: C_3  and  C_4 
REMARK    3  A    between atoms: C_4  and  C_5 
REMARK    4  A    between atoms: C_5  and  C_6 
REMARK    5  A    between atoms: C_6  and  C_7 
REMARK    6  A    between atoms: C_7  and  C_8 
REMARK    7  A    between atoms: C_8  and  C_9 
REMARK    8  A    between atoms: C_9  and  C_10 
REMARK    9  A    between atoms: C_10  and  C_11 
REMARK   10  A    between atoms: C_11  and  C_12 
REMARK   11  A    between atoms: C_12  and  P_13 
REMARK   12  A    between atoms: C_12  and  P_17 
REMARK   13  A    between atoms: C_12  and  O_21 
REMARK   14  A    between atoms: P_13  and  O_14 
REMARK   15  A    between atoms: P_13  and  O_16 
REMARK   16  A    between atoms: P_17  and  O_19 
REMARK   17  A    between atoms: P_17  and  O_20 
ROOT
HETATM    1  C   UNK N   1      33.872  15.174   9.997  0.00  0.00     0.252 C 
ENDROOT
BRANCH   1   2
HETATM    2  C   UNK N   1      33.247  16.160   9.008  0.00  0.00     0.063 C 
BRANCH   2   3
HETATM    3  C   UNK N   1      31.728  16.043   8.918  0.00  0.00     0.004 C 
BRANCH   3   4
HETATM    4  C   UNK N   1      31.148  17.126   8.026  0.00  0.00     0.000 C 
BRANCH   4   5
HETATM    5  C   UNK N   1      30.666  18.311   8.847  0.00  0.00     0.000 C 
BRANCH   5   6
HETATM    6  C   UNK N   1      29.155  18.430   8.768  0.00  0.00     0.000 C 
BRANCH   6   7
HETATM    7  C   UNK N   1      28.609  17.612   7.615  0.00  0.00     0.000 C 
BRANCH   7   8
HETATM    8  C   UNK N   1      28.288  18.511   6.437  0.00  0.00     0.000 C 
BRANCH   8   9
HETATM    9  C   UNK N   1      27.758  19.846   6.928  0.00  0.00     0.000 C 
BRANCH   9  10
HETATM   10  C   UNK N   1      27.534  20.777   5.751  0.00  0.00    -0.000 C 
BRANCH  10  11
HETATM   11  C   UNK N   1      27.663  20.010   4.447  0.00  0.00    -0.005 C 
HETATM   12  C   UNK N   1      26.500  20.349   3.540  0.00  0.00     0.005 C 
ENDBRANCH  10  11
ENDBRANCH   9  10
ENDBRANCH   8   9
ENDBRANCH   7   8
ENDBRANCH   6   7
ENDBRANCH   5   6
ENDBRANCH   4   5
ENDBRANCH   3   4
ENDBRANCH   2   3
ENDBRANCH   1   2
BRANCH   1  13
HETATM   13  P   UNK N   1      34.074  13.491   9.207  0.00  0.00     0.283 P 
HETATM   14  O   UNK N   1      34.379  13.648   7.693  0.00  0.00    -0.651 OA
BRANCH  13  15
HETATM   15  O   UNK N   1      35.389  12.527   9.801  0.00  0.00    -0.327 OA
HETATM   16  H   UNK N   1      35.953  12.046  10.426  0.00  0.00     0.220 HD
ENDBRANCH  13  15
BRANCH  13  17
HETATM   17  O   UNK N   1      32.657  12.490   9.244  0.00  0.00    -0.327 OA
HETATM   18  H   UNK N   1      31.792  12.863   9.014  0.00  0.00     0.220 HD
ENDBRANCH  13  17
ENDBRANCH   1  13
BRANCH   1  19
HETATM   19  P   UNK N   1      35.520  15.806  10.613  0.00  0.00     0.283 P 
HETATM   20  O   UNK N   1      35.650  17.342  10.440  0.00  0.00    -0.651 OA
BRANCH  19  21
HETATM   21  O   UNK N   1      36.901  15.165   9.779  0.00  0.00    -0.327 OA
HETATM   22  H   UNK N   1      36.870  15.033   8.820  0.00  0.00     0.220 HD
ENDBRANCH  19  21
BRANCH  19  23
HETATM   23  O   UNK N   1      35.795  15.541  12.305  0.00  0.00    -0.327 OA
HETATM   24  H   UNK N   1      36.524  15.950  12.798  0.00  0.00     0.220 HD
ENDBRANCH  19  23
ENDBRANCH   1  19
BRANCH   1  25
HETATM   25  O   UNK N   1      33.020  15.048  11.091  0.00  0.00    -0.368 OA
HETATM   26  H   UNK N   1      32.389  14.724  11.754  0.00  0.00     0.212 HD
ENDBRANCH   1  25
TORSDOF 17
ENDMDL
MODEL 9
REMARK VINA RESULT:      -4.8     15.556     17.317
REMARK  17 active torsions:
REMARK  status: ('A' for Active; 'I' for Inactive)
REMARK    1  A    between atoms: C_2  and  C_3 
REMARK    2  A    between atoms: C_3  and  C_4 
REMARK    3  A    between atoms: C_4  and  C_5 
REMARK    4  A    between atoms: C_5  and  C_6 
REMARK    5  A    between atoms: C_6  and  C_7 
REMARK    6  A    between atoms: C_7  and  C_8 
REMARK    7  A    between atoms: C_8  and  C_9 
REMARK    8  A    between atoms: C_9  and  C_10 
REMARK    9  A    between atoms: C_10  and  C_11 
REMARK   10  A    between atoms: C_11  and  C_12 
REMARK   11  A    between atoms: C_12  and  P_13 
REMARK   12  A    between atoms: C_12  and  P_17 
REMARK   13  A    between atoms: C_12  and  O_21 
REMARK   14  A    between atoms: P_13  and  O_14 
REMARK   15  A    between atoms: P_13  and  O_16 
REMARK   16  A    between atoms: P_17  and  O_19 
REMARK   17  A    between atoms: P_17  and  O_20 
ROOT
HETATM    1  C   UNK N   1      20.107  17.860   2.619  0.00  0.00     0.252 C 
ENDROOT
BRANCH   1   2
HETATM    2  C   UNK N   1      20.972  16.989   3.532  0.00  0.00     0.063 C 
BRANCH   2   3
HETATM    3  C   UNK N   1      20.179  16.308   4.644  0.00  0.00     0.004 C 
BRANCH   3   4
HETATM    4  C   UNK N   1      20.836  16.522   5.995  0.00  0.00     0.000 C 
BRANCH   4   5
HETATM    5  C   UNK N   1      19.809  16.489   7.115  0.00  0.00     0.000 C 
BRANCH   5   6
HETATM    6  C   UNK N   1      20.496  16.326   8.459  0.00  0.00     0.000 C 
BRANCH   6   7
HETATM    7  C   UNK N   1      20.223  14.953   9.040  0.00  0.00     0.000 C 
BRANCH   7   8
HETATM    8  C   UNK N   1      21.519  14.296   9.473  0.00  0.00     0.000 C 
BRANCH   8   9
HETATM    9  C   UNK N   1      21.259  12.865   9.905  0.00  0.00     0.000 C 
BRANCH   9  10
HETATM   10  C   UNK N   1      22.289  12.442  10.938  0.00  0.00    -0.000 C 
BRANCH  10  11
HETATM   11  C   UNK N   1      23.628  12.193  10.267  0.00  0.00    -0.005 C 
HETATM   12  C   UNK N   1      23.434  11.307   9.056  0.00  0.00     0.005 C 
ENDBRANCH  10  11
ENDBRANCH   9  10
ENDBRANCH   8   9
ENDBRANCH   7   8
ENDBRANCH   6   7
ENDBRANCH   5   6
ENDBRANCH   4   5
ENDBRANCH   3   4
ENDBRANCH   2   3
ENDBRANCH   1   2
BRANCH   1  13
HETATM   13  P   UNK N   1      20.746  19.617   2.590  0.00  0.00     0.283 P 
HETATM   14  O   UNK N   1      20.181  20.409   3.800  0.00  0.00    -0.651 OA
BRANCH  13  15
HETATM   15  O   UNK N   1      22.465  19.802   2.736  0.00  0.00    -0.327 OA
HETATM   16  H   UNK N   1      23.411  19.656   2.580  0.00  0.00     0.220 HD
ENDBRANCH  13  15
BRANCH  13  17
HETATM   17  O   UNK N   1      20.252  20.554   1.215  0.00  0.00    -0.327 OA
HETATM   18  H   UNK N   1      19.314  20.612   0.978  0.00  0.00     0.220 HD
ENDBRANCH  13  17
ENDBRANCH   1  13
BRANCH   1  19
HETATM   19  P   UNK N   1      20.057  17.158   0.887  0.00  0.00     0.283 P 
HETATM   20  O   UNK N   1      20.574  18.175  -0.164  0.00  0.00    -0.651 OA
BRANCH  19  21
HETATM   21  O   UNK N   1      18.472  16.730   0.321  0.00  0.00    -0.327 OA
HETATM   22  H   UNK N   1      18.352  16.403  -0.583  0.00  0.00     0.220 HD
ENDBRANCH  19  21
BRANCH  19  23
HETATM   23  O   UNK N   1      21.059  15.760   0.657  0.00  0.00    -0.327 OA
HETATM   24  H   UNK N   1      21.010  14.970   1.218  0.00  0.00     0.220 HD
ENDBRANCH  19  23
ENDBRANCH   1  19
BRANCH   1  25
HETATM   25  O   UNK N   1      18.809  17.871   3.120  0.00  0.00    -0.368 OA
HETATM   26  H   UNK N   1      18.016  18.005   3.664  0.00  0.00     0.212 HD
ENDBRANCH   1  25
TORSDOF 17
ENDMDL
