REMARK  17 active torsions:
REMARK  status: ('A' for Active; 'I' for Inactive)
REMARK    1  A    between atoms: C_2  and  C_3 
REMARK    2  A    between atoms: C_3  and  C_4 
REMARK    3  A    between atoms: C_4  and  C_5 
REMARK    4  A    between atoms: C_5  and  C_6 
REMARK    5  A    between atoms: C_6  and  C_7 
REMARK    6  A    between atoms: C_7  and  C_8 
REMARK    7  A    between atoms: C_8  and  C_9 
REMARK    8  A    between atoms: C_9  and  C_10 
REMARK    9  A    between atoms: C_10  and  C_11 
REMARK   10  A    between atoms: C_11  and  C_12 
REMARK   11  A    between atoms: C_12  and  P_13 
REMARK   12  A    between atoms: C_12  and  P_17 
REMARK   13  A    between atoms: C_12  and  O_21 
REMARK   14  A    between atoms: P_13  and  O_14 
REMARK   15  A    between atoms: P_13  and  O_16 
REMARK   16  A    between atoms: P_17  and  O_19 
REMARK   17  A    between atoms: P_17  and  O_20 
ROOT
HETATM    1  C   UNK N   1       4.586  -0.044  -0.598  0.00  0.00     0.252 C 
ENDROOT
BRANCH   1   2
HETATM    2  C   UNK N   1       3.362  -0.957  -0.502  0.00  0.00     0.063 C 
BRANCH   2   3
HETATM    3  C   UNK N   1       2.913  -1.213   0.934  0.00  0.00     0.004 C 
BRANCH   3   4
HETATM    4  C   UNK N   1       1.546  -1.873   0.970  0.00  0.00     0.000 C 
BRANCH   4   5
HETATM    5  C   UNK N   1       0.437  -0.842   0.835  0.00  0.00     0.000 C 
BRANCH   5   6
HETATM    6  C   UNK N   1       0.317  -0.379  -0.606  0.00  0.00     0.000 C 
BRANCH   6   7
HETATM    7  C   UNK N   1      -0.865   0.554  -0.775  0.00  0.00     0.000 C 
BRANCH   7   8
HETATM    8  C   UNK N   1      -2.154  -0.239  -0.867  0.00  0.00     0.000 C 
BRANCH   8   9
HETATM    9  C   UNK N   1      -2.899  -0.179   0.454  0.00  0.00     0.000 C 
BRANCH   9  10
HETATM   10  C   UNK N   1      -4.304  -0.726   0.280  0.00  0.00    -0.000 C 
BRANCH  10  11
HETATM   11  C   UNK N   1      -5.140   0.236  -0.545  0.00  0.00    -0.005 C 
HETATM   12  C   UNK N   1      -6.475  -0.398  -0.868  0.00  0.00     0.005 C 
ENDBRANCH  10  11
ENDBRANCH   9  10
ENDBRANCH   8   9
ENDBRANCH   7   8
ENDBRANCH   6   7
ENDBRANCH   5   6
ENDBRANCH   4   5
ENDBRANCH   3   4
ENDBRANCH   2   3
ENDBRANCH   1   2
BRANCH   1  13
HETATM   13  P   UNK N   1       4.198   1.648   0.099  0.00  0.00     0.283 P 
HETATM   14  O   UNK N   1       3.078   2.324  -0.737  0.00  0.00    -0.651 OA
BRANCH  13  15
HETATM   15  O   UNK N   1       3.584   1.677   1.722  0.00  0.00    -0.327 OA
HETATM   16  H   UNK N   1       3.427   1.983   2.629  0.00  0.00     0.220 HD
ENDBRANCH  13  15
BRANCH  13  17
HETATM   17  O   UNK N   1       5.508   2.785   0.034  0.00  0.00    -0.327 OA
HETATM   18  H   UNK N   1       6.424   2.469  -0.002  0.00  0.00     0.220 HD
ENDBRANCH  13  17
ENDBRANCH   1  13
BRANCH   1  19
HETATM   19  P   UNK N   1       6.046  -0.796   0.295  0.00  0.00     0.283 P 
HETATM   20  O   UNK N   1       5.764  -0.981   1.809  0.00  0.00    -0.651 OA
BRANCH  19  21
HETATM   21  O   UNK N   1       7.497   0.155   0.245  0.00  0.00    -0.327 OA
HETATM   22  H   UNK N   1       8.362  -0.281   0.217  0.00  0.00     0.220 HD
ENDBRANCH  19  21
BRANCH  19  23
HETATM   23  O   UNK N   1       6.475  -2.384  -0.257  0.00  0.00    -0.327 OA
HETATM   24  H   UNK N   1       5.826  -3.036  -0.565  0.00  0.00     0.220 HD
ENDBRANCH  19  23
ENDBRANCH   1  19
BRANCH   1  25
HETATM   25  O   UNK N   1       4.925   0.100  -1.940  0.00  0.00    -0.368 OA
HETATM   26  H   UNK N   1       5.130  -0.055  -2.876  0.00  0.00     0.212 HD
ENDBRANCH   1  25
TORSDOF 17
