MODEL 1
REMARK VINA RESULT:      -8.2      0.000      0.000
REMARK  3 active torsions:
REMARK  status: ('A' for Active; 'I' for Inactive)
REMARK    1  A    between atoms: O_2  and  C_3 
REMARK    2  A    between atoms: C_7  and  C_9 
REMARK    3  A    between atoms: C_14  and  C_13 
REMARK       I    between atoms: C_21  and  N_22 
ROOT
HETATM    1  C   UNK N   1      28.469  18.360   6.908  0.00  0.00    -0.025 A 
HETATM    2  C   UNK N   1      28.265  18.886   8.194  0.00  0.00     0.012 A 
HETATM    3  C   UNK N   1      29.123  18.542   9.240  0.00  0.00     0.002 A 
HETATM    4  C   UNK N   1      30.217  17.706   9.002  0.00  0.00     0.010 A 
HETATM    5  C   UNK N   1      30.440  17.169   7.722  0.00  0.00    -0.029 A 
HETATM    6  C   UNK N   1      29.546  17.489   6.691  0.00  0.00     0.022 A 
ENDROOT
BRANCH   5   7
HETATM    7  C   UNK N   1      31.660  16.316   7.416  0.00  0.00     0.079 C 
HETATM    8  C   UNK N   1      31.315  15.359   6.285  0.00  0.00     0.045 C 
HETATM    9  C   UNK N   1      32.823  17.164   6.880  0.00  0.00     0.140 C 
HETATM   10  C   UNK N   1      33.894  17.462   7.872  0.00  0.00     0.240 C 
HETATM   11  O   UNK N   1      34.707  18.338   7.612  0.00  0.00    -0.272 OA
HETATM   12  N   UNK N   1      34.002  16.734   9.012  0.00  0.00    -0.156 N 
HETATM   13  C   UNK N   1      35.095  16.986   9.925  0.00  0.00     0.178 C 
HETATM   14  C   UNK N   1      33.063  15.701   9.311  0.00  0.00     0.677 C 
HETATM   15  N   UNK N   1      32.004  15.529   8.590  0.00  0.00    -0.213 N 
HETATM   16  N   UNK N   1      33.260  14.876  10.443  0.00  0.00    -0.234 N 
ATOM     17  HN  UNK N   1      31.360  14.787   8.866  1.00  0.00     0.179 HD
HETATM   18  H   UNK N   1      32.705  14.462  11.143  0.00  0.00     0.174 HD
HETATM   19  H   UNK N   1      34.212  14.657  10.565  0.00  0.00     0.174 HD
ENDBRANCH   5   7
BRANCH   1  20
HETATM   20  C   UNK N   1      27.628  18.786   5.767  0.00  0.00    -0.023 A 
HETATM   21  C   UNK N   1      27.475  20.146   5.453  0.00  0.00     0.012 A 
HETATM   22  C   UNK N   1      26.739  20.531   4.329  0.00  0.00     0.004 A 
HETATM   23  C   UNK N   1      26.145  19.563   3.515  0.00  0.00     0.037 A 
HETATM   24  C   UNK N   1      26.284  18.198   3.823  0.00  0.00     0.069 A 
HETATM   25  C   UNK N   1      27.030  17.822   4.941  0.00  0.00     0.049 A 
BRANCH  24  26
HETATM   26  O   UNK N   1      25.718  17.233   3.060  0.00  0.00    -0.356 OA
HETATM   27  C   UNK N   1      26.331  16.034   2.781  0.00  0.00     0.210 C 
ENDBRANCH  24  26
ENDBRANCH   1  20
TORSDOF 3
ENDMDL
MODEL 2
REMARK VINA RESULT:      -8.0      1.135      1.750
REMARK  3 active torsions:
REMARK  status: ('A' for Active; 'I' for Inactive)
REMARK    1  A    between atoms: O_2  and  C_3 
REMARK    2  A    between atoms: C_7  and  C_9 
REMARK    3  A    between atoms: C_14  and  C_13 
REMARK       I    between atoms: C_21  and  N_22 
ROOT
HETATM    1  C   UNK N   1      28.852  17.997   6.991  0.00  0.00    -0.025 A 
HETATM    2  C   UNK N   1      28.673  18.743   8.166  0.00  0.00     0.012 A 
HETATM    3  C   UNK N   1      29.689  18.803   9.122  0.00  0.00     0.002 A 
HETATM    4  C   UNK N   1      30.907  18.157   8.893  0.00  0.00     0.010 A 
HETATM    5  C   UNK N   1      31.106  17.405   7.721  0.00  0.00    -0.029 A 
HETATM    6  C   UNK N   1      30.062  17.318   6.789  0.00  0.00     0.022 A 
ENDROOT
BRANCH   5   7
HETATM    7  C   UNK N   1      32.442  16.753   7.410  0.00  0.00     0.079 C 
HETATM    8  C   UNK N   1      32.374  16.142   6.018  0.00  0.00     0.045 C 
HETATM    9  C   UNK N   1      33.575  17.788   7.334  0.00  0.00     0.140 C 
HETATM   10  C   UNK N   1      34.448  17.854   8.540  0.00  0.00     0.240 C 
HETATM   11  O   UNK N   1      35.192  18.815   8.673  0.00  0.00    -0.272 OA
HETATM   12  N   UNK N   1      34.463  16.837   9.439  0.00  0.00    -0.156 N 
HETATM   13  C   UNK N   1      35.374  16.883  10.560  0.00  0.00     0.178 C 
HETATM   14  C   UNK N   1      33.606  15.706   9.277  0.00  0.00     0.677 C 
HETATM   15  N   UNK N   1      32.690  15.684   8.365  0.00  0.00    -0.213 N 
HETATM   16  N   UNK N   1      33.720  14.605  10.158  0.00  0.00    -0.234 N 
ATOM     17  HN  UNK N   1      32.096  14.856   8.313  1.00  0.00     0.179 HD
HETATM   18  H   UNK N   1      33.115  13.975  10.611  0.00  0.00     0.174 HD
HETATM   19  H   UNK N   1      34.661  14.419  10.377  0.00  0.00     0.174 HD
ENDBRANCH   5   7
BRANCH   1  20
HETATM   20  C   UNK N   1      27.825  17.998   5.924  0.00  0.00    -0.023 A 
HETATM   21  C   UNK N   1      26.990  16.886   5.727  0.00  0.00     0.012 A 
HETATM   22  C   UNK N   1      25.977  16.928   4.765  0.00  0.00     0.004 A 
HETATM   23  C   UNK N   1      25.793  18.076   3.989  0.00  0.00     0.037 A 
HETATM   24  C   UNK N   1      26.628  19.193   4.171  0.00  0.00     0.069 A 
HETATM   25  C   UNK N   1      27.631  19.146   5.141  0.00  0.00     0.049 A 
BRANCH  24  26
HETATM   26  O   UNK N   1      26.484  20.319   3.434  0.00  0.00    -0.356 OA
HETATM   27  C   UNK N   1      25.422  20.539   2.589  0.00  0.00     0.210 C 
ENDBRANCH  24  26
ENDBRANCH   1  20
TORSDOF 3
ENDMDL
MODEL 3
REMARK VINA RESULT:      -7.9      3.828      8.175
REMARK  3 active torsions:
REMARK  status: ('A' for Active; 'I' for Inactive)
REMARK    1  A    between atoms: O_2  and  C_3 
REMARK    2  A    between atoms: C_7  and  C_9 
REMARK    3  A    between atoms: C_14  and  C_13 
REMARK       I    between atoms: C_21  and  N_22 
ROOT
HETATM    1  C   UNK N   1      29.651  17.239   4.664  0.00  0.00    -0.025 A 
HETATM    2  C   UNK N   1      29.266  16.326   3.670  0.00  0.00     0.012 A 
HETATM    3  C   UNK N   1      27.975  16.367   3.139  0.00  0.00     0.002 A 
HETATM    4  C   UNK N   1      27.073  17.346   3.565  0.00  0.00     0.010 A 
HETATM    5  C   UNK N   1      27.440  18.270   4.559  0.00  0.00    -0.029 A 
HETATM    6  C   UNK N   1      28.725  18.191   5.113  0.00  0.00     0.022 A 
ENDROOT
BRANCH   5   7
HETATM    7  C   UNK N   1      26.507  19.390   4.990  0.00  0.00     0.079 C 
HETATM    8  C   UNK N   1      27.192  20.202   6.079  0.00  0.00     0.045 C 
HETATM    9  C   UNK N   1      26.255  20.387   3.849  0.00  0.00     0.140 C 
HETATM   10  C   UNK N   1      24.945  20.232   3.156  0.00  0.00     0.240 C 
HETATM   11  O   UNK N   1      24.778  20.796   2.084  0.00  0.00    -0.272 OA
HETATM   12  N   UNK N   1      23.937  19.531   3.733  0.00  0.00    -0.156 N 
HETATM   13  C   UNK N   1      22.648  19.457   3.082  0.00  0.00     0.178 C 
HETATM   14  C   UNK N   1      24.124  18.884   4.993  0.00  0.00     0.677 C 
HETATM   15  N   UNK N   1      25.291  18.817   5.545  0.00  0.00    -0.213 N 
HETATM   16  N   UNK N   1      23.028  18.259   5.633  0.00  0.00    -0.234 N 
ATOM     17  HN  UNK N   1      25.364  18.324   6.435  1.00  0.00     0.179 HD
HETATM   18  H   UNK N   1      22.866  17.442   6.157  0.00  0.00     0.174 HD
HETATM   19  H   UNK N   1      22.203  18.785   5.525  0.00  0.00     0.174 HD
ENDBRANCH   5   7
BRANCH   1  20
HETATM   20  C   UNK N   1      31.042  17.273   5.171  0.00  0.00    -0.023 A 
HETATM   21  C   UNK N   1      32.125  17.426   4.291  0.00  0.00     0.012 A 
HETATM   22  C   UNK N   1      33.427  17.530   4.788  0.00  0.00     0.004 A 
HETATM   23  C   UNK N   1      33.658  17.477   6.166  0.00  0.00     0.037 A 
HETATM   24  C   UNK N   1      32.582  17.316   7.057  0.00  0.00     0.069 A 
HETATM   25  C   UNK N   1      31.284  17.222   6.552  0.00  0.00     0.049 A 
BRANCH  24  26
HETATM   26  O   UNK N   1      32.768  17.253   8.396  0.00  0.00    -0.356 OA
HETATM   27  C   UNK N   1      33.929  16.801   8.979  0.00  0.00     0.210 C 
ENDBRANCH  24  26
ENDBRANCH   1  20
TORSDOF 3
ENDMDL
MODEL 4
REMARK VINA RESULT:      -7.9      1.776      2.466
REMARK  3 active torsions:
REMARK  status: ('A' for Active; 'I' for Inactive)
REMARK    1  A    between atoms: O_2  and  C_3 
REMARK    2  A    between atoms: C_7  and  C_9 
REMARK    3  A    between atoms: C_14  and  C_13 
REMARK       I    between atoms: C_21  and  N_22 
ROOT
HETATM    1  C   UNK N   1      28.900  18.200   7.645  0.00  0.00    -0.025 A 
HETATM    2  C   UNK N   1      28.431  18.083   8.963  0.00  0.00     0.012 A 
HETATM    3  C   UNK N   1      29.136  17.318   9.895  0.00  0.00     0.002 A 
HETATM    4  C   UNK N   1      30.335  16.701   9.531  0.00  0.00     0.010 A 
HETATM    5  C   UNK N   1      30.822  16.806   8.217  0.00  0.00    -0.029 A 
HETATM    6  C   UNK N   1      30.083  17.543   7.280  0.00  0.00     0.022 A 
ENDROOT
BRANCH   5   7
HETATM    7  C   UNK N   1      32.159  16.208   7.811  0.00  0.00     0.079 C 
HETATM    8  C   UNK N   1      31.991  15.504   6.472  0.00  0.00     0.045 C 
HETATM    9  C   UNK N   1      33.214  17.296   7.559  0.00  0.00     0.140 C 
HETATM   10  C   UNK N   1      34.195  17.487   8.664  0.00  0.00     0.240 C 
HETATM   11  O   UNK N   1      34.889  18.494   8.663  0.00  0.00    -0.272 OA
HETATM   12  N   UNK N   1      34.359  16.534   9.616  0.00  0.00    -0.156 N 
HETATM   13  C   UNK N   1      35.372  16.702  10.634  0.00  0.00     0.178 C 
HETATM   14  C   UNK N   1      33.560  15.351   9.610  0.00  0.00     0.677 C 
HETATM   15  N   UNK N   1      32.563  15.219   8.798  0.00  0.00    -0.213 N 
HETATM   16  N   UNK N   1      33.827  14.317  10.538  0.00  0.00    -0.234 N 
ATOM     17  HN  UNK N   1      32.017  14.359   8.856  1.00  0.00     0.179 HD
HETATM   18  H   UNK N   1      33.308  13.686  11.088  0.00  0.00     0.174 HD
HETATM   19  H   UNK N   1      34.794  14.196  10.672  0.00  0.00     0.174 HD
ENDBRANCH   5   7
BRANCH   1  20
HETATM   20  C   UNK N   1      28.220  19.082   6.669  0.00  0.00    -0.023 A 
HETATM   21  C   UNK N   1      28.291  18.822   5.292  0.00  0.00     0.012 A 
HETATM   22  C   UNK N   1      27.585  19.618   4.386  0.00  0.00     0.004 A 
HETATM   23  C   UNK N   1      26.808  20.684   4.849  0.00  0.00     0.037 A 
HETATM   24  C   UNK N   1      26.735  20.961   6.226  0.00  0.00     0.069 A 
HETATM   25  C   UNK N   1      27.435  20.153   7.123  0.00  0.00     0.049 A 
BRANCH  24  26
HETATM   26  O   UNK N   1      25.997  21.988   6.710  0.00  0.00    -0.356 OA
HETATM   27  C   UNK N   1      25.604  22.082   8.024  0.00  0.00     0.210 C 
ENDBRANCH  24  26
ENDBRANCH   1  20
TORSDOF 3
ENDMDL
MODEL 5
REMARK VINA RESULT:      -7.7      6.640     11.752
REMARK  3 active torsions:
REMARK  status: ('A' for Active; 'I' for Inactive)
REMARK    1  A    between atoms: O_2  and  C_3 
REMARK    2  A    between atoms: C_7  and  C_9 
REMARK    3  A    between atoms: C_14  and  C_13 
REMARK       I    between atoms: C_21  and  N_22 
ROOT
HETATM    1  C   UNK N   1      34.667  11.765  14.865  0.00  0.00    -0.025 A 
HETATM    2  C   UNK N   1      33.900  10.665  14.452  0.00  0.00     0.012 A 
HETATM    3  C   UNK N   1      33.786  10.356  13.094  0.00  0.00     0.002 A 
HETATM    4  C   UNK N   1      34.471  11.116  12.144  0.00  0.00     0.010 A 
HETATM    5  C   UNK N   1      35.246  12.222  12.537  0.00  0.00    -0.029 A 
HETATM    6  C   UNK N   1      35.317  12.546  13.898  0.00  0.00     0.022 A 
ENDROOT
BRANCH   5   7
HETATM    7  C   UNK N   1      36.060  13.022  11.534  0.00  0.00     0.079 C 
HETATM    8  C   UNK N   1      37.536  12.737  11.766  0.00  0.00     0.045 C 
HETATM    9  C   UNK N   1      35.789  12.568  10.092  0.00  0.00     0.140 C 
HETATM   10  C   UNK N   1      34.879  13.455   9.313  0.00  0.00     0.240 C 
HETATM   11  O   UNK N   1      34.405  13.035   8.268  0.00  0.00    -0.272 OA
HETATM   12  N   UNK N   1      34.633  14.724   9.725  0.00  0.00    -0.156 N 
HETATM   13  C   UNK N   1      33.811  15.595   8.915  0.00  0.00     0.178 C 
HETATM   14  C   UNK N   1      35.199  15.222  10.938  0.00  0.00     0.677 C 
HETATM   15  N   UNK N   1      35.831  14.443  11.752  0.00  0.00    -0.213 N 
HETATM   16  N   UNK N   1      35.027  16.582  11.288  0.00  0.00    -0.234 N 
ATOM     17  HN  UNK N   1      36.195  14.853  12.612  1.00  0.00     0.179 HD
HETATM   18  H   UNK N   1      34.861  17.104  12.106  0.00  0.00     0.174 HD
HETATM   19  H   UNK N   1      35.092  17.166  10.499  0.00  0.00     0.174 HD
ENDBRANCH   5   7
BRANCH   1  20
HETATM   20  C   UNK N   1      34.877  12.052  16.302  0.00  0.00    -0.023 A 
HETATM   21  C   UNK N   1      35.026  11.010  17.230  0.00  0.00     0.012 A 
HETATM   22  C   UNK N   1      35.297  11.294  18.572  0.00  0.00     0.004 A 
HETATM   23  C   UNK N   1      35.416  12.619  18.997  0.00  0.00     0.037 A 
HETATM   24  C   UNK N   1      35.261  13.673  18.079  0.00  0.00     0.069 A 
HETATM   25  C   UNK N   1      35.000  13.380  16.739  0.00  0.00     0.049 A 
BRANCH  24  26
HETATM   26  O   UNK N   1      35.363  14.970  18.456  0.00  0.00    -0.356 OA
HETATM   27  C   UNK N   1      36.311  15.831  17.954  0.00  0.00     0.210 C 
ENDBRANCH  24  26
ENDBRANCH   1  20
TORSDOF 3
ENDMDL
MODEL 6
REMARK VINA RESULT:      -7.5      6.013     11.290
REMARK  3 active torsions:
REMARK  status: ('A' for Active; 'I' for Inactive)
REMARK    1  A    between atoms: O_2  and  C_3 
REMARK    2  A    between atoms: C_7  and  C_9 
REMARK    3  A    between atoms: C_14  and  C_13 
REMARK       I    between atoms: C_21  and  N_22 
ROOT
HETATM    1  C   UNK N   1      35.406  12.935  14.268  0.00  0.00    -0.025 A 
HETATM    2  C   UNK N   1      34.906  11.630  14.406  0.00  0.00     0.012 A 
HETATM    3  C   UNK N   1      34.539  10.894  13.278  0.00  0.00     0.002 A 
HETATM    4  C   UNK N   1      34.708  11.437  12.002  0.00  0.00     0.010 A 
HETATM    5  C   UNK N   1      35.208  12.742  11.842  0.00  0.00    -0.029 A 
HETATM    6  C   UNK N   1      35.533  13.485  12.985  0.00  0.00     0.022 A 
ENDROOT
BRANCH   5   7
HETATM    7  C   UNK N   1      35.472  13.332  10.466  0.00  0.00     0.079 C 
HETATM    8  C   UNK N   1      36.853  12.892  10.004  0.00  0.00     0.045 C 
HETATM    9  C   UNK N   1      34.502  12.773   9.414  0.00  0.00     0.140 C 
HETATM   10  C   UNK N   1      33.381  13.682   9.045  0.00  0.00     0.240 C 
HETATM   11  O   UNK N   1      32.431  13.221   8.428  0.00  0.00    -0.272 OA
HETATM   12  N   UNK N   1      33.443  15.007   9.332  0.00  0.00    -0.156 N 
HETATM   13  C   UNK N   1      32.382  15.887   8.896  0.00  0.00     0.178 C 
HETATM   14  C   UNK N   1      34.559  15.550  10.039  0.00  0.00     0.677 C 
HETATM   15  N   UNK N   1      35.462  14.784  10.556  0.00  0.00    -0.213 N 
HETATM   16  N   UNK N   1      34.661  16.949  10.224  0.00  0.00    -0.234 N 
ATOM     17  HN  UNK N   1      36.224  15.231  11.067  1.00  0.00     0.179 HD
HETATM   18  H   UNK N   1      34.948  17.566  10.936  0.00  0.00     0.174 HD
HETATM   19  H   UNK N   1      34.364  17.439   9.424  0.00  0.00     0.174 HD
ENDBRANCH   5   7
BRANCH   1  20
HETATM   20  C   UNK N   1      35.889  13.695  15.443  0.00  0.00    -0.023 A 
HETATM   21  C   UNK N   1      36.844  14.713  15.299  0.00  0.00     0.012 A 
HETATM   22  C   UNK N   1      37.237  15.472  16.405  0.00  0.00     0.004 A 
HETATM   23  C   UNK N   1      36.684  15.216  17.663  0.00  0.00     0.037 A 
HETATM   24  C   UNK N   1      35.732  14.194  17.822  0.00  0.00     0.069 A 
HETATM   25  C   UNK N   1      35.338  13.448  16.710  0.00  0.00     0.049 A 
BRANCH  24  26
HETATM   26  O   UNK N   1      35.179  13.914  19.026  0.00  0.00    -0.356 OA
HETATM   27  C   UNK N   1      35.222  12.668  19.606  0.00  0.00     0.210 C 
ENDBRANCH  24  26
ENDBRANCH   1  20
TORSDOF 3
ENDMDL
MODEL 7
REMARK VINA RESULT:      -7.5      7.101     11.961
REMARK  3 active torsions:
REMARK  status: ('A' for Active; 'I' for Inactive)
REMARK    1  A    between atoms: O_2  and  C_3 
REMARK    2  A    between atoms: C_7  and  C_9 
REMARK    3  A    between atoms: C_14  and  C_13 
REMARK       I    between atoms: C_21  and  N_22 
ROOT
HETATM    1  C   UNK N   1      34.738  11.880  14.926  0.00  0.00    -0.025 A 
HETATM    2  C   UNK N   1      33.968  10.761  14.572  0.00  0.00     0.012 A 
HETATM    3  C   UNK N   1      33.815  10.408  13.229  0.00  0.00     0.002 A 
HETATM    4  C   UNK N   1      34.464  11.142  12.234  0.00  0.00     0.010 A 
HETATM    5  C   UNK N   1      35.241  12.266  12.567  0.00  0.00    -0.029 A 
HETATM    6  C   UNK N   1      35.352  12.634  13.915  0.00  0.00     0.022 A 
ENDROOT
BRANCH   5   7
HETATM    7  C   UNK N   1      36.017  13.039  11.515  0.00  0.00     0.079 C 
HETATM    8  C   UNK N   1      37.498  12.731  11.677  0.00  0.00     0.045 C 
HETATM    9  C   UNK N   1      35.667  12.572  10.094  0.00  0.00     0.140 C 
HETATM   10  C   UNK N   1      34.734  13.465   9.350  0.00  0.00     0.240 C 
HETATM   11  O   UNK N   1      34.200  13.041   8.336  0.00  0.00    -0.272 OA
HETATM   12  N   UNK N   1      34.530  14.743   9.757  0.00  0.00    -0.156 N 
HETATM   13  C   UNK N   1      33.683  15.619   8.978  0.00  0.00     0.178 C 
HETATM   14  C   UNK N   1      35.164  15.246  10.934  0.00  0.00     0.677 C 
HETATM   15  N   UNK N   1      35.823  14.466  11.725  0.00  0.00    -0.213 N 
HETATM   16  N   UNK N   1      35.033  16.613  11.274  0.00  0.00    -0.234 N 
ATOM     17  HN  UNK N   1      36.237  14.880  12.561  1.00  0.00     0.179 HD
HETATM   18  H   UNK N   1      34.917  17.147  12.093  0.00  0.00     0.174 HD
HETATM   19  H   UNK N   1      35.068  17.186  10.475  0.00  0.00     0.174 HD
ENDBRANCH   5   7
BRANCH   1  20
HETATM   20  C   UNK N   1      34.990  12.214  16.346  0.00  0.00    -0.023 A 
HETATM   21  C   UNK N   1      35.001  13.549  16.780  0.00  0.00     0.012 A 
HETATM   22  C   UNK N   1      35.166  13.848  18.136  0.00  0.00     0.004 A 
HETATM   23  C   UNK N   1      35.329  12.817  19.066  0.00  0.00     0.037 A 
HETATM   24  C   UNK N   1      35.328  11.476  18.642  0.00  0.00     0.069 A 
HETATM   25  C   UNK N   1      35.151  11.187  17.288  0.00  0.00     0.049 A 
BRANCH  24  26
HETATM   26  O   UNK N   1      35.488  10.452  19.513  0.00  0.00    -0.356 OA
HETATM   27  C   UNK N   1      34.486   9.564  19.829  0.00  0.00     0.210 C 
ENDBRANCH  24  26
ENDBRANCH   1  20
TORSDOF 3
ENDMDL
MODEL 8
REMARK VINA RESULT:      -7.3      2.099      2.602
REMARK  3 active torsions:
REMARK  status: ('A' for Active; 'I' for Inactive)
REMARK    1  A    between atoms: O_2  and  C_3 
REMARK    2  A    between atoms: C_7  and  C_9 
REMARK    3  A    between atoms: C_14  and  C_13 
REMARK       I    between atoms: C_21  and  N_22 
ROOT
HETATM    1  C   UNK N   1      28.215  18.165   5.453  0.00  0.00    -0.025 A 
HETATM    2  C   UNK N   1      28.185  18.144   6.856  0.00  0.00     0.012 A 
HETATM    3  C   UNK N   1      29.264  17.624   7.575  0.00  0.00     0.002 A 
HETATM    4  C   UNK N   1      30.397  17.163   6.902  0.00  0.00     0.010 A 
HETATM    5  C   UNK N   1      30.448  17.176   5.497  0.00  0.00    -0.029 A 
HETATM    6  C   UNK N   1      29.341  17.661   4.786  0.00  0.00     0.022 A 
ENDROOT
BRANCH   5   7
HETATM    7  C   UNK N   1      31.694  16.749   4.739  0.00  0.00     0.079 C 
HETATM    8  C   UNK N   1      31.472  17.000   3.255  0.00  0.00     0.045 C 
HETATM    9  C   UNK N   1      32.908  17.614   5.112  0.00  0.00     0.140 C 
HETATM   10  C   UNK N   1      33.866  16.977   6.059  0.00  0.00     0.240 C 
HETATM   11  O   UNK N   1      34.702  17.680   6.608  0.00  0.00    -0.272 OA
HETATM   12  N   UNK N   1      33.851  15.635   6.259  0.00  0.00    -0.156 N 
HETATM   13  C   UNK N   1      34.840  15.026   7.121  0.00  0.00     0.178 C 
HETATM   14  C   UNK N   1      32.886  14.809   5.607  0.00  0.00     0.677 C 
HETATM   15  N   UNK N   1      31.910  15.323   4.933  0.00  0.00    -0.213 N 
HETATM   16  N   UNK N   1      32.961  13.402   5.735  0.00  0.00    -0.234 N 
ATOM     17  HN  UNK N   1      31.241  14.682   4.507  1.00  0.00     0.179 HD
HETATM   18  H   UNK N   1      32.335  12.650   5.839  0.00  0.00     0.174 HD
HETATM   19  H   UNK N   1      33.894  13.091   5.715  0.00  0.00     0.174 HD
ENDBRANCH   5   7
BRANCH   1  20
HETATM   20  C   UNK N   1      27.125  18.798   4.676  0.00  0.00    -0.023 A 
HETATM   21  C   UNK N   1      27.355  19.964   3.929  0.00  0.00     0.012 A 
HETATM   22  C   UNK N   1      26.337  20.509   3.142  0.00  0.00     0.004 A 
HETATM   23  C   UNK N   1      25.081  19.898   3.099  0.00  0.00     0.037 A 
HETATM   24  C   UNK N   1      24.835  18.734   3.849  0.00  0.00     0.069 A 
HETATM   25  C   UNK N   1      25.861  18.191   4.624  0.00  0.00     0.049 A 
BRANCH  24  26
HETATM   26  O   UNK N   1      23.629  18.119   3.837  0.00  0.00    -0.356 OA
HETATM   27  C   UNK N   1      22.434  18.798   3.803  0.00  0.00     0.210 C 
ENDBRANCH  24  26
ENDBRANCH   1  20
TORSDOF 3
ENDMDL
MODEL 9
REMARK VINA RESULT:      -7.3     10.255     14.039
REMARK  3 active torsions:
REMARK  status: ('A' for Active; 'I' for Inactive)
REMARK    1  A    between atoms: O_2  and  C_3 
REMARK    2  A    between atoms: C_7  and  C_9 
REMARK    3  A    between atoms: C_14  and  C_13 
REMARK       I    between atoms: C_21  and  N_22 
ROOT
HETATM    1  C   UNK N   1      34.935  12.157  16.697  0.00  0.00    -0.025 A 
HETATM    2  C   UNK N   1      35.070  13.482  17.139  0.00  0.00     0.012 A 
HETATM    3  C   UNK N   1      35.266  13.756  18.494  0.00  0.00     0.002 A 
HETATM    4  C   UNK N   1      35.374  12.707  19.412  0.00  0.00     0.010 A 
HETATM    5  C   UNK N   1      35.242  11.373  18.990  0.00  0.00    -0.029 A 
HETATM    6  C   UNK N   1      35.004  11.114  17.633  0.00  0.00     0.022 A 
ENDROOT
BRANCH   5   7
HETATM    7  C   UNK N   1      35.427  10.210  19.951  0.00  0.00     0.079 C 
HETATM    8  C   UNK N   1      36.763  10.372  20.661  0.00  0.00     0.045 C 
HETATM    9  C   UNK N   1      34.376  10.228  21.070  0.00  0.00     0.140 C 
HETATM   10  C   UNK N   1      33.255   9.262  20.897  0.00  0.00     0.240 C 
HETATM   11  O   UNK N   1      32.255   9.395  21.588  0.00  0.00    -0.272 OA
HETATM   12  N   UNK N   1      33.367   8.221  20.034  0.00  0.00    -0.156 N 
HETATM   13  C   UNK N   1      32.301   7.250  19.938  0.00  0.00     0.178 C 
HETATM   14  C   UNK N   1      34.541   8.055  19.237  0.00  0.00     0.677 C 
HETATM   15  N   UNK N   1      35.458   8.965  19.199  0.00  0.00    -0.213 N 
HETATM   16  N   UNK N   1      34.689   6.901  18.434  0.00  0.00    -0.234 N 
ATOM     17  HN  UNK N   1      36.264   8.798  18.595  1.00  0.00     0.179 HD
HETATM   18  H   UNK N   1      35.038   6.680  17.540  0.00  0.00     0.174 HD
HETATM   19  H   UNK N   1      34.350   6.099  18.893  0.00  0.00     0.174 HD
ENDBRANCH   5   7
BRANCH   1  20
HETATM   20  C   UNK N   1      34.822  11.841  15.255  0.00  0.00    -0.023 A 
HETATM   21  C   UNK N   1      34.180  10.671  14.822  0.00  0.00     0.012 A 
HETATM   22  C   UNK N   1      34.014  10.421  13.457  0.00  0.00     0.004 A 
HETATM   23  C   UNK N   1      34.494  11.334  12.514  0.00  0.00     0.037 A 
HETATM   24  C   UNK N   1      35.146  12.507  12.935  0.00  0.00     0.069 A 
HETATM   25  C   UNK N   1      35.298  12.753  14.300  0.00  0.00     0.049 A 
BRANCH  24  26
HETATM   26  O   UNK N   1      35.629  13.412  12.051  0.00  0.00    -0.356 OA
HETATM   27  C   UNK N   1      35.931  14.711  12.387  0.00  0.00     0.210 C 
ENDBRANCH  24  26
ENDBRANCH   1  20
TORSDOF 3
ENDMDL
