MODEL 1
REMARK VINA RESULT:      -8.4      0.000      0.000
REMARK  7 active torsions:
REMARK  status: ('A' for Active; 'I' for Inactive)
REMARK    1  A    between atoms: C_4  and  N_5 
REMARK    2  A    between atoms: C_14  and  N_15 
REMARK       I    between atoms: N_15  and  C_16 
REMARK    3  A    between atoms: C_16  and  C_18 
REMARK    4  A    between atoms: C_18  and  N_19 
REMARK    5  A    between atoms: C_21  and  O_22 
REMARK    6  A    between atoms: C_24  and  N_25 
REMARK       I    between atoms: N_25  and  C_26 
REMARK    7  A    between atoms: C_26  and  C_28 
ROOT
HETATM    1  N   UNK N   1      37.054  12.604  13.580  0.00  0.00    -0.323 N 
HETATM    2  C   UNK N   1      36.824  12.015  12.384  0.00  0.00     0.250 C 
HETATM    3  O   UNK N   1      36.097  11.034  12.302  0.00  0.00    -0.271 OA
HETATM    4  H   UNK N   1      37.581  13.436  13.607  0.00  0.00     0.169 HD
ENDROOT
BRANCH   2   5
HETATM    5  C   UNK N   1      37.480  12.573  11.149  0.00  0.00     0.375 C 
BRANCH   5   6
HETATM    6  N   UNK N   1      36.574  13.363  10.303  0.00  0.00     0.101 N 
HETATM    7  C   UNK N   1      36.961  14.779  10.300  0.00  0.00     0.300 C 
HETATM    8  C   UNK N   1      35.674  15.573  10.368  0.00  0.00     0.143 C 
HETATM    9  C   UNK N   1      34.861  14.690  11.293  0.00  0.00     0.171 C 
HETATM   10  C   UNK N   1      35.188  13.300  10.788  0.00  0.00     0.306 C 
BRANCH   8  11
HETATM   11  N   UNK N   1      35.128  15.643   9.026  0.00  0.00    -0.348 N 
HETATM   12  C   UNK N   1      34.670  16.786   8.455  0.00  0.00     0.259 C 
HETATM   13  O   UNK N   1      34.681  17.841   9.074  0.00  0.00    -0.267 OA
HETATM   14  H   UNK N   1      35.087  14.813   8.499  0.00  0.00     0.163 HD
BRANCH  12  15
HETATM   15  C   UNK N   1      34.242  16.764   7.051  0.00  0.00     0.074 A 
HETATM   16  C   UNK N   1      33.399  17.697   6.435  0.00  0.00     0.027 A 
HETATM   17  C   UNK N   1      33.096  17.367   5.082  0.00  0.00     0.033 A 
HETATM   18  C   UNK N   1      33.703  16.180   4.663  0.00  0.00     0.075 A 
HETATM   19  S   UNK N   1      34.579  15.587   5.934  0.00  0.00    -0.072 SA
HETATM   20 Cl   UNK N   1      33.529  15.425   3.095  0.00  0.00    -0.076 Cl
ENDBRANCH  12  15
ENDBRANCH   8  11
BRANCH   9  21
HETATM   21  O   UNK N   1      33.492  14.958  11.270  0.00  0.00    -0.392 OA
HETATM   22  H   UNK N   1      32.959  15.409  11.943  0.00  0.00     0.210 HD
ENDBRANCH   9  21
ENDBRANCH   5   6
ENDBRANCH   2   5
BRANCH   1  23
HETATM   23  C   UNK N   1      36.564  12.066  14.793  0.00  0.00     0.073 A 
HETATM   24  C   UNK N   1      35.452  12.643  15.422  0.00  0.00     0.145 A 
HETATM   25  F   UNK N   1      34.833  13.716  14.875  0.00  0.00    -0.204 F 
HETATM   26  C   UNK N   1      34.961  12.097  16.607  0.00  0.00     0.074 A 
HETATM   27  C   UNK N   1      35.560  10.964  17.188  0.00  0.00     0.045 A 
HETATM   28  C   UNK N   1      36.676  10.398  16.542  0.00  0.00     0.032 A 
HETATM   29  C   UNK N   1      37.174  10.943  15.356  0.00  0.00     0.035 A 
BRANCH  27  30
HETATM   30  N   UNK N   1      35.010  10.394  18.411  0.00  0.00    -0.290 N 
HETATM   31  C   UNK N   1      34.301   9.225  18.311  0.00  0.00     0.100 A 
HETATM   32  C   UNK N   1      33.751   8.608  19.434  0.00  0.00     0.018 A 
HETATM   33  C   UNK N   1      33.925   9.184  20.685  0.00  0.00     0.007 A 
HETATM   34  C   UNK N   1      34.644  10.369  20.803  0.00  0.00     0.075 A 
HETATM   35  C   UNK N   1      35.185  10.973  19.666  0.00  0.00     0.252 A 
HETATM   36  O   UNK N   1      35.817  12.006  19.804  0.00  0.00    -0.268 OA
ENDBRANCH  27  30
ENDBRANCH   1  23
TORSDOF 7
ENDMDL
MODEL 2
REMARK VINA RESULT:      -8.3      3.083      4.046
REMARK  7 active torsions:
REMARK  status: ('A' for Active; 'I' for Inactive)
REMARK    1  A    between atoms: C_4  and  N_5 
REMARK    2  A    between atoms: C_14  and  N_15 
REMARK       I    between atoms: N_15  and  C_16 
REMARK    3  A    between atoms: C_16  and  C_18 
REMARK    4  A    between atoms: C_18  and  N_19 
REMARK    5  A    between atoms: C_21  and  O_22 
REMARK    6  A    between atoms: C_24  and  N_25 
REMARK       I    between atoms: N_25  and  C_26 
REMARK    7  A    between atoms: C_26  and  C_28 
ROOT
HETATM    1  N   UNK N   1      36.286  14.360  12.015  0.00  0.00    -0.323 N 
HETATM    2  C   UNK N   1      35.274  14.832  11.251  0.00  0.00     0.250 C 
HETATM    3  O   UNK N   1      34.151  14.970  11.718  0.00  0.00    -0.271 OA
HETATM    4  H   UNK N   1      37.194  14.330  11.636  0.00  0.00     0.169 HD
ENDROOT
BRANCH   2   5
HETATM    5  C   UNK N   1      35.540  15.180   9.810  0.00  0.00     0.375 C 
BRANCH   5   6
HETATM    6  N   UNK N   1      34.340  15.603   9.072  0.00  0.00     0.101 N 
HETATM    7  C   UNK N   1      34.073  14.701   7.945  0.00  0.00     0.300 C 
HETATM    8  C   UNK N   1      33.645  15.580   6.789  0.00  0.00     0.143 C 
HETATM    9  C   UNK N   1      34.549  16.776   7.010  0.00  0.00     0.171 C 
HETATM   10  C   UNK N   1      34.494  16.953   8.514  0.00  0.00     0.306 C 
BRANCH   8  11
HETATM   11  N   UNK N   1      32.240  15.890   6.968  0.00  0.00    -0.348 N 
HETATM   12  C   UNK N   1      31.421  16.293   5.965  0.00  0.00     0.259 C 
HETATM   13  O   UNK N   1      31.849  16.436   4.828  0.00  0.00    -0.267 OA
HETATM   14  H   UNK N   1      31.858  15.804   7.871  0.00  0.00     0.163 HD
BRANCH  12  15
HETATM   15  C   UNK N   1      29.989  16.474   6.236  0.00  0.00     0.074 A 
HETATM   16  C   UNK N   1      29.434  17.358   7.168  0.00  0.00     0.027 A 
HETATM   17  C   UNK N   1      28.016  17.250   7.264  0.00  0.00     0.033 A 
HETATM   18  C   UNK N   1      27.486  16.280   6.410  0.00  0.00     0.075 A 
HETATM   19  S   UNK N   1      28.743  15.604   5.575  0.00  0.00    -0.072 SA
HETATM   20 Cl   UNK N   1      25.802  15.823   6.280  0.00  0.00    -0.076 Cl
ENDBRANCH  12  15
ENDBRANCH   8  11
BRANCH   9  21
HETATM   21  O   UNK N   1      34.148  17.922   6.323  0.00  0.00    -0.392 OA
HETATM   22  H   UNK N   1      34.704  18.634   5.971  0.00  0.00     0.210 HD
ENDBRANCH   9  21
ENDBRANCH   5   6
ENDBRANCH   2   5
BRANCH   1  23
HETATM   23  C   UNK N   1      36.082  13.906  13.339  0.00  0.00     0.073 A 
HETATM   24  C   UNK N   1      35.292  12.775  13.583  0.00  0.00     0.145 A 
HETATM   25  F   UNK N   1      34.719  12.101  12.557  0.00  0.00    -0.204 F 
HETATM   26  C   UNK N   1      35.109  12.320  14.888  0.00  0.00     0.074 A 
HETATM   27  C   UNK N   1      35.713  12.976  15.977  0.00  0.00     0.045 A 
HETATM   28  C   UNK N   1      36.503  14.112  15.713  0.00  0.00     0.032 A 
HETATM   29  C   UNK N   1      36.686  14.572  14.407  0.00  0.00     0.035 A 
BRANCH  27  30
HETATM   30  N   UNK N   1      35.532  12.465  17.330  0.00  0.00    -0.290 N 
HETATM   31  C   UNK N   1      35.625  11.111  17.521  0.00  0.00     0.100 A 
HETATM   32  C   UNK N   1      35.475  10.541  18.784  0.00  0.00     0.018 A 
HETATM   33  C   UNK N   1      35.229  11.360  19.879  0.00  0.00     0.007 A 
HETATM   34  C   UNK N   1      35.134  12.736  19.701  0.00  0.00     0.075 A 
HETATM   35  C   UNK N   1      35.284  13.287  18.427  0.00  0.00     0.252 A 
HETATM   36  O   UNK N   1      35.204  14.497  18.306  0.00  0.00    -0.268 OA
ENDBRANCH  27  30
ENDBRANCH   1  23
TORSDOF 7
ENDMDL
MODEL 3
REMARK VINA RESULT:      -8.2      2.611      3.016
REMARK  7 active torsions:
REMARK  status: ('A' for Active; 'I' for Inactive)
REMARK    1  A    between atoms: C_4  and  N_5 
REMARK    2  A    between atoms: C_14  and  N_15 
REMARK       I    between atoms: N_15  and  C_16 
REMARK    3  A    between atoms: C_16  and  C_18 
REMARK    4  A    between atoms: C_18  and  N_19 
REMARK    5  A    between atoms: C_21  and  O_22 
REMARK    6  A    between atoms: C_24  and  N_25 
REMARK       I    between atoms: N_25  and  C_26 
REMARK    7  A    between atoms: C_26  and  C_28 
ROOT
HETATM    1  N   UNK N   1      34.671  12.222  11.943  0.00  0.00    -0.323 N 
HETATM    2  C   UNK N   1      35.692  12.297  11.058  0.00  0.00     0.250 C 
HETATM    3  O   UNK N   1      36.847  12.114  11.421  0.00  0.00    -0.271 OA
HETATM    4  H   UNK N   1      33.747  12.299  11.612  0.00  0.00     0.169 HD
ENDROOT
BRANCH   2   5
HETATM    5  C   UNK N   1      35.396  12.620   9.618  0.00  0.00     0.375 C 
BRANCH   5   6
HETATM    6  N   UNK N   1      34.470  13.749   9.443  0.00  0.00     0.101 N 
HETATM    7  C   UNK N   1      34.745  14.464   8.191  0.00  0.00     0.300 C 
HETATM    8  C   UNK N   1      34.609  15.938   8.503  0.00  0.00     0.143 C 
HETATM    9  C   UNK N   1      35.190  15.972   9.902  0.00  0.00     0.171 C 
HETATM   10  C   UNK N   1      34.598  14.728  10.531  0.00  0.00     0.306 C 
BRANCH   8  11
HETATM   11  N   UNK N   1      33.198  16.268   8.466  0.00  0.00    -0.348 N 
HETATM   12  C   UNK N   1      32.718  17.515   8.233  0.00  0.00     0.259 C 
HETATM   13  O   UNK N   1      33.482  18.455   8.054  0.00  0.00    -0.267 OA
HETATM   14  H   UNK N   1      32.549  15.544   8.620  0.00  0.00     0.163 HD
BRANCH  12  15
HETATM   15  C   UNK N   1      31.269  17.716   8.107  0.00  0.00     0.074 A 
HETATM   16  C   UNK N   1      30.459  18.438   8.992  0.00  0.00     0.027 A 
HETATM   17  C   UNK N   1      29.077  18.387   8.650  0.00  0.00     0.033 A 
HETATM   18  C   UNK N   1      28.827  17.623   7.507  0.00  0.00     0.075 A 
HETATM   19  S   UNK N   1      30.277  17.051   6.958  0.00  0.00    -0.072 SA
HETATM   20 Cl   UNK N   1      27.259  17.286   6.809  0.00  0.00    -0.076 Cl
ENDBRANCH  12  15
ENDBRANCH   8  11
BRANCH   9  21
HETATM   21  O   UNK N   1      34.878  17.131  10.615  0.00  0.00    -0.392 OA
HETATM   22  H   UNK N   1      34.882  17.262  11.575  0.00  0.00     0.210 HD
ENDBRANCH   9  21
ENDBRANCH   5   6
ENDBRANCH   2   5
BRANCH   1  23
HETATM   23  C   UNK N   1      34.887  12.037  13.329  0.00  0.00     0.073 A 
HETATM   24  C   UNK N   1      35.429  13.073  14.103  0.00  0.00     0.145 A 
HETATM   25  F   UNK N   1      35.746  14.261  13.535  0.00  0.00    -0.204 F 
HETATM   26  C   UNK N   1      35.621  12.894  15.471  0.00  0.00     0.074 A 
HETATM   27  C   UNK N   1      35.275  11.684  16.101  0.00  0.00     0.045 A 
HETATM   28  C   UNK N   1      34.732  10.654  15.308  0.00  0.00     0.032 A 
HETATM   29  C   UNK N   1      34.540  10.828  13.936  0.00  0.00     0.035 A 
BRANCH  27  30
HETATM   30  N   UNK N   1      35.458  11.530  17.539  0.00  0.00    -0.290 N 
HETATM   31  C   UNK N   1      35.921  10.324  18.000  0.00  0.00     0.100 A 
HETATM   32  C   UNK N   1      36.132  10.098  19.359  0.00  0.00     0.018 A 
HETATM   33  C   UNK N   1      35.875  11.114  20.271  0.00  0.00     0.007 A 
HETATM   34  C   UNK N   1      35.408  12.342  19.818  0.00  0.00     0.075 A 
HETATM   35  C   UNK N   1      35.199  12.549  18.453  0.00  0.00     0.252 A 
HETATM   36  O   UNK N   1      34.797  13.640  18.086  0.00  0.00    -0.268 OA
ENDBRANCH  27  30
ENDBRANCH   1  23
TORSDOF 7
ENDMDL
MODEL 4
REMARK VINA RESULT:      -8.2      1.951      2.325
REMARK  7 active torsions:
REMARK  status: ('A' for Active; 'I' for Inactive)
REMARK    1  A    between atoms: C_4  and  N_5 
REMARK    2  A    between atoms: C_14  and  N_15 
REMARK       I    between atoms: N_15  and  C_16 
REMARK    3  A    between atoms: C_16  and  C_18 
REMARK    4  A    between atoms: C_18  and  N_19 
REMARK    5  A    between atoms: C_21  and  O_22 
REMARK    6  A    between atoms: C_24  and  N_25 
REMARK       I    between atoms: N_25  and  C_26 
REMARK    7  A    between atoms: C_26  and  C_28 
ROOT
HETATM    1  N   UNK N   1      36.083  11.918  11.828  0.00  0.00    -0.323 N 
HETATM    2  C   UNK N   1      36.485  13.073  11.248  0.00  0.00     0.250 C 
HETATM    3  O   UNK N   1      36.770  14.047  11.930  0.00  0.00    -0.271 OA
HETATM    4  H   UNK N   1      35.933  11.127  11.260  0.00  0.00     0.169 HD
ENDROOT
BRANCH   2   5
HETATM    5  C   UNK N   1      36.569  13.152   9.747  0.00  0.00     0.375 C 
BRANCH   5   6
HETATM    6  N   UNK N   1      35.454  13.886   9.130  0.00  0.00     0.101 N 
HETATM    7  C   UNK N   1      35.706  15.332   9.144  0.00  0.00     0.300 C 
HETATM    8  C   UNK N   1      34.389  15.990   9.493  0.00  0.00     0.143 C 
HETATM    9  C   UNK N   1      33.845  14.991  10.494  0.00  0.00     0.171 C 
HETATM   10  C   UNK N   1      34.194  13.664   9.853  0.00  0.00     0.306 C 
BRANCH   8  11
HETATM   11  N   UNK N   1      33.599  16.066   8.279  0.00  0.00    -0.348 N 
HETATM   12  C   UNK N   1      33.245  17.230   7.679  0.00  0.00     0.259 C 
HETATM   13  O   UNK N   1      33.572  18.306   8.160  0.00  0.00    -0.267 OA
HETATM   14  H   UNK N   1      33.301  15.223   7.868  0.00  0.00     0.163 HD
BRANCH  12  15
HETATM   15  C   UNK N   1      32.538  17.188   6.393  0.00  0.00     0.074 A 
HETATM   16  C   UNK N   1      33.083  17.512   5.144  0.00  0.00     0.027 A 
HETATM   17  C   UNK N   1      32.129  17.455   4.088  0.00  0.00     0.033 A 
HETATM   18  C   UNK N   1      30.852  17.092   4.526  0.00  0.00     0.075 A 
HETATM   19  S   UNK N   1      30.932  16.850   6.160  0.00  0.00    -0.072 SA
HETATM   20 Cl   UNK N   1      29.415  16.965   3.538  0.00  0.00    -0.076 Cl
ENDBRANCH  12  15
ENDBRANCH   8  11
BRANCH   9  21
HETATM   21  O   UNK N   1      32.477  15.123  10.737  0.00  0.00    -0.392 OA
HETATM   22  H   UNK N   1      31.796  15.478  10.146  0.00  0.00     0.210 HD
ENDBRANCH   9  21
ENDBRANCH   5   6
ENDBRANCH   2   5
BRANCH   1  23
HETATM   23  C   UNK N   1      35.872  11.809  13.223  0.00  0.00     0.073 A 
HETATM   24  C   UNK N   1      36.947  11.535  14.080  0.00  0.00     0.145 A 
HETATM   25  F   UNK N   1      38.197  11.377  13.585  0.00  0.00    -0.204 F 
HETATM   26  C   UNK N   1      36.738  11.447  15.455  0.00  0.00     0.074 A 
HETATM   27  C   UNK N   1      35.457  11.636  16.008  0.00  0.00     0.045 A 
HETATM   28  C   UNK N   1      34.389  11.909  15.132  0.00  0.00     0.032 A 
HETATM   29  C   UNK N   1      34.594  11.995  13.753  0.00  0.00     0.035 A 
BRANCH  27  30
HETATM   30  N   UNK N   1      35.268  11.568  17.451  0.00  0.00    -0.290 N 
HETATM   31  C   UNK N   1      35.118  10.330  18.021  0.00  0.00     0.100 A 
HETATM   32  C   UNK N   1      34.941  10.178  19.395  0.00  0.00     0.018 A 
HETATM   33  C   UNK N   1      34.921  11.301  20.212  0.00  0.00     0.007 A 
HETATM   34  C   UNK N   1      35.075  12.563  19.649  0.00  0.00     0.075 A 
HETATM   35  C   UNK N   1      35.246  12.696  18.269  0.00  0.00     0.252 A 
HETATM   36  O   UNK N   1      35.386  13.816  17.807  0.00  0.00    -0.268 OA
ENDBRANCH  27  30
ENDBRANCH   1  23
TORSDOF 7
ENDMDL
MODEL 5
REMARK VINA RESULT:      -8.1      4.422      7.232
REMARK  7 active torsions:
REMARK  status: ('A' for Active; 'I' for Inactive)
REMARK    1  A    between atoms: C_4  and  N_5 
REMARK    2  A    between atoms: C_14  and  N_15 
REMARK       I    between atoms: N_15  and  C_16 
REMARK    3  A    between atoms: C_16  and  C_18 
REMARK    4  A    between atoms: C_18  and  N_19 
REMARK    5  A    between atoms: C_21  and  O_22 
REMARK    6  A    between atoms: C_24  and  N_25 
REMARK       I    between atoms: N_25  and  C_26 
REMARK    7  A    between atoms: C_26  and  C_28 
ROOT
HETATM    1  N   UNK N   1      34.343  15.360   7.397  0.00  0.00    -0.323 N 
HETATM    2  C   UNK N   1      34.313  16.638   6.952  0.00  0.00     0.250 C 
HETATM    3  O   UNK N   1      34.682  17.558   7.670  0.00  0.00    -0.271 OA
HETATM    4  H   UNK N   1      34.113  14.633   6.774  0.00  0.00     0.169 HD
ENDROOT
BRANCH   2   5
HETATM    5  C   UNK N   1      33.809  16.921   5.561  0.00  0.00     0.375 C 
BRANCH   5   6
HETATM    6  N   UNK N   1      32.359  17.153   5.493  0.00  0.00     0.101 N 
HETATM    7  C   UNK N   1      31.803  17.391   6.831  0.00  0.00     0.300 C 
HETATM    8  C   UNK N   1      30.485  16.650   6.882  0.00  0.00     0.143 C 
HETATM    9  C   UNK N   1      30.837  15.416   6.076  0.00  0.00     0.171 C 
HETATM   10  C   UNK N   1      31.650  15.993   4.936  0.00  0.00     0.306 C 
BRANCH   8  11
HETATM   11  N   UNK N   1      29.486  17.482   6.239  0.00  0.00    -0.348 N 
HETATM   12  C   UNK N   1      28.643  18.307   6.910  0.00  0.00     0.259 C 
HETATM   13  O   UNK N   1      28.677  18.376   8.131  0.00  0.00    -0.267 OA
HETATM   14  H   UNK N   1      29.414  17.444   5.258  0.00  0.00     0.163 HD
BRANCH  12  15
HETATM   15  C   UNK N   1      27.746  19.187   6.151  0.00  0.00     0.074 A 
HETATM   16  C   UNK N   1      27.407  20.503   6.489  0.00  0.00     0.027 A 
HETATM   17  C   UNK N   1      26.449  21.077   5.603  0.00  0.00     0.033 A 
HETATM   18  C   UNK N   1      26.050  20.200   4.591  0.00  0.00     0.075 A 
HETATM   19  S   UNK N   1      26.872  18.781   4.803  0.00  0.00    -0.072 SA
HETATM   20 Cl   UNK N   1      24.859  20.522   3.352  0.00  0.00    -0.076 Cl
ENDBRANCH  12  15
ENDBRANCH   8  11
BRANCH   9  21
HETATM   21  O   UNK N   1      29.728  14.696   5.631  0.00  0.00    -0.392 OA
HETATM   22  H   UNK N   1      28.872  15.040   5.333  0.00  0.00     0.210 HD
ENDBRANCH   9  21
ENDBRANCH   5   6
ENDBRANCH   2   5
BRANCH   1  23
HETATM   23  C   UNK N   1      34.695  15.034   8.728  0.00  0.00     0.073 A 
HETATM   24  C   UNK N   1      33.740  15.119   9.750  0.00  0.00     0.145 A 
HETATM   25  F   UNK N   1      32.472  15.509   9.477  0.00  0.00    -0.204 F 
HETATM   26  C   UNK N   1      34.085  14.778  11.057  0.00  0.00     0.074 A 
HETATM   27  C   UNK N   1      35.385  14.340  11.374  0.00  0.00     0.045 A 
HETATM   28  C   UNK N   1      36.331  14.261  10.334  0.00  0.00     0.032 A 
HETATM   29  C   UNK N   1      35.990  14.604   9.024  0.00  0.00     0.035 A 
BRANCH  27  30
HETATM   30  N   UNK N   1      35.714  13.960  12.742  0.00  0.00    -0.290 N 
HETATM   31  C   UNK N   1      36.437  14.848  13.496  0.00  0.00     0.100 A 
HETATM   32  C   UNK N   1      36.786  14.567  14.816  0.00  0.00     0.018 A 
HETATM   33  C   UNK N   1      36.391  13.363  15.387  0.00  0.00     0.007 A 
HETATM   34  C   UNK N   1      35.655  12.455  14.635  0.00  0.00     0.075 A 
HETATM   35  C   UNK N   1      35.318  12.753  13.313  0.00  0.00     0.252 A 
HETATM   36  O   UNK N   1      34.665  11.939  12.683  0.00  0.00    -0.268 OA
ENDBRANCH  27  30
ENDBRANCH   1  23
TORSDOF 7
ENDMDL
MODEL 6
REMARK VINA RESULT:      -8.1      5.242     12.238
REMARK  7 active torsions:
REMARK  status: ('A' for Active; 'I' for Inactive)
REMARK    1  A    between atoms: C_4  and  N_5 
REMARK    2  A    between atoms: C_14  and  N_15 
REMARK       I    between atoms: N_15  and  C_16 
REMARK    3  A    between atoms: C_16  and  C_18 
REMARK    4  A    between atoms: C_18  and  N_19 
REMARK    5  A    between atoms: C_21  and  O_22 
REMARK    6  A    between atoms: C_24  and  N_25 
REMARK       I    between atoms: N_25  and  C_26 
REMARK    7  A    between atoms: C_26  and  C_28 
ROOT
HETATM    1  N   UNK N   1      32.508  16.386   7.191  0.00  0.00    -0.323 N 
HETATM    2  C   UNK N   1      33.280  17.154   7.994  0.00  0.00     0.250 C 
HETATM    3  O   UNK N   1      32.948  18.300   8.268  0.00  0.00    -0.271 OA
HETATM    4  H   UNK N   1      32.760  15.445   7.048  0.00  0.00     0.169 HD
ENDROOT
BRANCH   2   5
HETATM    5  C   UNK N   1      34.562  16.588   8.544  0.00  0.00     0.375 C 
BRANCH   5   6
HETATM    6  N   UNK N   1      34.362  15.593   9.608  0.00  0.00     0.101 N 
HETATM    7  C   UNK N   1      35.425  14.581   9.586  0.00  0.00     0.300 C 
HETATM    8  C   UNK N   1      34.752  13.251   9.848  0.00  0.00     0.143 C 
HETATM    9  C   UNK N   1      33.454  13.453   9.093  0.00  0.00     0.171 C 
HETATM   10  C   UNK N   1      33.088  14.879   9.448  0.00  0.00     0.306 C 
BRANCH   8  11
HETATM   11  N   UNK N   1      34.563  13.127  11.280  0.00  0.00    -0.348 N 
HETATM   12  C   UNK N   1      35.322  12.335  12.077  0.00  0.00     0.259 C 
HETATM   13  O   UNK N   1      36.221  11.651  11.605  0.00  0.00    -0.267 OA
HETATM   14  H   UNK N   1      33.840  13.648  11.698  0.00  0.00     0.163 HD
BRANCH  12  15
HETATM   15  C   UNK N   1      35.115  12.370  13.530  0.00  0.00     0.074 A 
HETATM   16  C   UNK N   1      34.229  11.562  14.254  0.00  0.00     0.027 A 
HETATM   17  C   UNK N   1      34.188  11.884  15.642  0.00  0.00     0.033 A 
HETATM   18  C   UNK N   1      35.039  12.939  15.981  0.00  0.00     0.075 A 
HETATM   19  S   UNK N   1      35.804  13.431  14.600  0.00  0.00    -0.072 SA
HETATM   20 Cl   UNK N   1      35.226  13.650  17.568  0.00  0.00    -0.076 Cl
ENDBRANCH  12  15
ENDBRANCH   8  11
BRANCH   9  21
HETATM   21  O   UNK N   1      32.453  12.543   9.437  0.00  0.00    -0.392 OA
HETATM   22  H   UNK N   1      32.257  12.172  10.311  0.00  0.00     0.210 HD
ENDBRANCH   9  21
ENDBRANCH   5   6
ENDBRANCH   2   5
BRANCH   1  23
HETATM   23  C   UNK N   1      31.353  16.890   6.549  0.00  0.00     0.073 A 
HETATM   24  C   UNK N   1      30.176  17.103   7.280  0.00  0.00     0.145 A 
HETATM   25  F   UNK N   1      30.133  16.835   8.607  0.00  0.00    -0.204 F 
HETATM   26  C   UNK N   1      29.045  17.618   6.648  0.00  0.00     0.074 A 
HETATM   27  C   UNK N   1      29.062  17.938   5.278  0.00  0.00     0.045 A 
HETATM   28  C   UNK N   1      30.253  17.716   4.559  0.00  0.00     0.032 A 
HETATM   29  C   UNK N   1      31.387  17.198   5.188  0.00  0.00     0.035 A 
BRANCH  27  30
HETATM   30  N   UNK N   1      27.877  18.502   4.645  0.00  0.00    -0.290 N 
HETATM   31  C   UNK N   1      27.766  19.868   4.597  0.00  0.00     0.100 A 
HETATM   32  C   UNK N   1      26.669  20.489   4.001  0.00  0.00     0.018 A 
HETATM   33  C   UNK N   1      25.665  19.711   3.437  0.00  0.00     0.007 A 
HETATM   34  C   UNK N   1      25.766  18.325   3.475  0.00  0.00     0.075 A 
HETATM   35  C   UNK N   1      26.871  17.722   4.080  0.00  0.00     0.252 A 
HETATM   36  O   UNK N   1      26.933  16.504   4.090  0.00  0.00    -0.268 OA
ENDBRANCH  27  30
ENDBRANCH   1  23
TORSDOF 7
ENDMDL
MODEL 7
REMARK VINA RESULT:      -8.1      3.012      3.638
REMARK  7 active torsions:
REMARK  status: ('A' for Active; 'I' for Inactive)
REMARK    1  A    between atoms: C_4  and  N_5 
REMARK    2  A    between atoms: C_14  and  N_15 
REMARK       I    between atoms: N_15  and  C_16 
REMARK    3  A    between atoms: C_16  and  C_18 
REMARK    4  A    between atoms: C_18  and  N_19 
REMARK    5  A    between atoms: C_21  and  O_22 
REMARK    6  A    between atoms: C_24  and  N_25 
REMARK       I    between atoms: N_25  and  C_26 
REMARK    7  A    between atoms: C_26  and  C_28 
ROOT
HETATM    1  N   UNK N   1      34.833  12.340  11.528  0.00  0.00    -0.323 N 
HETATM    2  C   UNK N   1      35.699  11.704  10.705  0.00  0.00     0.250 C 
HETATM    3  O   UNK N   1      36.553  10.954  11.157  0.00  0.00    -0.271 OA
HETATM    4  H   UNK N   1      34.109  12.878  11.133  0.00  0.00     0.169 HD
ENDROOT
BRANCH   2   5
HETATM    5  C   UNK N   1      35.608  11.936   9.219  0.00  0.00     0.375 C 
BRANCH   5   6
HETATM    6  N   UNK N   1      34.805  13.113   8.853  0.00  0.00     0.101 N 
HETATM    7  C   UNK N   1      33.814  12.772   7.825  0.00  0.00     0.300 C 
HETATM    8  C   UNK N   1      33.794  13.931   6.852  0.00  0.00     0.143 C 
HETATM    9  C   UNK N   1      35.264  14.298   6.839  0.00  0.00     0.171 C 
HETATM   10  C   UNK N   1      35.640  14.189   8.302  0.00  0.00     0.306 C 
BRANCH   8  11
HETATM   11  N   UNK N   1      32.954  14.967   7.420  0.00  0.00    -0.348 N 
HETATM   12  C   UNK N   1      32.372  15.952   6.692  0.00  0.00     0.259 C 
HETATM   13  O   UNK N   1      32.548  16.023   5.483  0.00  0.00    -0.267 OA
HETATM   14  H   UNK N   1      32.799  14.957   8.392  0.00  0.00     0.163 HD
BRANCH  12  15
HETATM   15  C   UNK N   1      31.451  16.886   7.353  0.00  0.00     0.074 A 
HETATM   16  C   UNK N   1      31.762  17.721   8.432  0.00  0.00     0.027 A 
HETATM   17  C   UNK N   1      30.639  18.455   8.912  0.00  0.00     0.033 A 
HETATM   18  C   UNK N   1      29.466  18.178   8.204  0.00  0.00     0.075 A 
HETATM   19  S   UNK N   1      29.836  17.072   7.032  0.00  0.00    -0.072 SA
HETATM   20 Cl   UNK N   1      27.880  18.840   8.528  0.00  0.00    -0.076 Cl
ENDBRANCH  12  15
ENDBRANCH   8  11
BRANCH   9  21
HETATM   21  O   UNK N   1      35.524  15.565   6.314  0.00  0.00    -0.392 OA
HETATM   22  H   UNK N   1      34.893  16.275   6.124  0.00  0.00     0.210 HD
ENDBRANCH   9  21
ENDBRANCH   5   6
ENDBRANCH   2   5
BRANCH   1  23
HETATM   23  C   UNK N   1      34.934  12.258  12.937  0.00  0.00     0.073 A 
HETATM   24  C   UNK N   1      34.217  11.281  13.640  0.00  0.00     0.145 A 
HETATM   25  F   UNK N   1      33.425  10.402  12.980  0.00  0.00    -0.204 F 
HETATM   26  C   UNK N   1      34.334  11.191  15.025  0.00  0.00     0.074 A 
HETATM   27  C   UNK N   1      35.172  12.067  15.741  0.00  0.00     0.045 A 
HETATM   28  C   UNK N   1      35.885  13.043  15.018  0.00  0.00     0.032 A 
HETATM   29  C   UNK N   1      35.767  13.138  13.630  0.00  0.00     0.035 A 
BRANCH  27  30
HETATM   30  N   UNK N   1      35.302  11.935  17.187  0.00  0.00    -0.290 N 
HETATM   31  C   UNK N   1      35.654  10.709  17.689  0.00  0.00     0.100 A 
HETATM   32  C   UNK N   1      35.809  10.501  19.059  0.00  0.00     0.018 A 
HETATM   33  C   UNK N   1      35.607  11.557  19.939  0.00  0.00     0.007 A 
HETATM   34  C   UNK N   1      35.252  12.807  19.444  0.00  0.00     0.075 A 
HETATM   35  C   UNK N   1      35.098  12.994  18.069  0.00  0.00     0.252 A 
HETATM   36  O   UNK N   1      34.794  14.104  17.665  0.00  0.00    -0.268 OA
ENDBRANCH  27  30
ENDBRANCH   1  23
TORSDOF 7
ENDMDL
MODEL 8
REMARK VINA RESULT:      -7.8      2.546      3.196
REMARK  7 active torsions:
REMARK  status: ('A' for Active; 'I' for Inactive)
REMARK    1  A    between atoms: C_4  and  N_5 
REMARK    2  A    between atoms: C_14  and  N_15 
REMARK       I    between atoms: N_15  and  C_16 
REMARK    3  A    between atoms: C_16  and  C_18 
REMARK    4  A    between atoms: C_18  and  N_19 
REMARK    5  A    between atoms: C_21  and  O_22 
REMARK    6  A    between atoms: C_24  and  N_25 
REMARK       I    between atoms: N_25  and  C_26 
REMARK    7  A    between atoms: C_26  and  C_28 
ROOT
HETATM    1  N   UNK N   1      34.767  12.346  11.456  0.00  0.00    -0.323 N 
HETATM    2  C   UNK N   1      35.851  12.424  10.650  0.00  0.00     0.250 C 
HETATM    3  O   UNK N   1      36.981  12.363  11.116  0.00  0.00    -0.271 OA
HETATM    4  H   UNK N   1      33.871  12.323  11.049  0.00  0.00     0.169 HD
ENDROOT
BRANCH   2   5
HETATM    5  C   UNK N   1      35.655  12.598   9.167  0.00  0.00     0.375 C 
BRANCH   5   6
HETATM    6  N   UNK N   1      34.732  13.688   8.817  0.00  0.00     0.101 N 
HETATM    7  C   UNK N   1      35.257  14.481   7.699  0.00  0.00     0.300 C 
HETATM    8  C   UNK N   1      34.960  15.928   8.026  0.00  0.00     0.143 C 
HETATM    9  C   UNK N   1      35.183  15.917   9.525  0.00  0.00     0.171 C 
HETATM   10  C   UNK N   1      34.534  14.613   9.941  0.00  0.00     0.306 C 
BRANCH   8  11
HETATM   11  N   UNK N   1      33.582  16.190   7.659  0.00  0.00    -0.348 N 
HETATM   12  C   UNK N   1      33.205  17.125   6.751  0.00  0.00     0.259 C 
HETATM   13  O   UNK N   1      34.039  17.826   6.195  0.00  0.00    -0.267 OA
HETATM   14  H   UNK N   1      32.878  15.658   8.096  0.00  0.00     0.163 HD
BRANCH  12  15
HETATM   15  C   UNK N   1      31.791  17.229   6.373  0.00  0.00     0.074 A 
HETATM   16  C   UNK N   1      31.295  17.345   5.069  0.00  0.00     0.027 A 
HETATM   17  C   UNK N   1      29.880  17.511   5.023  0.00  0.00     0.033 A 
HETATM   18  C   UNK N   1      29.293  17.527   6.291  0.00  0.00     0.075 A 
HETATM   19  S   UNK N   1      30.499  17.334   7.406  0.00  0.00    -0.072 SA
HETATM   20 Cl   UNK N   1      27.596  17.761   6.643  0.00  0.00    -0.076 Cl
ENDBRANCH  12  15
ENDBRANCH   8  11
BRANCH   9  21
HETATM   21  O   UNK N   1      34.639  17.019  10.185  0.00  0.00    -0.392 OA
HETATM   22  H   UNK N   1      34.586  17.179  11.140  0.00  0.00     0.210 HD
ENDBRANCH   9  21
ENDBRANCH   5   6
ENDBRANCH   2   5
BRANCH   1  23
HETATM   23  C   UNK N   1      34.879  12.299  12.866  0.00  0.00     0.073 A 
HETATM   24  C   UNK N   1      34.268  11.263  13.587  0.00  0.00     0.145 A 
HETATM   25  F   UNK N   1      33.570  10.297  12.944  0.00  0.00    -0.204 F 
HETATM   26  C   UNK N   1      34.396  11.209  14.974  0.00  0.00     0.074 A 
HETATM   27  C   UNK N   1      35.139  12.179  15.673  0.00  0.00     0.045 A 
HETATM   28  C   UNK N   1      35.745  13.212  14.932  0.00  0.00     0.032 A 
HETATM   29  C   UNK N   1      35.617  13.271  13.543  0.00  0.00     0.035 A 
BRANCH  27  30
HETATM   30  N   UNK N   1      35.284  12.085  17.120  0.00  0.00    -0.290 N 
HETATM   31  C   UNK N   1      34.980  13.193  17.867  0.00  0.00     0.100 A 
HETATM   32  C   UNK N   1      35.082  13.184  19.258  0.00  0.00     0.018 A 
HETATM   33  C   UNK N   1      35.496  12.028  19.906  0.00  0.00     0.007 A 
HETATM   34  C   UNK N   1      35.805  10.895  19.161  0.00  0.00     0.075 A 
HETATM   35  C   UNK N   1      35.700  10.925  17.769  0.00  0.00     0.252 A 
HETATM   36  O   UNK N   1      35.970   9.912  17.146  0.00  0.00    -0.268 OA
ENDBRANCH  27  30
ENDBRANCH   1  23
TORSDOF 7
ENDMDL
MODEL 9
REMARK VINA RESULT:      -7.5      5.317     11.555
REMARK  7 active torsions:
REMARK  status: ('A' for Active; 'I' for Inactive)
REMARK    1  A    between atoms: C_4  and  N_5 
REMARK    2  A    between atoms: C_14  and  N_15 
REMARK       I    between atoms: N_15  and  C_16 
REMARK    3  A    between atoms: C_16  and  C_18 
REMARK    4  A    between atoms: C_18  and  N_19 
REMARK    5  A    between atoms: C_21  and  O_22 
REMARK    6  A    between atoms: C_24  and  N_25 
REMARK       I    between atoms: N_25  and  C_26 
REMARK    7  A    between atoms: C_26  and  C_28 
ROOT
HETATM    1  N   UNK N   1      33.033  16.261   8.097  0.00  0.00    -0.323 N 
HETATM    2  C   UNK N   1      33.810  17.143   8.766  0.00  0.00     0.250 C 
HETATM    3  O   UNK N   1      33.497  18.324   8.835  0.00  0.00    -0.271 OA
HETATM    4  H   UNK N   1      33.268  15.305   8.121  0.00  0.00     0.169 HD
ENDROOT
BRANCH   2   5
HETATM    5  C   UNK N   1      35.077  16.659   9.422  0.00  0.00     0.375 C 
BRANCH   5   6
HETATM    6  N   UNK N   1      35.037  15.241   9.809  0.00  0.00     0.101 N 
HETATM    7  C   UNK N   1      34.299  15.062  11.065  0.00  0.00     0.300 C 
HETATM    8  C   UNK N   1      35.068  14.035  11.869  0.00  0.00     0.143 C 
HETATM    9  C   UNK N   1      36.488  14.422  11.511  0.00  0.00     0.171 C 
HETATM   10  C   UNK N   1      36.386  14.701  10.025  0.00  0.00     0.306 C 
BRANCH   8  11
HETATM   11  N   UNK N   1      34.696  12.723  11.377  0.00  0.00    -0.348 N 
HETATM   12  C   UNK N   1      34.850  11.578  12.088  0.00  0.00     0.259 C 
HETATM   13  O   UNK N   1      35.343  11.599  13.208  0.00  0.00    -0.267 OA
HETATM   14  H   UNK N   1      34.310  12.659  10.474  0.00  0.00     0.163 HD
BRANCH  12  15
HETATM   15  C   UNK N   1      34.338  10.317  11.538  0.00  0.00     0.074 A 
HETATM   16  C   UNK N   1      33.302  10.188  10.604  0.00  0.00     0.027 A 
HETATM   17  C   UNK N   1      32.972   8.831  10.322  0.00  0.00     0.033 A 
HETATM   18  C   UNK N   1      33.749   7.920  11.042  0.00  0.00     0.075 A 
HETATM   19  S   UNK N   1      34.801   8.787  11.978  0.00  0.00    -0.072 SA
HETATM   20 Cl   UNK N   1      33.605   6.178  11.004  0.00  0.00    -0.076 Cl
ENDBRANCH  12  15
ENDBRANCH   8  11
BRANCH   9  21
HETATM   21  O   UNK N   1      37.433  13.438  11.806  0.00  0.00    -0.392 OA
HETATM   22  H   UNK N   1      38.395  13.534  11.878  0.00  0.00     0.210 HD
ENDBRANCH   9  21
ENDBRANCH   5   6
ENDBRANCH   2   5
BRANCH   1  23
HETATM   23  C   UNK N   1      31.893  16.665   7.363  0.00  0.00     0.073 A 
HETATM   24  C   UNK N   1      31.992  16.916   5.988  0.00  0.00     0.145 A 
HETATM   25  F   UNK N   1      33.176  16.769   5.346  0.00  0.00    -0.204 F 
HETATM   26  C   UNK N   1      30.863  17.296   5.264  0.00  0.00     0.074 A 
HETATM   27  C   UNK N   1      29.610  17.429   5.891  0.00  0.00     0.045 A 
HETATM   28  C   UNK N   1      29.529  17.174   7.274  0.00  0.00     0.032 A 
HETATM   29  C   UNK N   1      30.659  16.796   8.003  0.00  0.00     0.035 A 
BRANCH  27  30
HETATM   30  N   UNK N   1      28.437  17.799   5.109  0.00  0.00    -0.290 N 
HETATM   31  C   UNK N   1      28.200  19.133   4.903  0.00  0.00     0.100 A 
HETATM   32  C   UNK N   1      27.105  19.571   4.158  0.00  0.00     0.018 A 
HETATM   33  C   UNK N   1      26.236  18.639   3.606  0.00  0.00     0.007 A 
HETATM   34  C   UNK N   1      26.465  17.282   3.805  0.00  0.00     0.075 A 
HETATM   35  C   UNK N   1      27.565  16.863   4.557  0.00  0.00     0.252 A 
HETATM   36  O   UNK N   1      27.743  15.666   4.707  0.00  0.00    -0.268 OA
ENDBRANCH  27  30
ENDBRANCH   1  23
TORSDOF 7
ENDMDL
