REMARK  7 active torsions:
REMARK  status: ('A' for Active; 'I' for Inactive)
REMARK    1  A    between atoms: C_4  and  N_5 
REMARK    2  A    between atoms: C_14  and  N_15 
REMARK       I    between atoms: N_15  and  C_16 
REMARK    3  A    between atoms: C_16  and  C_18 
REMARK    4  A    between atoms: C_18  and  N_19 
REMARK    5  A    between atoms: C_21  and  O_22 
REMARK    6  A    between atoms: C_24  and  N_25 
REMARK       I    between atoms: N_25  and  C_26 
REMARK    7  A    between atoms: C_26  and  C_28 
ROOT
HETATM    1  N   UNK N   1       7.742  33.478   0.811  0.00  0.00    -0.323 N 
HETATM    2  C   UNK N   1       7.221  32.608  -0.085  0.00  0.00     0.250 C 
HETATM    3  O   UNK N   1       6.941  32.973  -1.219  0.00  0.00    -0.271 OA
HETATM    4  H   UNK N   1       8.028  33.141   1.691  0.00  0.00     0.169 HD
ENDROOT
BRANCH   2   5
HETATM    5  C   UNK N   1       6.978  31.181   0.330  0.00  0.00     0.375 C 
BRANCH   5   6
HETATM    6  N   UNK N   1       5.555  30.813   0.377  0.00  0.00     0.101 N 
HETATM    7  C   UNK N   1       4.940  30.926  -0.951  0.00  0.00     0.300 C 
HETATM    8  C   UNK N   1       3.570  31.532  -0.736  0.00  0.00     0.143 C 
HETATM    9  C   UNK N   1       3.878  32.504   0.385  0.00  0.00     0.171 C 
HETATM   10  C   UNK N   1       4.797  31.694   1.276  0.00  0.00     0.306 C 
BRANCH   8  11
HETATM   11  N   UNK N   1       2.675  30.465  -0.332  0.00  0.00    -0.348 N 
HETATM   12  C   UNK N   1       1.327  30.597  -0.256  0.00  0.00     0.259 C 
HETATM   13  O   UNK N   1       0.788  31.664  -0.517  0.00  0.00    -0.267 OA
HETATM   14  H   UNK N   1       3.069  29.594  -0.098  0.00  0.00     0.163 HD
BRANCH  12  15
HETATM   15  C   UNK N   1       0.507  29.420   0.057  0.00  0.00     0.074 A 
HETATM   16  C   UNK N   1       0.988  28.142   0.367  0.00  0.00     0.027 A 
HETATM   17  C   UNK N   1      -0.051  27.183   0.544  0.00  0.00     0.033 A 
HETATM   18  C   UNK N   1      -1.327  27.724   0.365  0.00  0.00     0.075 A 
HETATM   19  S   UNK N   1      -1.147  29.329   0.010  0.00  0.00    -0.072 SA
HETATM   20 Cl   UNK N   1      -2.842  26.854   0.449  0.00  0.00    -0.076 Cl
ENDBRANCH  12  15
ENDBRANCH   8  11
BRANCH   9  21
HETATM   21  O   UNK N   1       2.747  32.963   1.061  0.00  0.00    -0.392 OA
HETATM   22  H   UNK N   1       2.630  33.803   1.530  0.00  0.00     0.210 HD
ENDBRANCH   9  21
ENDBRANCH   5   6
ENDBRANCH   2   5
BRANCH   1  23
HETATM   23  C   UNK N   1       7.889  34.856   0.526  0.00  0.00     0.073 A 
HETATM   24  C   UNK N   1       6.801  35.727   0.675  0.00  0.00     0.145 A 
HETATM   25  F   UNK N   1       5.601  35.262   1.097  0.00  0.00    -0.204 F 
HETATM   26  C   UNK N   1       6.955  37.087   0.412  0.00  0.00     0.074 A 
HETATM   27  C   UNK N   1       8.195  37.611   0.001  0.00  0.00     0.045 A 
HETATM   28  C   UNK N   1       9.277  36.721  -0.144  0.00  0.00     0.032 A 
HETATM   29  C   UNK N   1       9.126  35.357   0.116  0.00  0.00     0.035 A 
BRANCH  27  30
HETATM   30  N   UNK N   1       8.340  39.041  -0.240  0.00  0.00    -0.290 N 
HETATM   31  C   UNK N   1       7.219  39.824  -0.142  0.00  0.00     0.100 A 
HETATM   32  C   UNK N   1       7.273  41.202  -0.348  0.00  0.00     0.018 A 
HETATM   33  C   UNK N   1       8.488  41.801  -0.655  0.00  0.00     0.007 A 
HETATM   34  C   UNK N   1       9.634  41.020  -0.755  0.00  0.00     0.075 A 
HETATM   35  C   UNK N   1       9.559  39.641  -0.549  0.00  0.00     0.252 A 
HETATM   36  O   UNK N   1      10.583  38.985  -0.636  0.00  0.00    -0.268 OA
ENDBRANCH  27  30
ENDBRANCH   1  23
TORSDOF 7
