REMARK  2 active torsions:
REMARK  status: ('A' for Active; 'I' for Inactive)
REMARK    1  A    between atoms: S_2  and  N_4 
REMARK    2  A    between atoms: S_2  and  C_12 
ROOT
HETATM    1  C   UNK N   1      -0.273  -1.674   0.395  0.00  0.00     0.086 A 
HETATM    2  C   UNK N   1       1.005  -2.325   0.242  0.00  0.00     0.006 A 
HETATM    3  C   UNK N   1       2.277  -1.713   0.457  0.00  0.00    -0.034 A 
HETATM    4  C   UNK N   1       2.474  -0.279   0.782  0.00  0.00     0.050 C 
HETATM    5  C   UNK N   1       1.008  -3.700  -0.145  0.00  0.00    -0.009 A 
HETATM    6  C   UNK N   1      -0.179  -4.380  -0.401  0.00  0.00     0.014 A 
HETATM    7  C   UNK N   1      -1.398  -3.729  -0.285  0.00  0.00     0.002 A 
HETATM    8  C   UNK N   1      -1.440  -2.401   0.123  0.00  0.00     0.026 A 
HETATM    9  C   UNK N   1       2.208  -4.400  -0.261  0.00  0.00     0.100 A 
HETATM   10  N   UNK N   1       3.388  -3.783  -0.023  0.00  0.00    -0.374 N 
ATOM     11  HN  UNK N   1       4.255  -4.316  -0.099  1.00  0.00     0.164 HD
HETATM   12  C   UNK N   1       3.443  -2.471   0.315  0.00  0.00     0.095 A 
ENDROOT
BRANCH   1  13
HETATM   13  S   UNK N   1      -0.557  -0.018   1.097  0.00  0.00     0.244 S 
HETATM   14  O   UNK N   1      -1.893  -0.108   1.852  0.00  0.00    -0.206 OA
HETATM   15  O   UNK N   1       0.318   0.241   2.332  0.00  0.00    -0.206 OA
BRANCH  13  16
HETATM   16  N   UNK N   1      -0.675   1.565   0.273  0.00  0.00    -0.201 NA
HETATM   17  C   UNK N   1      -1.857   1.773  -0.593  0.00  0.00     0.087 C 
HETATM   18  C   UNK N   1      -3.142   1.717   0.216  0.00  0.00     0.029 C 
HETATM   19  C   UNK N   1      -1.816   3.159  -1.255  0.00  0.00     0.134 C 
HETATM   20  N   UNK N   1      -1.319   4.166  -0.323  0.00  0.00    -0.420 N 
HETATM   21  C   UNK N   1       0.089   4.372  -0.649  0.00  0.00     0.115 C 
HETATM   22  H   UNK N   1      -1.851   4.634   0.411  0.00  0.00     0.153 HD
HETATM   23  C   UNK N   1       0.987   3.307  -0.012  0.00  0.00     0.035 C 
HETATM   24  C   UNK N   1       0.577   1.887  -0.400  0.00  0.00     0.109 C 
ENDBRANCH  13  16
ENDBRANCH   1  13
TORSDOF 2
