MODEL 1
REMARK VINA RESULT:      -7.1      0.000      0.000
REMARK  2 active torsions:
REMARK  status: ('A' for Active; 'I' for Inactive)
REMARK    1  A    between atoms: S_2  and  N_4 
REMARK    2  A    between atoms: S_2  and  C_12 
ROOT
HETATM    1  C   UNK N   1      30.774  17.296   5.040  0.00  0.00     0.086 A 
HETATM    2  C   UNK N   1      31.258  17.301   6.399  0.00  0.00     0.006 A 
HETATM    3  C   UNK N   1      30.440  17.285   7.569  0.00  0.00    -0.034 A 
HETATM    4  C   UNK N   1      28.958  17.356   7.558  0.00  0.00     0.050 C 
HETATM    5  C   UNK N   1      32.672  17.310   6.600  0.00  0.00    -0.009 A 
HETATM    6  C   UNK N   1      33.554  17.350   5.525  0.00  0.00     0.014 A 
HETATM    7  C   UNK N   1      33.072  17.382   4.225  0.00  0.00     0.002 A 
HETATM    8  C   UNK N   1      31.702  17.339   3.991  0.00  0.00     0.026 A 
HETATM    9  C   UNK N   1      33.203  17.265   7.888  0.00  0.00     0.100 A 
HETATM   10  N   UNK N   1      32.387  17.226   8.966  0.00  0.00    -0.374 N 
ATOM     11  HN  UNK N   1      32.795  17.178   9.901  1.00  0.00     0.164 HD
HETATM   12  C   UNK N   1      31.038  17.248   8.832  0.00  0.00     0.095 A 
ENDROOT
BRANCH   1  13
HETATM   13  S   UNK N   1      29.048  17.051   4.516  0.00  0.00     0.244 S 
HETATM   14  O   UNK N   1      29.107  16.750   3.009  0.00  0.00    -0.206 OA
HETATM   15  O   UNK N   1      28.506  15.679   4.941  0.00  0.00    -0.206 OA
BRANCH  13  16
HETATM   16  N   UNK N   1      27.649  18.160   4.642  0.00  0.00    -0.201 NA
HETATM   17  C   UNK N   1      26.519  17.906   3.720  0.00  0.00     0.087 C 
HETATM   18  C   UNK N   1      25.896  16.545   3.983  0.00  0.00     0.029 C 
HETATM   19  C   UNK N   1      25.404  18.944   3.919  0.00  0.00     0.134 C 
HETATM   20  N   UNK N   1      25.229  19.255   5.334  0.00  0.00    -0.420 N 
HETATM   21  C   UNK N   1      25.938  20.508   5.573  0.00  0.00     0.115 C 
HETATM   22  H   UNK N   1      24.713  18.704   6.021  0.00  0.00     0.153 HD
HETATM   23  C   UNK N   1      27.439  20.287   5.785  0.00  0.00     0.035 C 
HETATM   24  C   UNK N   1      28.092  19.548   4.618  0.00  0.00     0.109 C 
ENDBRANCH  13  16
ENDBRANCH   1  13
TORSDOF 2
ENDMDL
MODEL 2
REMARK VINA RESULT:      -7.0      8.226     10.094
REMARK  2 active torsions:
REMARK  status: ('A' for Active; 'I' for Inactive)
REMARK    1  A    between atoms: S_2  and  N_4 
REMARK    2  A    between atoms: S_2  and  C_12 
ROOT
HETATM    1  C   UNK N   1      21.193  13.409   9.701  0.00  0.00     0.086 A 
HETATM    2  C   UNK N   1      22.569  13.094   9.997  0.00  0.00     0.006 A 
HETATM    3  C   UNK N   1      23.694  13.480   9.208  0.00  0.00    -0.034 A 
HETATM    4  C   UNK N   1      23.605  14.189   7.908  0.00  0.00     0.050 C 
HETATM    5  C   UNK N   1      22.838  12.343  11.182  0.00  0.00    -0.009 A 
HETATM    6  C   UNK N   1      21.807  11.899  12.005  0.00  0.00     0.014 A 
HETATM    7  C   UNK N   1      20.487  12.180  11.687  0.00  0.00     0.002 A 
HETATM    8  C   UNK N   1      20.190  12.938  10.560  0.00  0.00     0.026 A 
HETATM    9  C   UNK N   1      24.150  12.049  11.550  0.00  0.00     0.100 A 
HETATM   10  N   UNK N   1      25.186  12.457  10.783  0.00  0.00    -0.374 N 
ATOM     11  HN  UNK N   1      26.140  12.245  11.076  1.00  0.00     0.164 HD
HETATM   12  C   UNK N   1      24.984  13.144   9.631  0.00  0.00     0.095 A 
ENDROOT
BRANCH   1  13
HETATM   13  S   UNK N   1      20.606  14.538   8.398  0.00  0.00     0.244 S 
HETATM   14  O   UNK N   1      19.244  15.062   8.882  0.00  0.00    -0.206 OA
HETATM   15  O   UNK N   1      21.332  15.890   8.439  0.00  0.00    -0.206 OA
BRANCH  13  16
HETATM   16  N   UNK N   1      20.314  14.222   6.662  0.00  0.00    -0.201 NA
HETATM   17  C   UNK N   1      21.193  13.222   6.015  0.00  0.00     0.087 C 
HETATM   18  C   UNK N   1      21.013  11.850   6.643  0.00  0.00     0.029 C 
HETATM   19  C   UNK N   1      20.849  13.071   4.526  0.00  0.00     0.134 C 
HETATM   20  N   UNK N   1      19.405  13.122   4.317  0.00  0.00    -0.420 N 
HETATM   21  C   UNK N   1      19.099  14.479   3.875  0.00  0.00     0.115 C 
HETATM   22  H   UNK N   1      18.742  12.359   4.453  0.00  0.00     0.153 HD
HETATM   23  C   UNK N   1      18.987  15.454   5.051  0.00  0.00     0.035 C 
HETATM   24  C   UNK N   1      20.244  15.473   5.918  0.00  0.00     0.109 C 
ENDBRANCH  13  16
ENDBRANCH   1  13
TORSDOF 2
ENDMDL
MODEL 3
REMARK VINA RESULT:      -6.8      2.863      6.575
REMARK  2 active torsions:
REMARK  status: ('A' for Active; 'I' for Inactive)
REMARK    1  A    between atoms: S_2  and  N_4 
REMARK    2  A    between atoms: S_2  and  C_12 
ROOT
HETATM    1  C   UNK N   1      30.708  16.490   6.383  0.00  0.00     0.086 A 
HETATM    2  C   UNK N   1      29.824  17.208   7.268  0.00  0.00     0.006 A 
HETATM    3  C   UNK N   1      29.877  17.177   8.695  0.00  0.00    -0.034 A 
HETATM    4  C   UNK N   1      30.798  16.321   9.482  0.00  0.00     0.050 C 
HETATM    5  C   UNK N   1      28.817  18.030   6.678  0.00  0.00    -0.009 A 
HETATM    6  C   UNK N   1      28.668  18.109   5.296  0.00  0.00     0.014 A 
HETATM    7  C   UNK N   1      29.503  17.384   4.459  0.00  0.00     0.002 A 
HETATM    8  C   UNK N   1      30.516  16.600   4.999  0.00  0.00     0.026 A 
HETATM    9  C   UNK N   1      27.963  18.789   7.478  0.00  0.00     0.100 A 
HETATM   10  N   UNK N   1      28.068  18.745   8.826  0.00  0.00    -0.374 N 
ATOM     11  HN  UNK N   1      27.444  19.318   9.394  1.00  0.00     0.164 HD
HETATM   12  C   UNK N   1      28.985  17.956   9.438  0.00  0.00     0.095 A 
ENDROOT
BRANCH   1  13
HETATM   13  S   UNK N   1      32.203  15.572   6.870  0.00  0.00     0.244 S 
HETATM   14  O   UNK N   1      31.745  14.124   7.108  0.00  0.00    -0.206 OA
HETATM   15  O   UNK N   1      33.109  15.267   5.668  0.00  0.00    -0.206 OA
BRANCH  13  16
HETATM   16  N   UNK N   1      33.324  15.860   8.234  0.00  0.00    -0.201 NA
HETATM   17  C   UNK N   1      34.252  17.005   8.096  0.00  0.00     0.087 C 
HETATM   18  C   UNK N   1      33.489  18.316   8.004  0.00  0.00     0.029 C 
HETATM   19  C   UNK N   1      35.170  17.118   9.323  0.00  0.00     0.134 C 
HETATM   20  N   UNK N   1      34.438  16.824  10.550  0.00  0.00    -0.420 N 
HETATM   21  C   UNK N   1      34.752  15.441  10.898  0.00  0.00     0.115 C 
HETATM   22  H   UNK N   1      33.827  17.459  11.064  0.00  0.00     0.153 HD
HETATM   23  C   UNK N   1      33.891  14.443  10.118  0.00  0.00     0.035 C 
HETATM   24  C   UNK N   1      34.006  14.627   8.605  0.00  0.00     0.109 C 
ENDBRANCH  13  16
ENDBRANCH   1  13
TORSDOF 2
ENDMDL
MODEL 4
REMARK VINA RESULT:      -6.8     11.676     13.339
REMARK  2 active torsions:
REMARK  status: ('A' for Active; 'I' for Inactive)
REMARK    1  A    between atoms: S_2  and  N_4 
REMARK    2  A    between atoms: S_2  and  C_12 
ROOT
HETATM    1  C   UNK N   1      27.576  23.335  -5.980  0.00  0.00     0.086 A 
HETATM    2  C   UNK N   1      28.800  22.703  -5.552  0.00  0.00     0.006 A 
HETATM    3  C   UNK N   1      29.551  23.055  -4.390  0.00  0.00    -0.034 A 
HETATM    4  C   UNK N   1      29.229  24.194  -3.496  0.00  0.00     0.050 C 
HETATM    5  C   UNK N   1      29.303  21.626  -6.344  0.00  0.00    -0.009 A 
HETATM    6  C   UNK N   1      28.656  21.223  -7.508  0.00  0.00     0.014 A 
HETATM    7  C   UNK N   1      27.500  21.865  -7.926  0.00  0.00     0.002 A 
HETATM    8  C   UNK N   1      26.963  22.894  -7.161  0.00  0.00     0.026 A 
HETATM    9  C   UNK N   1      30.454  20.941  -5.957  0.00  0.00     0.100 A 
HETATM   10  N   UNK N   1      31.118  21.295  -4.834  0.00  0.00    -0.374 N 
ATOM     11  HN  UNK N   1      31.951  20.772  -4.560  1.00  0.00     0.164 HD
HETATM   12  C   UNK N   1      30.702  22.331  -4.065  0.00  0.00     0.095 A 
ENDROOT
BRANCH   1  13
HETATM   13  S   UNK N   1      26.611  24.556  -5.035  0.00  0.00     0.244 S 
HETATM   14  O   UNK N   1      25.179  24.477  -5.589  0.00  0.00    -0.206 OA
HETATM   15  O   UNK N   1      26.273  24.055  -3.623  0.00  0.00    -0.206 OA
BRANCH  13  16
HETATM   16  N   UNK N   1      26.867  26.317  -4.852  0.00  0.00    -0.201 NA
HETATM   17  C   UNK N   1      28.141  26.858  -5.375  0.00  0.00     0.087 C 
HETATM   18  C   UNK N   1      28.243  26.656  -6.878  0.00  0.00     0.029 C 
HETATM   19  C   UNK N   1      28.238  28.371  -5.128  0.00  0.00     0.134 C 
HETATM   20  N   UNK N   1      26.947  29.017  -5.341  0.00  0.00    -0.420 N 
HETATM   21  C   UNK N   1      26.358  29.208  -4.019  0.00  0.00     0.115 C 
HETATM   22  H   UNK N   1      26.538  29.282  -6.237  0.00  0.00     0.153 HD
HETATM   23  C   UNK N   1      25.665  27.940  -3.511  0.00  0.00     0.035 C 
HETATM   24  C   UNK N   1      26.602  26.733  -3.480  0.00  0.00     0.109 C 
ENDBRANCH  13  16
ENDBRANCH   1  13
TORSDOF 2
ENDMDL
MODEL 5
REMARK VINA RESULT:      -6.8      7.488      9.000
REMARK  2 active torsions:
REMARK  status: ('A' for Active; 'I' for Inactive)
REMARK    1  A    between atoms: S_2  and  N_4 
REMARK    2  A    between atoms: S_2  and  C_12 
ROOT
HETATM    1  C   UNK N   1      21.289  16.161   7.220  0.00  0.00     0.086 A 
HETATM    2  C   UNK N   1      22.128  14.992   7.117  0.00  0.00     0.006 A 
HETATM    3  C   UNK N   1      23.100  14.758   6.098  0.00  0.00    -0.034 A 
HETATM    4  C   UNK N   1      23.326  15.649   4.933  0.00  0.00     0.050 C 
HETATM    5  C   UNK N   1      21.991  13.985   8.121  0.00  0.00    -0.009 A 
HETATM    6  C   UNK N   1      21.055  14.109   9.143  0.00  0.00     0.014 A 
HETATM    7  C   UNK N   1      20.230  15.222   9.207  0.00  0.00     0.002 A 
HETATM    8  C   UNK N   1      20.361  16.238   8.267  0.00  0.00     0.026 A 
HETATM    9  C   UNK N   1      22.807  12.855   8.106  0.00  0.00     0.100 A 
HETATM   10  N   UNK N   1      23.731  12.689   7.132  0.00  0.00    -0.374 N 
ATOM     11  HN  UNK N   1      24.329  11.862   7.147  1.00  0.00     0.164 HD
HETATM   12  C   UNK N   1      23.880  13.599   6.138  0.00  0.00     0.095 A 
ENDROOT
BRANCH   1  13
HETATM   13  S   UNK N   1      21.430  17.676   6.219  0.00  0.00     0.244 S 
HETATM   14  O   UNK N   1      20.839  18.803   7.081  0.00  0.00    -0.206 OA
HETATM   15  O   UNK N   1      22.867  18.218   6.195  0.00  0.00    -0.206 OA
BRANCH  13  16
HETATM   16  N   UNK N   1      20.773  18.034   4.595  0.00  0.00    -0.201 NA
HETATM   17  C   UNK N   1      20.399  16.870   3.761  0.00  0.00     0.087 C 
HETATM   18  C   UNK N   1      19.280  16.072   4.410  0.00  0.00     0.029 C 
HETATM   19  C   UNK N   1      19.876  17.322   2.389  0.00  0.00     0.134 C 
HETATM   20  N   UNK N   1      19.046  18.515   2.516  0.00  0.00    -0.420 N 
HETATM   21  C   UNK N   1      19.894  19.648   2.159  0.00  0.00     0.115 C 
HETATM   22  H   UNK N   1      18.066  18.550   2.798  0.00  0.00     0.153 HD
HETATM   23  C   UNK N   1      20.767  20.104   3.332  0.00  0.00     0.035 C 
HETATM   24  C   UNK N   1      21.634  18.975   3.890  0.00  0.00     0.109 C 
ENDBRANCH  13  16
ENDBRANCH   1  13
TORSDOF 2
ENDMDL
MODEL 6
REMARK VINA RESULT:      -6.7     10.991     13.926
REMARK  2 active torsions:
REMARK  status: ('A' for Active; 'I' for Inactive)
REMARK    1  A    between atoms: S_2  and  N_4 
REMARK    2  A    between atoms: S_2  and  C_12 
ROOT
HETATM    1  C   UNK N   1      35.869  12.159  16.449  0.00  0.00     0.086 A 
HETATM    2  C   UNK N   1      36.009  11.092  17.410  0.00  0.00     0.006 A 
HETATM    3  C   UNK N   1      36.451   9.766  17.116  0.00  0.00    -0.034 A 
HETATM    4  C   UNK N   1      36.743   9.262  15.752  0.00  0.00     0.050 C 
HETATM    5  C   UNK N   1      35.695  11.380  18.773  0.00  0.00    -0.009 A 
HETATM    6  C   UNK N   1      35.234  12.636  19.157  0.00  0.00     0.014 A 
HETATM    7  C   UNK N   1      35.069  13.640  18.215  0.00  0.00     0.002 A 
HETATM    8  C   UNK N   1      35.398  13.405  16.885  0.00  0.00     0.026 A 
HETATM    9  C   UNK N   1      35.858  10.407  19.758  0.00  0.00     0.100 A 
HETATM   10  N   UNK N   1      36.303   9.171  19.434  0.00  0.00    -0.374 N 
ATOM     11  HN  UNK N   1      36.429   8.476  20.171  1.00  0.00     0.164 HD
HETATM   12  C   UNK N   1      36.584   8.836  18.151  0.00  0.00     0.095 A 
ENDROOT
BRANCH   1  13
HETATM   13  S   UNK N   1      36.421  12.121  14.714  0.00  0.00     0.244 S 
HETATM   14  O   UNK N   1      36.678  13.586  14.326  0.00  0.00    -0.206 OA
HETATM   15  O   UNK N   1      37.878  11.654  14.585  0.00  0.00    -0.206 OA
BRANCH  13  16
HETATM   16  N   UNK N   1      35.595  11.468  13.268  0.00  0.00    -0.201 NA
HETATM   17  C   UNK N   1      34.669  10.336  13.491  0.00  0.00     0.087 C 
HETATM   18  C   UNK N   1      33.510  10.748  14.384  0.00  0.00     0.029 C 
HETATM   19  C   UNK N   1      34.053   9.861  12.166  0.00  0.00     0.134 C 
HETATM   20  N   UNK N   1      33.739  10.995  11.302  0.00  0.00    -0.420 N 
HETATM   21  C   UNK N   1      34.830  11.095  10.338  0.00  0.00     0.115 C 
HETATM   22  H   UNK N   1      32.918  11.599  11.361  0.00  0.00     0.153 HD
HETATM   23  C   UNK N   1      36.039  11.839  10.914  0.00  0.00     0.035 C 
HETATM   24  C   UNK N   1      36.556  11.206  12.204  0.00  0.00     0.109 C 
ENDBRANCH  13  16
ENDBRANCH   1  13
TORSDOF 2
ENDMDL
MODEL 7
REMARK VINA RESULT:      -6.7      3.174      6.864
REMARK  2 active torsions:
REMARK  status: ('A' for Active; 'I' for Inactive)
REMARK    1  A    between atoms: S_2  and  N_4 
REMARK    2  A    between atoms: S_2  and  C_12 
ROOT
HETATM    1  C   UNK N   1      32.105  17.083   6.034  0.00  0.00     0.086 A 
HETATM    2  C   UNK N   1      30.680  17.129   6.250  0.00  0.00     0.006 A 
HETATM    3  C   UNK N   1      30.035  17.153   7.523  0.00  0.00    -0.034 A 
HETATM    4  C   UNK N   1      30.741  17.040   8.823  0.00  0.00     0.050 C 
HETATM    5  C   UNK N   1      29.835  17.165   5.098  0.00  0.00    -0.009 A 
HETATM    6  C   UNK N   1      30.365  17.121   3.812  0.00  0.00     0.014 A 
HETATM    7  C   UNK N   1      31.737  17.040   3.623  0.00  0.00     0.002 A 
HETATM    8  C   UNK N   1      32.590  17.038   4.720  0.00  0.00     0.026 A 
HETATM    9  C   UNK N   1      28.451  17.260   5.239  0.00  0.00     0.100 A 
HETATM   10  N   UNK N   1      27.888  17.305   6.468  0.00  0.00    -0.374 N 
ATOM     11  HN  UNK N   1      26.874  17.390   6.550  1.00  0.00     0.164 HD
HETATM   12  C   UNK N   1      28.642  17.241   7.593  0.00  0.00     0.095 A 
ENDROOT
BRANCH   1  13
HETATM   13  S   UNK N   1      33.390  17.265   7.312  0.00  0.00     0.244 S 
HETATM   14  O   UNK N   1      34.646  17.755   6.573  0.00  0.00    -0.206 OA
HETATM   15  O   UNK N   1      33.186  18.531   8.157  0.00  0.00    -0.206 OA
BRANCH  13  16
HETATM   16  N   UNK N   1      34.049  16.051   8.448  0.00  0.00    -0.201 NA
HETATM   17  C   UNK N   1      33.390  14.726   8.454  0.00  0.00     0.087 C 
HETATM   18  C   UNK N   1      33.534  14.039   7.106  0.00  0.00     0.029 C 
HETATM   19  C   UNK N   1      34.038  13.795   9.491  0.00  0.00     0.134 C 
HETATM   20  N   UNK N   1      35.486  13.969   9.513  0.00  0.00    -0.420 N 
HETATM   21  C   UNK N   1      35.781  14.838  10.648  0.00  0.00     0.115 C 
HETATM   22  H   UNK N   1      36.160  13.563   8.864  0.00  0.00     0.153 HD
HETATM   23  C   UNK N   1      35.586  16.318  10.304  0.00  0.00     0.035 C 
HETATM   24  C   UNK N   1      34.180  16.618   9.784  0.00  0.00     0.109 C 
ENDBRANCH  13  16
ENDBRANCH   1  13
TORSDOF 2
ENDMDL
MODEL 8
REMARK VINA RESULT:      -6.6     12.333     14.559
REMARK  2 active torsions:
REMARK  status: ('A' for Active; 'I' for Inactive)
REMARK    1  A    between atoms: S_2  and  N_4 
REMARK    2  A    between atoms: S_2  and  C_12 
ROOT
HETATM    1  C   UNK N   1      34.902  11.869  16.437  0.00  0.00     0.086 A 
HETATM    2  C   UNK N   1      35.378  10.963  17.454  0.00  0.00     0.006 A 
HETATM    3  C   UNK N   1      35.612   9.566  17.275  0.00  0.00    -0.034 A 
HETATM    4  C   UNK N   1      35.309   8.817  16.030  0.00  0.00     0.050 C 
HETATM    5  C   UNK N   1      35.652  11.502  18.748  0.00  0.00    -0.009 A 
HETATM    6  C   UNK N   1      35.434  12.847  19.030  0.00  0.00     0.014 A 
HETATM    7  C   UNK N   1      34.940  13.697  18.052  0.00  0.00     0.002 A 
HETATM    8  C   UNK N   1      34.695  13.214  16.772  0.00  0.00     0.026 A 
HETATM    9  C   UNK N   1      36.162  10.690  19.760  0.00  0.00     0.100 A 
HETATM   10  N   UNK N   1      36.391   9.376  19.534  0.00  0.00    -0.374 N 
ATOM     11  HN  UNK N   1      36.778   8.800  20.283  1.00  0.00     0.164 HD
HETATM   12  C   UNK N   1      36.117   8.807  18.334  0.00  0.00     0.095 A 
ENDROOT
BRANCH   1  13
HETATM   13  S   UNK N   1      34.704  11.488  14.668  0.00  0.00     0.244 S 
HETATM   14  O   UNK N   1      33.295  10.892  14.523  0.00  0.00    -0.206 OA
HETATM   15  O   UNK N   1      34.440  12.750  13.834  0.00  0.00    -0.206 OA
BRANCH  13  16
HETATM   16  N   UNK N   1      35.689  10.433  13.611  0.00  0.00    -0.201 NA
HETATM   17  C   UNK N   1      37.018  10.950  13.215  0.00  0.00     0.087 C 
HETATM   18  C   UNK N   1      37.912  11.143  14.428  0.00  0.00     0.029 C 
HETATM   19  C   UNK N   1      37.741   9.958  12.291  0.00  0.00     0.134 C 
HETATM   20  N   UNK N   1      37.513   8.583  12.725  0.00  0.00    -0.420 N 
HETATM   21  C   UNK N   1      36.458   8.049  11.869  0.00  0.00     0.115 C 
HETATM   22  H   UNK N   1      37.997   8.093  13.478  0.00  0.00     0.153 HD
HETATM   23  C   UNK N   1      35.064   8.456  12.355  0.00  0.00     0.035 C 
HETATM   24  C   UNK N   1      34.905   9.971  12.473  0.00  0.00     0.109 C 
ENDBRANCH  13  16
ENDBRANCH   1  13
TORSDOF 2
ENDMDL
MODEL 9
REMARK VINA RESULT:      -6.5      2.412      5.379
REMARK  2 active torsions:
REMARK  status: ('A' for Active; 'I' for Inactive)
REMARK    1  A    between atoms: S_2  and  N_4 
REMARK    2  A    between atoms: S_2  and  C_12 
ROOT
HETATM    1  C   UNK N   1      28.983  17.210   5.620  0.00  0.00     0.086 A 
HETATM    2  C   UNK N   1      29.622  17.335   6.907  0.00  0.00     0.006 A 
HETATM    3  C   UNK N   1      30.680  16.507   7.390  0.00  0.00    -0.034 A 
HETATM    4  C   UNK N   1      31.217  15.326   6.669  0.00  0.00     0.050 C 
HETATM    5  C   UNK N   1      29.175  18.380   7.772  0.00  0.00    -0.009 A 
HETATM    6  C   UNK N   1      28.134  19.227   7.403  0.00  0.00     0.014 A 
HETATM    7  C   UNK N   1      27.505  19.070   6.177  0.00  0.00     0.002 A 
HETATM    8  C   UNK N   1      27.937  18.086   5.296  0.00  0.00     0.026 A 
HETATM    9  C   UNK N   1      29.786  18.586   9.008  0.00  0.00     0.100 A 
HETATM   10  N   UNK N   1      30.802  17.789   9.412  0.00  0.00    -0.374 N 
ATOM     11  HN  UNK N   1      31.246  17.964  10.314  1.00  0.00     0.164 HD
HETATM   12  C   UNK N   1      31.243  16.762   8.644  0.00  0.00     0.095 A 
ENDROOT
BRANCH   1  13
HETATM   13  S   UNK N   1      29.517  16.128   4.256  0.00  0.00     0.244 S 
HETATM   14  O   UNK N   1      28.767  14.801   4.458  0.00  0.00    -0.206 OA
HETATM   15  O   UNK N   1      28.844  16.502   2.928  0.00  0.00    -0.206 OA
BRANCH  13  16
HETATM   16  N   UNK N   1      31.161  15.588   3.807  0.00  0.00    -0.201 NA
HETATM   17  C   UNK N   1      32.037  16.596   3.170  0.00  0.00     0.087 C 
HETATM   18  C   UNK N   1      32.309  17.755   4.114  0.00  0.00     0.029 C 
HETATM   19  C   UNK N   1      33.404  15.991   2.814  0.00  0.00     0.134 C 
HETATM   20  N   UNK N   1      33.859  15.082   3.862  0.00  0.00    -0.420 N 
HETATM   21  C   UNK N   1      33.549  13.732   3.401  0.00  0.00     0.115 C 
HETATM   22  H   UNK N   1      34.305  15.340   4.742  0.00  0.00     0.153 HD
HETATM   23  C   UNK N   1      32.091  13.352   3.673  0.00  0.00     0.035 C 
HETATM   24  C   UNK N   1      31.103  14.341   3.055  0.00  0.00     0.109 C 
ENDBRANCH  13  16
ENDBRANCH   1  13
TORSDOF 2
ENDMDL
