MODEL 1
REMARK VINA RESULT:      -7.1      0.000      0.000
REMARK  8 active torsions:
REMARK  status: ('A' for Active; 'I' for Inactive)
REMARK    1  A    between atoms: C_2  and  N_4 
REMARK    2  A    between atoms: N_4  and  C_5 
REMARK    3  A    between atoms: C_5  and  C_6 
REMARK    4  A    between atoms: C_6  and  C_7 
REMARK    5  A    between atoms: C_7  and  N_8 
REMARK    6  A    between atoms: C_15  and  N_16 
REMARK    7  A    between atoms: C_20  and  S_21 
REMARK    8  A    between atoms: S_21  and  C_22 
ROOT
HETATM    1  N   UNK N   1      23.152  18.699   4.045  0.00  0.00    -0.311 N 
HETATM    2  C   UNK N   1      22.217  19.261   3.264  0.00  0.00     0.141 A 
HETATM    3  N   UNK N   1      22.220  20.505   2.728  0.00  0.00    -0.336 N 
ATOM      4  HN  UNK N   1      23.000  21.143   2.887  1.00  0.00     0.168 HD
HETATM    5  C   UNK N   1      21.145  20.879   1.964  0.00  0.00     0.183 A 
HETATM    6  N   UNK N   1      20.099  20.010   1.760  0.00  0.00    -0.337 N 
ATOM      7  HN  UNK N   1      19.303  20.306   1.194  1.00  0.00     0.168 HD
HETATM    8  C   UNK N   1      20.110  18.757   2.303  0.00  0.00     0.131 A 
HETATM    9  C   UNK N   1      21.205  18.392   3.066  0.00  0.00     0.123 A 
HETATM   10  N   UNK N   1      21.455  17.241   3.705  0.00  0.00    -0.330 N 
ATOM     11  HN  UNK N   1      20.880  16.399   3.727  1.00  0.00     0.168 HD
HETATM   12  C   UNK N   1      22.652  17.453   4.317  0.00  0.00     0.153 A 
ENDROOT
BRANCH  12  13
HETATM   13  S   UNK N   1      23.421  16.194   5.363  0.00  0.00    -0.052 SA
BRANCH  13  14
HETATM   14  C   UNK N   1      22.085  15.975   6.574  0.00  0.00     0.028 A 
HETATM   15  C   UNK N   1      21.298  17.077   6.973  0.00  0.00     0.060 A 
HETATM   16  C   UNK N   1      20.262  16.862   7.867  0.00  0.00     0.106 A 
HETATM   17  O   UNK N   1      19.408  17.751   8.367  0.00  0.00    -0.323 OA
HETATM   18  C   UNK N   1      19.980  15.652   8.352  0.00  0.00     0.106 A 
HETATM   19  C   UNK N   1      18.524  17.081   9.220  0.00  0.00     0.352 A 
HETATM   20  O   UNK N   1      18.935  15.743   9.173  0.00  0.00    -0.323 OA
HETATM   21  C   UNK N   1      20.710  14.521   7.998  0.00  0.00     0.060 A 
HETATM   22  C   UNK N   1      21.781  14.683   7.095  0.00  0.00     0.031 A 
HETATM   23 Br   UNK N   1      22.778  13.133   6.581  0.00  0.00    -0.050 Br
ENDBRANCH  13  14
ENDBRANCH  12  13
BRANCH   1  24
HETATM   24  C   UNK N   1      24.386  19.384   4.451  0.00  0.00     0.134 C 
BRANCH  24  25
HETATM   25  C   UNK N   1      25.638  19.010   3.665  0.00  0.00     0.039 C 
BRANCH  25  26
HETATM   26  C   UNK N   1      26.686  18.311   4.535  0.00  0.00     0.115 C 
BRANCH  26  27
HETATM   27  N   UNK N   1      26.566  18.678   5.943  0.00  0.00    -0.418 N 
HETATM   28  H   UNK N   1      25.792  18.420   6.556  0.00  0.00     0.153 HD
BRANCH  27  29
HETATM   29  C   UNK N   1      27.724  19.468   6.336  0.00  0.00     0.068 C 
HETATM   30  C   UNK N   1      28.170  19.037   7.717  0.00  0.00     0.031 C 
HETATM   31  C   UNK N   1      27.372  20.944   6.362  0.00  0.00     0.031 C 
ENDBRANCH  27  29
ENDBRANCH  26  27
ENDBRANCH  25  26
ENDBRANCH  24  25
ENDBRANCH   1  24
BRANCH   8  32
HETATM   32  N   UNK N   1      19.031  17.874   2.101  0.00  0.00    -0.383 N 
HETATM   33  H   UNK N   1      18.088  17.945   2.376  0.00  0.00     0.157 HD
HETATM   34  H   UNK N   1      19.257  17.052   1.608  0.00  0.00     0.157 HD
ENDBRANCH   8  32
TORSDOF 8
ENDMDL
MODEL 2
REMARK VINA RESULT:      -6.7      1.899      2.326
REMARK  8 active torsions:
REMARK  status: ('A' for Active; 'I' for Inactive)
REMARK    1  A    between atoms: C_2  and  N_4 
REMARK    2  A    between atoms: N_4  and  C_5 
REMARK    3  A    between atoms: C_5  and  C_6 
REMARK    4  A    between atoms: C_6  and  C_7 
REMARK    5  A    between atoms: C_7  and  N_8 
REMARK    6  A    between atoms: C_15  and  N_16 
REMARK    7  A    between atoms: C_20  and  S_21 
REMARK    8  A    between atoms: S_21  and  C_22 
ROOT
HETATM    1  N   UNK N   1      22.387  16.930   4.218  0.00  0.00    -0.311 N 
HETATM    2  C   UNK N   1      21.561  17.810   3.632  0.00  0.00     0.141 A 
HETATM    3  N   UNK N   1      21.446  19.137   3.883  0.00  0.00    -0.336 N 
ATOM      4  HN  UNK N   1      22.033  19.592   4.583  1.00  0.00     0.168 HD
HETATM    5  C   UNK N   1      20.519  19.848   3.167  0.00  0.00     0.183 A 
HETATM    6  N   UNK N   1      19.732  19.223   2.228  0.00  0.00    -0.337 N 
ATOM      7  HN  UNK N   1      19.042  19.766   1.709  1.00  0.00     0.168 HD
HETATM    8  C   UNK N   1      19.861  17.885   1.982  0.00  0.00     0.131 A 
HETATM    9  C   UNK N   1      20.806  17.182   2.708  0.00  0.00     0.123 A 
HETATM   10  N   UNK N   1      21.123  15.881   2.662  0.00  0.00    -0.330 N 
ATOM     11  HN  UNK N   1      20.730  15.162   2.054  1.00  0.00     0.168 HD
HETATM   12  C   UNK N   1      22.087  15.739   3.611  0.00  0.00     0.153 A 
ENDROOT
BRANCH  12  13
HETATM   13  S   UNK N   1      22.830  14.132   3.981  0.00  0.00    -0.052 SA
BRANCH  13  14
HETATM   14  C   UNK N   1      22.540  14.091   5.774  0.00  0.00     0.028 A 
HETATM   15  C   UNK N   1      21.243  14.295   6.290  0.00  0.00     0.060 A 
HETATM   16  C   UNK N   1      21.055  14.216   7.660  0.00  0.00     0.106 A 
HETATM   17  O   UNK N   1      19.926  14.373   8.348  0.00  0.00    -0.323 OA
HETATM   18  C   UNK N   1      22.054  13.945   8.501  0.00  0.00     0.106 A 
HETATM   19  C   UNK N   1      20.209  14.191   9.706  0.00  0.00     0.352 A 
HETATM   20  O   UNK N   1      21.582  13.921   9.747  0.00  0.00    -0.323 OA
HETATM   21  C   UNK N   1      23.356  13.728   8.062  0.00  0.00     0.060 A 
HETATM   22  C   UNK N   1      23.606  13.803   6.675  0.00  0.00     0.031 A 
HETATM   23 Br   UNK N   1      25.388  13.482   6.056  0.00  0.00    -0.050 Br
ENDBRANCH  13  14
ENDBRANCH  12  13
BRANCH   1  24
HETATM   24  C   UNK N   1      23.342  17.296   5.271  0.00  0.00     0.134 C 
BRANCH  24  25
HETATM   25  C   UNK N   1      24.813  17.080   4.933  0.00  0.00     0.039 C 
BRANCH  25  26
HETATM   26  C   UNK N   1      25.509  18.374   4.500  0.00  0.00     0.115 C 
BRANCH  26  27
HETATM   27  N   UNK N   1      25.728  19.282   5.622  0.00  0.00    -0.418 N 
HETATM   28  H   UNK N   1      25.592  19.048   6.606  0.00  0.00     0.153 HD
BRANCH  27  29
HETATM   29  C   UNK N   1      26.171  20.575   5.118  0.00  0.00     0.068 C 
HETATM   30  C   UNK N   1      26.784  20.386   3.747  0.00  0.00     0.031 C 
HETATM   31  C   UNK N   1      27.204  21.179   6.049  0.00  0.00     0.031 C 
ENDBRANCH  27  29
ENDBRANCH  26  27
ENDBRANCH  25  26
ENDBRANCH  24  25
ENDBRANCH   1  24
BRANCH   8  32
HETATM   32  N   UNK N   1      19.046  17.245   1.027  0.00  0.00    -0.383 N 
HETATM   33  H   UNK N   1      18.891  17.455   0.078  0.00  0.00     0.157 HD
HETATM   34  H   UNK N   1      18.551  16.464   1.365  0.00  0.00     0.157 HD
ENDBRANCH   8  32
TORSDOF 8
ENDMDL
MODEL 3
REMARK VINA RESULT:      -6.3     13.005     14.707
REMARK  8 active torsions:
REMARK  status: ('A' for Active; 'I' for Inactive)
REMARK    1  A    between atoms: C_2  and  N_4 
REMARK    2  A    between atoms: N_4  and  C_5 
REMARK    3  A    between atoms: C_5  and  C_6 
REMARK    4  A    between atoms: C_6  and  C_7 
REMARK    5  A    between atoms: C_7  and  N_8 
REMARK    6  A    between atoms: C_15  and  N_16 
REMARK    7  A    between atoms: C_20  and  S_21 
REMARK    8  A    between atoms: S_21  and  C_22 
ROOT
HETATM    1  N   UNK N   1      26.619  24.058  -6.156  0.00  0.00    -0.311 N 
HETATM    2  C   UNK N   1      26.205  23.007  -6.879  0.00  0.00     0.141 A 
HETATM    3  N   UNK N   1      24.933  22.585  -7.081  0.00  0.00    -0.336 N 
ATOM      4  HN  UNK N   1      24.143  23.086  -6.672  1.00  0.00     0.168 HD
HETATM    5  C   UNK N   1      24.740  21.469  -7.853  0.00  0.00     0.183 A 
HETATM    6  N   UNK N   1      25.813  20.802  -8.396  0.00  0.00    -0.337 N 
ATOM      7  HN  UNK N   1      25.653  19.969  -8.962  1.00  0.00     0.168 HD
HETATM    8  C   UNK N   1      27.090  21.240  -8.187  0.00  0.00     0.131 A 
HETATM    9  C   UNK N   1      27.269  22.372  -7.412  0.00  0.00     0.123 A 
HETATM   10  N   UNK N   1      28.401  22.994  -7.058  0.00  0.00    -0.330 N 
ATOM     11  HN  UNK N   1      29.357  22.752  -7.319  1.00  0.00     0.168 HD
HETATM   12  C   UNK N   1      27.983  24.022  -6.269  0.00  0.00     0.153 A 
ENDROOT
BRANCH  12  13
HETATM   13  S   UNK N   1      29.154  25.157  -5.487  0.00  0.00    -0.052 SA
BRANCH  13  14
HETATM   14  C   UNK N   1      30.045  23.969  -4.441  0.00  0.00     0.028 A 
HETATM   15  C   UNK N   1      31.331  23.520  -4.809  0.00  0.00     0.060 A 
HETATM   16  C   UNK N   1      31.996  22.646  -3.965  0.00  0.00     0.106 A 
HETATM   17  O   UNK N   1      33.202  22.107  -4.121  0.00  0.00    -0.323 OA
HETATM   18  C   UNK N   1      31.465  22.225  -2.816  0.00  0.00     0.106 A 
HETATM   19  C   UNK N   1      33.468  21.296  -3.012  0.00  0.00     0.352 A 
HETATM   20  O   UNK N   1      32.326  21.408  -2.211  0.00  0.00    -0.323 OA
HETATM   21  C   UNK N   1      30.205  22.631  -2.388  0.00  0.00     0.060 A 
HETATM   22  C   UNK N   1      29.481  23.517  -3.212  0.00  0.00     0.031 A 
HETATM   23 Br   UNK N   1      27.757  24.102  -2.623  0.00  0.00    -0.050 Br
ENDBRANCH  13  14
ENDBRANCH  12  13
BRANCH   1  24
HETATM   24  C   UNK N   1      25.705  24.959  -5.443  0.00  0.00     0.134 C 
BRANCH  24  25
HETATM   25  C   UNK N   1      25.319  26.233  -6.186  0.00  0.00     0.039 C 
BRANCH  25  26
HETATM   26  C   UNK N   1      25.369  27.471  -5.287  0.00  0.00     0.115 C 
BRANCH  26  27
HETATM   27  N   UNK N   1      26.452  27.401  -4.312  0.00  0.00    -0.418 N 
HETATM   28  H   UNK N   1      26.643  26.607  -3.699  0.00  0.00     0.153 HD
BRANCH  27  29
HETATM   29  C   UNK N   1      27.218  28.639  -4.350  0.00  0.00     0.068 C 
HETATM   30  C   UNK N   1      26.411  29.739  -3.696  0.00  0.00     0.031 C 
HETATM   31  C   UNK N   1      27.524  29.027  -5.784  0.00  0.00     0.031 C 
ENDBRANCH  27  29
ENDBRANCH  26  27
ENDBRANCH  25  26
ENDBRANCH  24  25
ENDBRANCH   1  24
BRANCH   8  32
HETATM   32  N   UNK N   1      28.188  20.548  -8.736  0.00  0.00    -0.383 N 
HETATM   33  H   UNK N   1      28.281  20.079  -9.597  0.00  0.00     0.157 HD
HETATM   34  H   UNK N   1      28.991  20.529  -8.166  0.00  0.00     0.157 HD
ENDBRANCH   8  32
TORSDOF 8
ENDMDL
MODEL 4
REMARK VINA RESULT:      -6.3      7.099      9.971
REMARK  8 active torsions:
REMARK  status: ('A' for Active; 'I' for Inactive)
REMARK    1  A    between atoms: C_2  and  N_4 
REMARK    2  A    between atoms: N_4  and  C_5 
REMARK    3  A    between atoms: C_5  and  C_6 
REMARK    4  A    between atoms: C_6  and  C_7 
REMARK    5  A    between atoms: C_7  and  N_8 
REMARK    6  A    between atoms: C_15  and  N_16 
REMARK    7  A    between atoms: C_20  and  S_21 
REMARK    8  A    between atoms: S_21  and  C_22 
ROOT
HETATM    1  N   UNK N   1      31.842  16.968   5.585  0.00  0.00    -0.311 N 
HETATM    2  C   UNK N   1      32.573  17.033   6.708  0.00  0.00     0.141 A 
HETATM    3  N   UNK N   1      33.700  17.753   6.927  0.00  0.00    -0.336 N 
ATOM      4  HN  UNK N   1      34.092  18.348   6.197  1.00  0.00     0.168 HD
HETATM    5  C   UNK N   1      34.295  17.658   8.158  0.00  0.00     0.183 A 
HETATM    6  N   UNK N   1      33.758  16.850   9.132  0.00  0.00    -0.337 N 
ATOM      7  HN  UNK N   1      34.217  16.786  10.041  1.00  0.00     0.168 HD
HETATM    8  C   UNK N   1      32.620  16.132   8.900  0.00  0.00     0.131 A 
HETATM    9  C   UNK N   1      32.026  16.243   7.655  0.00  0.00     0.123 A 
HETATM   10  N   UNK N   1      30.924  15.649   7.179  0.00  0.00    -0.330 N 
ATOM     11  HN  UNK N   1      30.296  15.010   7.666  1.00  0.00     0.168 HD
HETATM   12  C   UNK N   1      30.834  16.094   5.895  0.00  0.00     0.153 A 
ENDROOT
BRANCH  12  13
HETATM   13  S   UNK N   1      29.517  15.540   4.786  0.00  0.00    -0.052 SA
BRANCH  13  14
HETATM   14  C   UNK N   1      28.380  16.945   4.973  0.00  0.00     0.028 A 
HETATM   15  C   UNK N   1      28.622  17.931   5.953  0.00  0.00     0.060 A 
HETATM   16  C   UNK N   1      27.755  19.009   6.037  0.00  0.00     0.106 A 
HETATM   17  O   UNK N   1      27.800  20.038   6.879  0.00  0.00    -0.323 OA
HETATM   18  C   UNK N   1      26.711  19.147   5.219  0.00  0.00     0.106 A 
HETATM   19  C   UNK N   1      26.729  20.890   6.589  0.00  0.00     0.352 A 
HETATM   20  O   UNK N   1      26.067  20.273   5.521  0.00  0.00    -0.323 OA
HETATM   21  C   UNK N   1      26.416  18.216   4.228  0.00  0.00     0.060 A 
HETATM   22  C   UNK N   1      27.263  17.095   4.101  0.00  0.00     0.031 A 
HETATM   23 Br   UNK N   1      26.882  15.821   2.725  0.00  0.00    -0.050 Br
ENDBRANCH  13  14
ENDBRANCH  12  13
BRANCH   1  24
HETATM   24  C   UNK N   1      32.170  17.713   4.363  0.00  0.00     0.134 C 
BRANCH  24  25
HETATM   25  C   UNK N   1      32.524  16.864   3.147  0.00  0.00     0.039 C 
BRANCH  25  26
HETATM   26  C   UNK N   1      33.491  15.727   3.490  0.00  0.00     0.115 C 
BRANCH  26  27
HETATM   27  N   UNK N   1      33.777  14.880   2.336  0.00  0.00    -0.418 N 
HETATM   28  H   UNK N   1      34.034  15.217   1.407  0.00  0.00     0.153 HD
BRANCH  27  29
HETATM   29  C   UNK N   1      33.637  13.482   2.716  0.00  0.00     0.068 C 
HETATM   30  C   UNK N   1      32.709  12.794   1.737  0.00  0.00     0.031 C 
HETATM   31  C   UNK N   1      33.060  13.369   4.115  0.00  0.00     0.031 C 
ENDBRANCH  27  29
ENDBRANCH  26  27
ENDBRANCH  25  26
ENDBRANCH  24  25
ENDBRANCH   1  24
BRANCH   8  32
HETATM   32  N   UNK N   1      32.078  15.296   9.897  0.00  0.00    -0.383 N 
HETATM   33  H   UNK N   1      31.141  15.104  10.128  0.00  0.00     0.157 HD
HETATM   34  H   UNK N   1      32.745  14.830  10.452  0.00  0.00     0.157 HD
ENDBRANCH   8  32
TORSDOF 8
ENDMDL
MODEL 5
REMARK VINA RESULT:      -6.3      3.563      4.442
REMARK  8 active torsions:
REMARK  status: ('A' for Active; 'I' for Inactive)
REMARK    1  A    between atoms: C_2  and  N_4 
REMARK    2  A    between atoms: N_4  and  C_5 
REMARK    3  A    between atoms: C_5  and  C_6 
REMARK    4  A    between atoms: C_6  and  C_7 
REMARK    5  A    between atoms: C_7  and  N_8 
REMARK    6  A    between atoms: C_15  and  N_16 
REMARK    7  A    between atoms: C_20  and  S_21 
REMARK    8  A    between atoms: S_21  and  C_22 
ROOT
HETATM    1  N   UNK N   1      22.914  18.310   4.274  0.00  0.00    -0.311 N 
HETATM    2  C   UNK N   1      22.122  19.017   3.453  0.00  0.00     0.141 A 
HETATM    3  N   UNK N   1      22.406  20.184   2.825  0.00  0.00    -0.336 N 
ATOM      4  HN  UNK N   1      23.315  20.633   2.937  1.00  0.00     0.168 HD
HETATM    5  C   UNK N   1      21.434  20.741   2.035  0.00  0.00     0.183 A 
HETATM    6  N   UNK N   1      20.211  20.128   1.896  0.00  0.00    -0.337 N 
ATOM      7  HN  UNK N   1      19.497  20.560   1.309  1.00  0.00     0.168 HD
HETATM    8  C   UNK N   1      19.940  18.950   2.531  0.00  0.00     0.131 A 
HETATM    9  C   UNK N   1      20.933  18.395   3.319  0.00  0.00     0.123 A 
HETATM   10  N   UNK N   1      20.919  17.267   4.042  0.00  0.00    -0.330 N 
ATOM     11  HN  UNK N   1      20.164  16.586   4.126  1.00  0.00     0.168 HD
HETATM   12  C   UNK N   1      22.142  17.238   4.638  0.00  0.00     0.153 A 
ENDROOT
BRANCH  12  13
HETATM   13  S   UNK N   1      22.616  15.914   5.775  0.00  0.00    -0.052 SA
BRANCH  13  14
HETATM   14  C   UNK N   1      23.615  14.909   4.639  0.00  0.00     0.028 A 
HETATM   15  C   UNK N   1      23.023  14.321   3.500  0.00  0.00     0.060 A 
HETATM   16  C   UNK N   1      23.827  13.595   2.636  0.00  0.00     0.106 A 
HETATM   17  O   UNK N   1      23.475  12.966   1.518  0.00  0.00    -0.323 OA
HETATM   18  C   UNK N   1      25.136  13.444   2.839  0.00  0.00     0.106 A 
HETATM   19  C   UNK N   1      24.619  12.379   0.966  0.00  0.00     0.352 A 
HETATM   20  O   UNK N   1      25.650  12.716   1.850  0.00  0.00    -0.323 OA
HETATM   21  C   UNK N   1      25.786  14.001   3.937  0.00  0.00     0.060 A 
HETATM   22  C   UNK N   1      25.015  14.746   4.853  0.00  0.00     0.031 A 
HETATM   23 Br   UNK N   1      25.901  15.537   6.353  0.00  0.00    -0.050 Br
ENDBRANCH  13  14
ENDBRANCH  12  13
BRANCH   1  24
HETATM   24  C   UNK N   1      24.280  18.717   4.628  0.00  0.00     0.134 C 
BRANCH  24  25
HETATM   25  C   UNK N   1      25.372  18.276   3.660  0.00  0.00     0.039 C 
BRANCH  25  26
HETATM   26  C   UNK N   1      26.773  18.653   4.150  0.00  0.00     0.115 C 
BRANCH  26  27
HETATM   27  N   UNK N   1      26.985  20.097   4.153  0.00  0.00    -0.418 N 
HETATM   28  H   UNK N   1      26.702  20.736   3.410  0.00  0.00     0.153 HD
BRANCH  27  29
HETATM   29  C   UNK N   1      27.664  20.483   5.382  0.00  0.00     0.068 C 
HETATM   30  C   UNK N   1      27.885  19.250   6.233  0.00  0.00     0.031 C 
HETATM   31  C   UNK N   1      26.825  21.482   6.157  0.00  0.00     0.031 C 
ENDBRANCH  27  29
ENDBRANCH  26  27
ENDBRANCH  25  26
ENDBRANCH  24  25
ENDBRANCH   1  24
BRANCH   8  32
HETATM   32  N   UNK N   1      18.682  18.329   2.394  0.00  0.00    -0.383 N 
HETATM   33  H   UNK N   1      18.023  18.377   1.664  0.00  0.00     0.157 HD
HETATM   34  H   UNK N   1      18.419  17.758   3.152  0.00  0.00     0.157 HD
ENDBRANCH   8  32
TORSDOF 8
ENDMDL
MODEL 6
REMARK VINA RESULT:      -6.2     11.577     15.971
REMARK  8 active torsions:
REMARK  status: ('A' for Active; 'I' for Inactive)
REMARK    1  A    between atoms: C_2  and  N_4 
REMARK    2  A    between atoms: N_4  and  C_5 
REMARK    3  A    between atoms: C_5  and  C_6 
REMARK    4  A    between atoms: C_6  and  C_7 
REMARK    5  A    between atoms: C_7  and  N_8 
REMARK    6  A    between atoms: C_15  and  N_16 
REMARK    7  A    between atoms: C_20  and  S_21 
REMARK    8  A    between atoms: S_21  and  C_22 
ROOT
HETATM    1  N   UNK N   1      35.083  13.924  11.535  0.00  0.00    -0.311 N 
HETATM    2  C   UNK N   1      35.795  13.856  12.670  0.00  0.00     0.141 A 
HETATM    3  N   UNK N   1      36.124  14.870  13.506  0.00  0.00    -0.336 N 
ATOM      4  HN  UNK N   1      35.820  15.826  13.318  1.00  0.00     0.168 HD
HETATM    5  C   UNK N   1      36.877  14.572  14.612  0.00  0.00     0.183 A 
HETATM    6  N   UNK N   1      37.283  13.281  14.853  0.00  0.00    -0.337 N 
ATOM      7  HN  UNK N   1      37.848  13.077  15.678  1.00  0.00     0.168 HD
HETATM    8  C   UNK N   1      36.940  12.267  14.004  0.00  0.00     0.131 A 
HETATM    9  C   UNK N   1      36.175  12.582  12.895  0.00  0.00     0.123 A 
HETATM   10  N   UNK N   1      35.717  11.786  11.920  0.00  0.00    -0.330 N 
ATOM     11  HN  UNK N   1      35.834  10.777  11.828  1.00  0.00     0.168 HD
HETATM   12  C   UNK N   1      35.060  12.632  11.080  0.00  0.00     0.153 A 
ENDROOT
BRANCH  12  13
HETATM   13  S   UNK N   1      34.283  12.046   9.555  0.00  0.00    -0.052 SA
BRANCH  13  14
HETATM   14  C   UNK N   1      35.298  12.956   8.354  0.00  0.00     0.028 A 
HETATM   15  C   UNK N   1      36.700  12.799   8.342  0.00  0.00     0.060 A 
HETATM   16  C   UNK N   1      37.435  13.478   7.384  0.00  0.00     0.106 A 
HETATM   17  O   UNK N   1      38.752  13.471   7.199  0.00  0.00    -0.323 OA
HETATM   18  C   UNK N   1      36.861  14.263   6.471  0.00  0.00     0.106 A 
HETATM   19  C   UNK N   1      39.047  14.292   6.105  0.00  0.00     0.352 A 
HETATM   20  O   UNK N   1      37.804  14.772   5.679  0.00  0.00    -0.323 OA
HETATM   21  C   UNK N   1      35.484  14.458   6.420  0.00  0.00     0.060 A 
HETATM   22  C   UNK N   1      34.687  13.795   7.377  0.00  0.00     0.031 A 
HETATM   23 Br   UNK N   1      32.791  14.036   7.302  0.00  0.00    -0.050 Br
ENDBRANCH  13  14
ENDBRANCH  12  13
BRANCH   1  24
HETATM   24  C   UNK N   1      34.521  15.173  11.006  0.00  0.00     0.134 C 
BRANCH  24  25
HETATM   25  C   UNK N   1      35.509  16.096  10.301  0.00  0.00     0.039 C 
BRANCH  25  26
HETATM   26  C   UNK N   1      34.839  16.959   9.229  0.00  0.00     0.115 C 
BRANCH  26  27
HETATM   27  N   UNK N   1      33.396  17.061   9.426  0.00  0.00    -0.418 N 
HETATM   28  H   UNK N   1      32.870  16.612  10.177  0.00  0.00     0.153 HD
BRANCH  27  29
HETATM   29  C   UNK N   1      32.824  17.902   8.384  0.00  0.00     0.068 C 
HETATM   30  C   UNK N   1      31.381  17.501   8.163  0.00  0.00     0.031 C 
HETATM   31  C   UNK N   1      33.594  17.735   7.088  0.00  0.00     0.031 C 
ENDBRANCH  27  29
ENDBRANCH  26  27
ENDBRANCH  25  26
ENDBRANCH  24  25
ENDBRANCH   1  24
BRANCH   8  32
HETATM   32  N   UNK N   1      37.368  10.947  14.247  0.00  0.00    -0.383 N 
HETATM   33  H   UNK N   1      37.901  10.335  13.690  0.00  0.00     0.157 HD
HETATM   34  H   UNK N   1      37.086  10.575  15.115  0.00  0.00     0.157 HD
ENDBRANCH   8  32
TORSDOF 8
ENDMDL
MODEL 7
REMARK VINA RESULT:      -6.2      8.609     11.905
REMARK  8 active torsions:
REMARK  status: ('A' for Active; 'I' for Inactive)
REMARK    1  A    between atoms: C_2  and  N_4 
REMARK    2  A    between atoms: N_4  and  C_5 
REMARK    3  A    between atoms: C_5  and  C_6 
REMARK    4  A    between atoms: C_6  and  C_7 
REMARK    5  A    between atoms: C_7  and  N_8 
REMARK    6  A    between atoms: C_15  and  N_16 
REMARK    7  A    between atoms: C_20  and  S_21 
REMARK    8  A    between atoms: S_21  and  C_22 
ROOT
HETATM    1  N   UNK N   1      31.590  17.240   6.580  0.00  0.00    -0.311 N 
HETATM    2  C   UNK N   1      30.395  17.315   7.186  0.00  0.00     0.141 A 
HETATM    3  N   UNK N   1      29.182  17.499   6.611  0.00  0.00    -0.336 N 
ATOM      4  HN  UNK N   1      29.088  17.590   5.599  1.00  0.00     0.168 HD
HETATM    5  C   UNK N   1      28.084  17.558   7.430  0.00  0.00     0.183 A 
HETATM    6  N   UNK N   1      28.224  17.437   8.793  0.00  0.00    -0.337 N 
ATOM      7  HN  UNK N   1      27.398  17.490   9.390  1.00  0.00     0.168 HD
HETATM    8  C   UNK N   1      29.453  17.248   9.359  0.00  0.00     0.131 A 
HETATM    9  C   UNK N   1      30.550  17.184   8.519  0.00  0.00     0.123 A 
HETATM   10  N   UNK N   1      31.845  17.014   8.817  0.00  0.00    -0.330 N 
ATOM     11  HN  UNK N   1      32.263  16.875   9.737  1.00  0.00     0.168 HD
HETATM   12  C   UNK N   1      32.474  17.067   7.612  0.00  0.00     0.153 A 
ENDROOT
BRANCH  12  13
HETATM   13  S   UNK N   1      34.272  16.933   7.470  0.00  0.00    -0.052 SA
BRANCH  13  14
HETATM   14  C   UNK N   1      34.579  15.777   8.837  0.00  0.00     0.028 A 
HETATM   15  C   UNK N   1      35.142  16.236  10.046  0.00  0.00     0.060 A 
HETATM   16  C   UNK N   1      35.323  15.332  11.080  0.00  0.00     0.106 A 
HETATM   17  O   UNK N   1      35.832  15.554  12.288  0.00  0.00    -0.323 OA
HETATM   18  C   UNK N   1      34.972  14.050  10.972  0.00  0.00     0.106 A 
HETATM   19  C   UNK N   1      35.807  14.351  13.004  0.00  0.00     0.352 A 
HETATM   20  O   UNK N   1      35.249  13.425  12.116  0.00  0.00    -0.323 OA
HETATM   21  C   UNK N   1      34.407  13.529   9.812  0.00  0.00     0.060 A 
HETATM   22  C   UNK N   1      34.206  14.405   8.725  0.00  0.00     0.031 A 
HETATM   23 Br   UNK N   1      33.405  13.707   7.133  0.00  0.00    -0.050 Br
ENDBRANCH  13  14
ENDBRANCH  12  13
BRANCH   1  24
HETATM   24  C   UNK N   1      31.767  17.346   5.126  0.00  0.00     0.134 C 
BRANCH  24  25
HETATM   25  C   UNK N   1      32.004  16.031   4.392  0.00  0.00     0.039 C 
BRANCH  25  26
HETATM   26  C   UNK N   1      33.455  15.873   3.932  0.00  0.00     0.115 C 
BRANCH  26  27
HETATM   27  N   UNK N   1      33.551  15.560   2.509  0.00  0.00    -0.418 N 
HETATM   28  H   UNK N   1      33.253  16.174   1.749  0.00  0.00     0.153 HD
BRANCH  27  29
HETATM   29  C   UNK N   1      34.137  14.237   2.343  0.00  0.00     0.068 C 
HETATM   30  C   UNK N   1      33.028  13.231   2.118  0.00  0.00     0.031 C 
HETATM   31  C   UNK N   1      34.923  13.848   3.580  0.00  0.00     0.031 C 
ENDBRANCH  27  29
ENDBRANCH  26  27
ENDBRANCH  25  26
ENDBRANCH  24  25
ENDBRANCH   1  24
BRANCH   8  32
HETATM   32  N   UNK N   1      29.594  17.136  10.757  0.00  0.00    -0.383 N 
HETATM   33  H   UNK N   1      28.922  16.953  11.453  0.00  0.00     0.157 HD
HETATM   34  H   UNK N   1      30.511  17.262  11.091  0.00  0.00     0.157 HD
ENDBRANCH   8  32
TORSDOF 8
ENDMDL
MODEL 8
REMARK VINA RESULT:      -6.2      2.965      3.692
REMARK  8 active torsions:
REMARK  status: ('A' for Active; 'I' for Inactive)
REMARK    1  A    between atoms: C_2  and  N_4 
REMARK    2  A    between atoms: N_4  and  C_5 
REMARK    3  A    between atoms: C_5  and  C_6 
REMARK    4  A    between atoms: C_6  and  C_7 
REMARK    5  A    between atoms: C_7  and  N_8 
REMARK    6  A    between atoms: C_15  and  N_16 
REMARK    7  A    between atoms: C_20  and  S_21 
REMARK    8  A    between atoms: S_21  and  C_22 
ROOT
HETATM    1  N   UNK N   1      22.778  16.166   4.177  0.00  0.00    -0.311 N 
HETATM    2  C   UNK N   1      22.429  15.497   3.067  0.00  0.00     0.141 A 
HETATM    3  N   UNK N   1      23.237  15.065   2.069  0.00  0.00    -0.336 N 
ATOM      4  HN  UNK N   1      24.245  15.223   2.103  1.00  0.00     0.168 HD
HETATM    5  C   UNK N   1      22.660  14.407   1.014  0.00  0.00     0.183 A 
HETATM    6  N   UNK N   1      21.301  14.203   0.978  0.00  0.00    -0.337 N 
ATOM      7  HN  UNK N   1      20.886  13.717   0.183  1.00  0.00     0.168 HD
HETATM    8  C   UNK N   1      20.498  14.640   1.993  0.00  0.00     0.131 A 
HETATM    9  C   UNK N   1      21.096  15.296   3.055  0.00  0.00     0.123 A 
HETATM   10  N   UNK N   1      20.541  15.821   4.156  0.00  0.00    -0.330 N 
ATOM     11  HN  UNK N   1      19.558  15.812   4.427  1.00  0.00     0.168 HD
HETATM   12  C   UNK N   1      21.590  16.368   4.829  0.00  0.00     0.153 A 
ENDROOT
BRANCH  12  13
HETATM   13  S   UNK N   1      21.361  17.254   6.389  0.00  0.00    -0.052 SA
BRANCH  13  14
HETATM   14  C   UNK N   1      21.332  15.834   7.520  0.00  0.00     0.028 A 
HETATM   15  C   UNK N   1      22.311  14.823   7.420  0.00  0.00     0.060 A 
HETATM   16  C   UNK N   1      22.279  13.777   8.327  0.00  0.00     0.106 A 
HETATM   17  O   UNK N   1      23.099  12.732   8.409  0.00  0.00    -0.323 OA
HETATM   18  C   UNK N   1      21.363  13.700   9.294  0.00  0.00     0.106 A 
HETATM   19  C   UNK N   1      22.694  11.938   9.488  0.00  0.00     0.352 A 
HETATM   20  O   UNK N   1      21.582  12.603  10.016  0.00  0.00    -0.323 OA
HETATM   21  C   UNK N   1      20.372  14.664   9.454  0.00  0.00     0.060 A 
HETATM   22  C   UNK N   1      20.354  15.749   8.554  0.00  0.00     0.031 A 
HETATM   23 Br   UNK N   1      19.011  17.094   8.780  0.00  0.00    -0.050 Br
ENDBRANCH  13  14
ENDBRANCH  12  13
BRANCH   1  24
HETATM   24  C   UNK N   1      24.161  16.543   4.493  0.00  0.00     0.134 C 
BRANCH  24  25
HETATM   25  C   UNK N   1      24.515  18.008   4.263  0.00  0.00     0.039 C 
BRANCH  25  26
HETATM   26  C   UNK N   1      25.871  18.383   4.867  0.00  0.00     0.115 C 
BRANCH  26  27
HETATM   27  N   UNK N   1      25.793  19.581   5.696  0.00  0.00    -0.418 N 
HETATM   28  H   UNK N   1      25.190  19.696   6.512  0.00  0.00     0.153 HD
BRANCH  27  29
HETATM   29  C   UNK N   1      26.708  20.589   5.178  0.00  0.00     0.068 C 
HETATM   30  C   UNK N   1      27.940  19.901   4.630  0.00  0.00     0.031 C 
HETATM   31  C   UNK N   1      27.119  21.546   6.281  0.00  0.00     0.031 C 
ENDBRANCH  27  29
ENDBRANCH  26  27
ENDBRANCH  25  26
ENDBRANCH  24  25
ENDBRANCH   1  24
BRANCH   8  32
HETATM   32  N   UNK N   1      19.104  14.439   1.949  0.00  0.00    -0.383 N 
HETATM   33  H   UNK N   1      18.433  14.763   1.305  0.00  0.00     0.157 HD
HETATM   34  H   UNK N   1      18.743  13.886   2.679  0.00  0.00     0.157 HD
ENDBRANCH   8  32
TORSDOF 8
ENDMDL
MODEL 9
REMARK VINA RESULT:      -6.2      8.496     11.485
REMARK  8 active torsions:
REMARK  status: ('A' for Active; 'I' for Inactive)
REMARK    1  A    between atoms: C_2  and  N_4 
REMARK    2  A    between atoms: N_4  and  C_5 
REMARK    3  A    between atoms: C_5  and  C_6 
REMARK    4  A    between atoms: C_6  and  C_7 
REMARK    5  A    between atoms: C_7  and  N_8 
REMARK    6  A    between atoms: C_15  and  N_16 
REMARK    7  A    between atoms: C_20  and  S_21 
REMARK    8  A    between atoms: S_21  and  C_22 
ROOT
HETATM    1  N   UNK N   1      31.656  16.861   6.640  0.00  0.00    -0.311 N 
HETATM    2  C   UNK N   1      30.384  17.003   7.040  0.00  0.00     0.141 A 
HETATM    3  N   UNK N   1      29.260  16.597   6.401  0.00  0.00    -0.336 N 
ATOM      4  HN  UNK N   1      29.313  16.109   5.506  1.00  0.00     0.168 HD
HETATM    5  C   UNK N   1      28.052  16.860   6.993  0.00  0.00     0.183 A 
HETATM    6  N   UNK N   1      27.995  17.522   8.198  0.00  0.00    -0.337 N 
ATOM      7  HN  UNK N   1      27.088  17.716   8.621  1.00  0.00     0.168 HD
HETATM    8  C   UNK N   1      29.136  17.922   8.833  0.00  0.00     0.131 A 
HETATM    9  C   UNK N   1      30.348  17.643   8.227  0.00  0.00     0.123 A 
HETATM   10  N   UNK N   1      31.591  17.929   8.634  0.00  0.00    -0.330 N 
ATOM     11  HN  UNK N   1      31.878  18.395   9.495  1.00  0.00     0.168 HD
HETATM   12  C   UNK N   1      32.386  17.455   7.635  0.00  0.00     0.153 A 
ENDROOT
BRANCH  12  13
HETATM   13  S   UNK N   1      34.185  17.636   7.683  0.00  0.00    -0.052 SA
BRANCH  13  14
HETATM   14  C   UNK N   1      34.599  16.116   8.586  0.00  0.00     0.028 A 
HETATM   15  C   UNK N   1      34.350  16.020   9.971  0.00  0.00     0.060 A 
HETATM   16  C   UNK N   1      34.642  14.829  10.617  0.00  0.00     0.106 A 
HETATM   17  O   UNK N   1      34.487  14.530  11.903  0.00  0.00    -0.323 OA
HETATM   18  C   UNK N   1      35.139  13.773   9.971  0.00  0.00     0.106 A 
HETATM   19  C   UNK N   1      34.901  13.209  12.101  0.00  0.00     0.352 A 
HETATM   20  O   UNK N   1      35.308  12.774  10.835  0.00  0.00    -0.323 OA
HETATM   21  C   UNK N   1      35.404  13.795   8.605  0.00  0.00     0.060 A 
HETATM   22  C   UNK N   1      35.131  14.985   7.899  0.00  0.00     0.031 A 
HETATM   23 Br   UNK N   1      35.467  15.020   6.015  0.00  0.00    -0.050 Br
ENDBRANCH  13  14
ENDBRANCH  12  13
BRANCH   1  24
HETATM   24  C   UNK N   1      32.039  16.204   5.384  0.00  0.00     0.134 C 
BRANCH  24  25
HETATM   25  C   UNK N   1      32.001  17.084   4.140  0.00  0.00     0.039 C 
BRANCH  25  26
HETATM   26  C   UNK N   1      31.065  16.531   3.062  0.00  0.00     0.115 C 
BRANCH  26  27
HETATM   27  N   UNK N   1      31.025  15.072   3.063  0.00  0.00    -0.418 N 
HETATM   28  H   UNK N   1      31.837  14.460   3.151  0.00  0.00     0.153 HD
BRANCH  27  29
HETATM   29  C   UNK N   1      29.646  14.626   2.918  0.00  0.00     0.068 C 
HETATM   30  C   UNK N   1      28.744  15.837   2.812  0.00  0.00     0.031 C 
HETATM   31  C   UNK N   1      29.231  13.795   4.117  0.00  0.00     0.031 C 
ENDBRANCH  27  29
ENDBRANCH  26  27
ENDBRANCH  25  26
ENDBRANCH  24  25
ENDBRANCH   1  24
BRANCH   8  32
HETATM   32  N   UNK N   1      29.073  18.609  10.062  0.00  0.00    -0.383 N 
HETATM   33  H   UNK N   1      29.788  19.022  10.600  0.00  0.00     0.157 HD
HETATM   34  H   UNK N   1      28.169  18.689  10.445  0.00  0.00     0.157 HD
ENDBRANCH   8  32
TORSDOF 8
ENDMDL
