REMARK  8 active torsions:
REMARK  status: ('A' for Active; 'I' for Inactive)
REMARK    1  A    between atoms: C_2  and  C_3 
REMARK       I    between atoms: C_2  and  N_9 
REMARK    2  A    between atoms: C_10  and  N_9 
REMARK    3  A    between atoms: C_10  and  C_12 
REMARK    4  A    between atoms: C_10  and  C_15 
REMARK    5  A    between atoms: C_21  and  N_20 
REMARK    6  A    between atoms: C_21  and  C_22 
REMARK    7  A    between atoms: C_21  and  C_25 
REMARK    8  A    between atoms: C_25  and  C_26 
ROOT
HETATM    1  C   UNK N   1       2.734  -0.240  -0.137  0.00  0.00     0.077 C 
HETATM    2  C   UNK N   1       3.291  -0.413  -1.552  0.00  0.00     0.046 C 
ENDROOT
BRANCH   1   3
HETATM    3  N   UNK N   1       1.963   0.981   0.044  0.00  0.00    -0.342 N 
HETATM    4  C   UNK N   1       1.753   2.012  -0.812  0.00  0.00     0.252 C 
HETATM    5  O   UNK N   1       2.433   2.154  -1.817  0.00  0.00    -0.268 OA
HETATM    6  H   UNK N   1       1.527   1.073   0.922  0.00  0.00     0.164 HD
BRANCH   4   7
HETATM    7  C   UNK N   1       0.605   2.904  -0.550  0.00  0.00     0.032 A 
HETATM    8  C   UNK N   1      -0.281   2.592   0.495  0.00  0.00     0.017 A 
HETATM    9  C   UNK N   1      -1.424   3.363   0.711  0.00  0.00     0.001 A 
HETATM   10  C   UNK N   1      -1.690   4.455  -0.117  0.00  0.00     0.000 A 
HETATM   11  C   UNK N   1      -0.812   4.775  -1.158  0.00  0.00     0.001 A 
HETATM   12  C   UNK N   1       0.329   3.996  -1.381  0.00  0.00     0.017 A 
ENDBRANCH   4   7
ENDBRANCH   1   3
BRANCH   1  13
HETATM   13  C   UNK N   1       3.903  -0.298   0.870  0.00  0.00     0.011 C 
HETATM   14  C   UNK N   1       4.954   0.770   0.585  0.00  0.00     0.012 C 
HETATM   15  C   UNK N   1       3.451  -0.167   2.314  0.00  0.00     0.012 C 
ENDBRANCH   1  13
BRANCH   1  16
HETATM   16  C   UNK N   1       1.733  -1.353   0.060  0.00  0.00     0.069 A 
HETATM   17  N   UNK N   1       2.007  -2.655   0.276  0.00  0.00    -0.284 N 
HETATM   18  N   UNK N   1       0.855  -3.308   0.201  0.00  0.00    -0.020 NA
ATOM     19  HN  UNK N   1       2.925  -3.060   0.461  1.00  0.00     0.184 HD
HETATM   20  N   UNK N   1      -0.134  -2.468  -0.080  0.00  0.00    -0.273 N 
HETATM   21  C   UNK N   1       0.376  -1.233  -0.183  0.00  0.00     0.137 A 
BRANCH  20  22
HETATM   22  C   UNK N   1      -1.512  -2.881  -0.391  0.00  0.00     0.177 C 
BRANCH  22  23
HETATM   23  C   UNK N   1      -2.186  -3.591   0.758  0.00  0.00     0.147 C 
HETATM   24  C   UNK N   1      -3.551  -4.170   0.572  0.00  0.00     0.093 C 
HETATM   25  O   UNK N   1      -1.631  -3.700   1.840  0.00  0.00    -0.296 OA
ENDBRANCH  22  23
BRANCH  22  26
HETATM   26  C   UNK N   1      -2.384  -1.714  -0.904  0.00  0.00     0.061 C 
BRANCH  26  27
HETATM   27  C   UNK N   1      -2.857  -0.769   0.158  0.00  0.00    -0.029 C 
HETATM   28  C   UNK N   1      -3.798   0.125  -0.141  0.00  0.00    -0.035 C 
HETATM   29  C   UNK N   1      -4.326   1.047   0.902  0.00  0.00     0.036 C 
ENDBRANCH  26  27
ENDBRANCH  22  26
ENDBRANCH  20  22
ENDBRANCH   1  16
TORSDOF 8
