MODEL 1
REMARK VINA RESULT:      -7.7      0.000      0.000
REMARK  8 active torsions:
REMARK  status: ('A' for Active; 'I' for Inactive)
REMARK    1  A    between atoms: C_2  and  C_3 
REMARK       I    between atoms: C_2  and  N_9 
REMARK    2  A    between atoms: C_10  and  N_9 
REMARK    3  A    between atoms: C_10  and  C_12 
REMARK    4  A    between atoms: C_10  and  C_15 
REMARK    5  A    between atoms: C_21  and  N_20 
REMARK    6  A    between atoms: C_21  and  C_22 
REMARK    7  A    between atoms: C_21  and  C_25 
REMARK    8  A    between atoms: C_25  and  C_26 
ROOT
HETATM    1  C   UNK N   1      36.091  13.440  11.569  0.00  0.00     0.077 C 
HETATM    2  C   UNK N   1      37.534  13.072  11.214  0.00  0.00     0.046 C 
ENDROOT
BRANCH   1   3
HETATM    3  N   UNK N   1      35.877  13.670  12.990  0.00  0.00    -0.342 N 
HETATM    4  C   UNK N   1      36.556  13.188  14.061  0.00  0.00     0.252 C 
HETATM    5  O   UNK N   1      37.328  12.248  13.954  0.00  0.00    -0.268 OA
HETATM    6  H   UNK N   1      35.125  14.267  13.207  0.00  0.00     0.164 HD
BRANCH   4   7
HETATM    7  C   UNK N   1      36.413  13.901  15.346  0.00  0.00     0.032 A 
HETATM    8  C   UNK N   1      37.219  15.025  15.600  0.00  0.00     0.017 A 
HETATM    9  C   UNK N   1      37.174  15.666  16.838  0.00  0.00     0.001 A 
HETATM   10  C   UNK N   1      36.320  15.189  17.835  0.00  0.00     0.000 A 
HETATM   11  C   UNK N   1      35.512  14.074  17.590  0.00  0.00     0.001 A 
HETATM   12  C   UNK N   1      35.565  13.424  16.352  0.00  0.00     0.017 A 
ENDBRANCH   4   7
ENDBRANCH   1   3
BRANCH   1  13
HETATM   13  C   UNK N   1      35.151  12.330  11.051  0.00  0.00     0.011 C 
HETATM   14  C   UNK N   1      35.807  11.492   9.958  0.00  0.00     0.012 C 
HETATM   15  C   UNK N   1      34.663  11.403  12.151  0.00  0.00     0.012 C 
ENDBRANCH   1  13
BRANCH   1  16
HETATM   16  C   UNK N   1      35.828  14.780  10.924  0.00  0.00     0.069 A 
HETATM   17  N   UNK N   1      36.424  15.951  11.226  0.00  0.00    -0.284 N 
HETATM   18  N   UNK N   1      35.770  16.896  10.565  0.00  0.00    -0.020 NA
ATOM     19  HN  UNK N   1      37.224  16.083  11.845  1.00  0.00     0.184 HD
HETATM   20  N   UNK N   1      34.766  16.368   9.876  0.00  0.00    -0.273 N 
HETATM   21  C   UNK N   1      34.764  15.043  10.080  0.00  0.00     0.137 A 
BRANCH  20  22
HETATM   22  C   UNK N   1      33.744  17.151   9.162  0.00  0.00     0.177 C 
BRANCH  22  23
HETATM   23  C   UNK N   1      34.316  17.966   8.027  0.00  0.00     0.147 C 
HETATM   24  C   UNK N   1      34.164  17.484   6.621  0.00  0.00     0.093 C 
HETATM   25  O   UNK N   1      34.901  19.016   8.242  0.00  0.00    -0.296 OA
ENDBRANCH  22  23
BRANCH  22  26
HETATM   26  C   UNK N   1      32.560  16.287   8.677  0.00  0.00     0.061 C 
BRANCH  26  27
HETATM   27  C   UNK N   1      31.235  16.986   8.667  0.00  0.00    -0.029 C 
HETATM   28  C   UNK N   1      30.551  17.064   7.526  0.00  0.00    -0.035 C 
HETATM   29  C   UNK N   1      29.210  17.708   7.490  0.00  0.00     0.036 C 
ENDBRANCH  26  27
ENDBRANCH  22  26
ENDBRANCH  20  22
ENDBRANCH   1  16
TORSDOF 8
ENDMDL
MODEL 2
REMARK VINA RESULT:      -7.7     13.486     16.606
REMARK  8 active torsions:
REMARK  status: ('A' for Active; 'I' for Inactive)
REMARK    1  A    between atoms: C_2  and  C_3 
REMARK       I    between atoms: C_2  and  N_9 
REMARK    2  A    between atoms: C_10  and  N_9 
REMARK    3  A    between atoms: C_10  and  C_12 
REMARK    4  A    between atoms: C_10  and  C_15 
REMARK    5  A    between atoms: C_21  and  N_20 
REMARK    6  A    between atoms: C_21  and  C_22 
REMARK    7  A    between atoms: C_21  and  C_25 
REMARK    8  A    between atoms: C_25  and  C_26 
ROOT
HETATM    1  C   UNK N   1      20.305  17.439   2.998  0.00  0.00     0.077 C 
HETATM    2  C   UNK N   1      19.286  18.570   2.840  0.00  0.00     0.046 C 
ENDROOT
BRANCH   1   3
HETATM    3  N   UNK N   1      21.684  17.900   3.072  0.00  0.00    -0.342 N 
HETATM    4  C   UNK N   1      22.177  19.122   3.393  0.00  0.00     0.252 C 
HETATM    5  O   UNK N   1      21.459  20.110   3.425  0.00  0.00    -0.268 OA
HETATM    6  H   UNK N   1      22.363  17.220   2.856  0.00  0.00     0.164 HD
BRANCH   4   7
HETATM    7  C   UNK N   1      23.592  19.208   3.808  0.00  0.00     0.032 A 
HETATM    8  C   UNK N   1      24.377  20.278   3.347  0.00  0.00     0.017 A 
HETATM    9  C   UNK N   1      25.739  20.340   3.646  0.00  0.00     0.001 A 
HETATM   10  C   UNK N   1      26.327  19.332   4.411  0.00  0.00     0.000 A 
HETATM   11  C   UNK N   1      25.552  18.264   4.877  0.00  0.00     0.001 A 
HETATM   12  C   UNK N   1      24.189  18.196   4.569  0.00  0.00     0.017 A 
ENDBRANCH   4   7
ENDBRANCH   1   3
BRANCH   1  13
HETATM   13  C   UNK N   1      20.128  16.442   1.832  0.00  0.00     0.011 C 
HETATM   14  C   UNK N   1      20.031  17.151   0.485  0.00  0.00     0.012 C 
HETATM   15  C   UNK N   1      21.236  15.406   1.762  0.00  0.00     0.012 C 
ENDBRANCH   1  13
BRANCH   1  16
HETATM   16  C   UNK N   1      20.039  16.818   4.348  0.00  0.00     0.069 A 
HETATM   17  N   UNK N   1      18.965  16.085   4.701  0.00  0.00    -0.284 N 
HETATM   18  N   UNK N   1      19.038  15.903   6.013  0.00  0.00    -0.020 NA
ATOM     19  HN  UNK N   1      18.235  15.739   4.078  1.00  0.00     0.184 HD
HETATM   20  N   UNK N   1      20.108  16.516   6.505  0.00  0.00    -0.273 N 
HETATM   21  C   UNK N   1      20.759  17.108   5.494  0.00  0.00     0.137 A 
BRANCH  20  22
HETATM   22  C   UNK N   1      20.402  16.650   7.941  0.00  0.00     0.177 C 
BRANCH  22  23
HETATM   23  C   UNK N   1      19.807  17.897   8.549  0.00  0.00     0.147 C 
HETATM   24  C   UNK N   1      18.565  17.799   9.373  0.00  0.00     0.093 C 
HETATM   25  O   UNK N   1      20.328  18.988   8.377  0.00  0.00    -0.296 OA
ENDBRANCH  22  23
BRANCH  22  26
HETATM   26  C   UNK N   1      20.001  15.398   8.752  0.00  0.00     0.061 C 
BRANCH  26  27
HETATM   27  C   UNK N   1      21.151  14.621   9.317  0.00  0.00    -0.029 C 
HETATM   28  C   UNK N   1      20.905  13.513  10.014  0.00  0.00    -0.035 C 
HETATM   29  C   UNK N   1      22.025  12.690  10.549  0.00  0.00     0.036 C 
ENDBRANCH  26  27
ENDBRANCH  22  26
ENDBRANCH  20  22
ENDBRANCH   1  16
TORSDOF 8
ENDMDL
MODEL 3
REMARK VINA RESULT:      -7.1     17.433     20.657
REMARK  8 active torsions:
REMARK  status: ('A' for Active; 'I' for Inactive)
REMARK    1  A    between atoms: C_2  and  C_3 
REMARK       I    between atoms: C_2  and  N_9 
REMARK    2  A    between atoms: C_10  and  N_9 
REMARK    3  A    between atoms: C_10  and  C_12 
REMARK    4  A    between atoms: C_10  and  C_15 
REMARK    5  A    between atoms: C_21  and  N_20 
REMARK    6  A    between atoms: C_21  and  C_22 
REMARK    7  A    between atoms: C_21  and  C_25 
REMARK    8  A    between atoms: C_25  and  C_26 
ROOT
HETATM    1  C   UNK N   1      30.510  23.547  -3.774  0.00  0.00     0.077 C 
HETATM    2  C   UNK N   1      30.899  22.733  -2.538  0.00  0.00     0.046 C 
ENDROOT
BRANCH   1   3
HETATM    3  N   UNK N   1      30.510  22.777  -5.008  0.00  0.00    -0.342 N 
HETATM    4  C   UNK N   1      30.314  21.449  -5.205  0.00  0.00     0.252 C 
HETATM    5  O   UNK N   1      30.355  20.655  -4.277  0.00  0.00    -0.268 OA
HETATM    6  H   UNK N   1      30.679  23.298  -5.826  0.00  0.00     0.164 HD
BRANCH   4   7
HETATM    7  C   UNK N   1      29.942  21.000  -6.562  0.00  0.00     0.032 A 
HETATM    8  C   UNK N   1      29.327  21.907  -7.440  0.00  0.00     0.017 A 
HETATM    9  C   UNK N   1      28.882  21.491  -8.696  0.00  0.00     0.001 A 
HETATM   10  C   UNK N   1      29.051  20.160  -9.084  0.00  0.00     0.000 A 
HETATM   11  C   UNK N   1      29.665  19.250  -8.218  0.00  0.00     0.001 A 
HETATM   12  C   UNK N   1      30.102  19.666  -6.955  0.00  0.00     0.017 A 
ENDBRANCH   4   7
ENDBRANCH   1   3
BRANCH   1  13
HETATM   13  C   UNK N   1      31.458  24.761  -3.891  0.00  0.00     0.011 C 
HETATM   14  C   UNK N   1      32.012  24.916  -5.303  0.00  0.00     0.012 C 
HETATM   15  C   UNK N   1      30.805  26.067  -3.475  0.00  0.00     0.012 C 
ENDBRANCH   1  13
BRANCH   1  16
HETATM   16  C   UNK N   1      29.067  23.946  -3.577  0.00  0.00     0.069 A 
HETATM   17  N   UNK N   1      28.277  23.625  -2.533  0.00  0.00    -0.284 N 
HETATM   18  N   UNK N   1      27.047  24.010  -2.848  0.00  0.00    -0.020 NA
ATOM     19  HN  UNK N   1      28.569  23.172  -1.667  1.00  0.00     0.184 HD
HETATM   20  N   UNK N   1      27.028  24.540  -4.065  0.00  0.00    -0.273 N 
HETATM   21  C   UNK N   1      28.273  24.512  -4.559  0.00  0.00     0.137 A 
BRANCH  20  22
HETATM   22  C   UNK N   1      25.802  24.921  -4.786  0.00  0.00     0.177 C 
BRANCH  22  23
HETATM   23  C   UNK N   1      25.503  26.397  -4.696  0.00  0.00     0.147 C 
HETATM   24  C   UNK N   1      24.779  27.075  -5.814  0.00  0.00     0.093 C 
HETATM   25  O   UNK N   1      25.845  27.048  -3.722  0.00  0.00    -0.296 OA
ENDBRANCH  22  23
BRANCH  22  26
HETATM   26  C   UNK N   1      25.803  24.448  -6.256  0.00  0.00     0.061 C 
BRANCH  26  27
HETATM   27  C   UNK N   1      25.698  22.965  -6.440  0.00  0.00    -0.029 C 
HETATM   28  C   UNK N   1      25.373  22.480  -7.637  0.00  0.00    -0.035 C 
HETATM   29  C   UNK N   1      25.307  21.010  -7.867  0.00  0.00     0.036 C 
ENDBRANCH  26  27
ENDBRANCH  22  26
ENDBRANCH  20  22
ENDBRANCH   1  16
TORSDOF 8
ENDMDL
MODEL 4
REMARK VINA RESULT:      -7.0      1.959      2.794
REMARK  8 active torsions:
REMARK  status: ('A' for Active; 'I' for Inactive)
REMARK    1  A    between atoms: C_2  and  C_3 
REMARK       I    between atoms: C_2  and  N_9 
REMARK    2  A    between atoms: C_10  and  N_9 
REMARK    3  A    between atoms: C_10  and  C_12 
REMARK    4  A    between atoms: C_10  and  C_15 
REMARK    5  A    between atoms: C_21  and  N_20 
REMARK    6  A    between atoms: C_21  and  C_22 
REMARK    7  A    between atoms: C_21  and  C_25 
REMARK    8  A    between atoms: C_25  and  C_26 
ROOT
HETATM    1  C   UNK N   1      35.837  14.385  10.729  0.00  0.00     0.077 C 
HETATM    2  C   UNK N   1      36.619  15.679  10.968  0.00  0.00     0.046 C 
ENDROOT
BRANCH   1   3
HETATM    3  N   UNK N   1      35.292  13.797  11.944  0.00  0.00    -0.342 N 
HETATM    4  C   UNK N   1      34.875  12.529  12.185  0.00  0.00     0.252 C 
HETATM    5  O   UNK N   1      34.672  11.741  11.274  0.00  0.00    -0.268 OA
HETATM    6  H   UNK N   1      35.213  14.414  12.707  0.00  0.00     0.164 HD
BRANCH   4   7
HETATM    7  C   UNK N   1      34.774  12.092  13.593  0.00  0.00     0.032 A 
HETATM    8  C   UNK N   1      35.419  12.841  14.591  0.00  0.00     0.017 A 
HETATM    9  C   UNK N   1      35.419  12.406  15.917  0.00  0.00     0.001 A 
HETATM   10  C   UNK N   1      34.771  11.216  16.256  0.00  0.00     0.000 A 
HETATM   11  C   UNK N   1      34.124  10.466  15.269  0.00  0.00     0.001 A 
HETATM   12  C   UNK N   1      34.132  10.897  13.938  0.00  0.00     0.017 A 
ENDBRANCH   4   7
ENDBRANCH   1   3
BRANCH   1  13
HETATM   13  C   UNK N   1      36.751  13.376  10.001  0.00  0.00     0.011 C 
HETATM   14  C   UNK N   1      37.146  13.865   8.611  0.00  0.00     0.012 C 
HETATM   15  C   UNK N   1      38.012  13.046  10.780  0.00  0.00     0.012 C 
ENDBRANCH   1  13
BRANCH   1  16
HETATM   16  C   UNK N   1      34.623  14.770   9.917  0.00  0.00     0.069 A 
HETATM   17  N   UNK N   1      33.774  13.933   9.289  0.00  0.00    -0.284 N 
HETATM   18  N   UNK N   1      32.973  14.684   8.545  0.00  0.00    -0.020 NA
ATOM     19  HN  UNK N   1      33.752  12.916   9.371  1.00  0.00     0.184 HD
HETATM   20  N   UNK N   1      33.303  15.965   8.661  0.00  0.00    -0.273 N 
HETATM   21  C   UNK N   1      34.337  16.061   9.508  0.00  0.00     0.137 A 
BRANCH  20  22
HETATM   22  C   UNK N   1      32.724  17.049   7.851  0.00  0.00     0.177 C 
BRANCH  22  23
HETATM   23  C   UNK N   1      33.697  17.613   6.844  0.00  0.00     0.147 C 
HETATM   24  C   UNK N   1      33.542  17.278   5.396  0.00  0.00     0.093 C 
HETATM   25  O   UNK N   1      34.611  18.342   7.196  0.00  0.00    -0.296 OA
ENDBRANCH  22  23
BRANCH  22  26
HETATM   26  C   UNK N   1      31.400  16.642   7.168  0.00  0.00     0.061 C 
BRANCH  26  27
HETATM   27  C   UNK N   1      30.162  17.134   7.854  0.00  0.00    -0.029 C 
HETATM   28  C   UNK N   1      30.281  17.930   8.914  0.00  0.00    -0.035 C 
HETATM   29  C   UNK N   1      29.072  18.477   9.591  0.00  0.00     0.036 C 
ENDBRANCH  26  27
ENDBRANCH  22  26
ENDBRANCH  20  22
ENDBRANCH   1  16
TORSDOF 8
ENDMDL
MODEL 5
REMARK VINA RESULT:      -7.0     17.874     21.901
REMARK  8 active torsions:
REMARK  status: ('A' for Active; 'I' for Inactive)
REMARK    1  A    between atoms: C_2  and  C_3 
REMARK       I    between atoms: C_2  and  N_9 
REMARK    2  A    between atoms: C_10  and  N_9 
REMARK    3  A    between atoms: C_10  and  C_12 
REMARK    4  A    between atoms: C_10  and  C_15 
REMARK    5  A    between atoms: C_21  and  N_20 
REMARK    6  A    between atoms: C_21  and  C_22 
REMARK    7  A    between atoms: C_21  and  C_25 
REMARK    8  A    between atoms: C_25  and  C_26 
ROOT
HETATM    1  C   UNK N   1      26.277  24.968  -5.889  0.00  0.00     0.077 C 
HETATM    2  C   UNK N   1      24.872  24.604  -5.404  0.00  0.00     0.046 C 
ENDROOT
BRANCH   1   3
HETATM    3  N   UNK N   1      26.505  26.401  -6.000  0.00  0.00    -0.342 N 
HETATM    4  C   UNK N   1      26.337  27.383  -5.079  0.00  0.00     0.252 C 
HETATM    5  O   UNK N   1      25.701  27.191  -4.054  0.00  0.00    -0.268 OA
HETATM    6  H   UNK N   1      26.832  26.705  -6.878  0.00  0.00     0.164 HD
BRANCH   4   7
HETATM    7  C   UNK N   1      27.036  28.665  -5.300  0.00  0.00     0.032 A 
HETATM    8  C   UNK N   1      27.987  28.758  -6.331  0.00  0.00     0.017 A 
HETATM    9  C   UNK N   1      28.729  29.926  -6.509  0.00  0.00     0.001 A 
HETATM   10  C   UNK N   1      28.526  31.013  -5.656  0.00  0.00     0.000 A 
HETATM   11  C   UNK N   1      27.580  30.930  -4.629  0.00  0.00     0.001 A 
HETATM   12  C   UNK N   1      26.842  29.755  -4.445  0.00  0.00     0.017 A 
ENDBRANCH   4   7
ENDBRANCH   1   3
BRANCH   1  13
HETATM   13  C   UNK N   1      26.534  24.271  -7.243  0.00  0.00     0.011 C 
HETATM   14  C   UNK N   1      25.970  22.855  -7.271  0.00  0.00     0.012 C 
HETATM   15  C   UNK N   1      25.976  25.044  -8.425  0.00  0.00     0.012 C 
ENDBRANCH   1  13
BRANCH   1  16
HETATM   16  C   UNK N   1      27.227  24.516  -4.806  0.00  0.00     0.069 A 
HETATM   17  N   UNK N   1      26.899  24.129  -3.557  0.00  0.00    -0.284 N 
HETATM   18  N   UNK N   1      28.035  24.001  -2.884  0.00  0.00    -0.020 NA
ATOM     19  HN  UNK N   1      25.958  23.966  -3.199  1.00  0.00     0.184 HD
HETATM   20  N   UNK N   1      29.067  24.318  -3.656  0.00  0.00    -0.273 N 
HETATM   21  C   UNK N   1      28.602  24.654  -4.867  0.00  0.00     0.137 A 
BRANCH  20  22
HETATM   22  C   UNK N   1      30.454  24.440  -3.180  0.00  0.00     0.177 C 
BRANCH  22  23
HETATM   23  C   UNK N   1      31.174  23.114  -3.122  0.00  0.00     0.147 C 
HETATM   24  C   UNK N   1      31.804  22.559  -4.358  0.00  0.00     0.093 C 
HETATM   25  O   UNK N   1      31.249  22.486  -2.078  0.00  0.00    -0.296 OA
ENDBRANCH  22  23
BRANCH  22  26
HETATM   26  C   UNK N   1      31.273  25.475  -3.982  0.00  0.00     0.061 C 
BRANCH  26  27
HETATM   27  C   UNK N   1      31.302  26.850  -3.388  0.00  0.00    -0.029 C 
HETATM   28  C   UNK N   1      30.241  27.642  -3.531  0.00  0.00    -0.035 C 
HETATM   29  C   UNK N   1      30.217  28.996  -2.912  0.00  0.00     0.036 C 
ENDBRANCH  26  27
ENDBRANCH  22  26
ENDBRANCH  20  22
ENDBRANCH   1  16
TORSDOF 8
ENDMDL
MODEL 6
REMARK VINA RESULT:      -7.0     17.070     21.288
REMARK  8 active torsions:
REMARK  status: ('A' for Active; 'I' for Inactive)
REMARK    1  A    between atoms: C_2  and  C_3 
REMARK       I    between atoms: C_2  and  N_9 
REMARK    2  A    between atoms: C_10  and  N_9 
REMARK    3  A    between atoms: C_10  and  C_12 
REMARK    4  A    between atoms: C_10  and  C_15 
REMARK    5  A    between atoms: C_21  and  N_20 
REMARK    6  A    between atoms: C_21  and  C_22 
REMARK    7  A    between atoms: C_21  and  C_25 
REMARK    8  A    between atoms: C_25  and  C_26 
ROOT
HETATM    1  C   UNK N   1      27.859  22.871  -7.613  0.00  0.00     0.077 C 
HETATM    2  C   UNK N   1      26.815  21.753  -7.666  0.00  0.00     0.046 C 
ENDROOT
BRANCH   1   3
HETATM    3  N   UNK N   1      27.388  24.081  -6.955  0.00  0.00    -0.342 N 
HETATM    4  C   UNK N   1      26.122  24.495  -6.698  0.00  0.00     0.252 C 
HETATM    5  O   UNK N   1      25.160  23.977  -7.244  0.00  0.00    -0.268 OA
HETATM    6  H   UNK N   1      28.097  24.692  -6.649  0.00  0.00     0.164 HD
BRANCH   4   7
HETATM    7  C   UNK N   1      25.931  25.526  -5.657  0.00  0.00     0.032 A 
HETATM    8  C   UNK N   1      25.252  26.712  -5.984  0.00  0.00     0.017 A 
HETATM    9  C   UNK N   1      25.133  27.742  -5.050  0.00  0.00     0.001 A 
HETATM   10  C   UNK N   1      25.692  27.593  -3.779  0.00  0.00     0.000 A 
HETATM   11  C   UNK N   1      26.367  26.414  -3.444  0.00  0.00     0.001 A 
HETATM   12  C   UNK N   1      26.495  25.385  -4.384  0.00  0.00     0.017 A 
ENDBRANCH   4   7
ENDBRANCH   1   3
BRANCH   1  13
HETATM   13  C   UNK N   1      28.330  23.183  -9.050  0.00  0.00     0.011 C 
HETATM   14  C   UNK N   1      27.218  22.970 -10.072  0.00  0.00     0.012 C 
HETATM   15  C   UNK N   1      28.874  24.592  -9.204  0.00  0.00     0.012 C 
ENDBRANCH   1  13
BRANCH   1  16
HETATM   16  C   UNK N   1      28.972  22.366  -6.726  0.00  0.00     0.069 A 
HETATM   17  N   UNK N   1      29.367  21.086  -6.578  0.00  0.00    -0.284 N 
HETATM   18  N   UNK N   1      30.233  21.065  -5.574  0.00  0.00    -0.020 NA
ATOM     19  HN  UNK N   1      29.057  20.287  -7.131  1.00  0.00     0.184 HD
HETATM   20  N   UNK N   1      30.381  22.283  -5.066  0.00  0.00    -0.273 N 
HETATM   21  C   UNK N   1      29.602  23.126  -5.757  0.00  0.00     0.137 A 
BRANCH  20  22
HETATM   22  C   UNK N   1      31.143  22.587  -3.844  0.00  0.00     0.177 C 
BRANCH  22  23
HETATM   23  C   UNK N   1      30.414  23.528  -2.916  0.00  0.00     0.147 C 
HETATM   24  C   UNK N   1      29.367  22.994  -1.993  0.00  0.00     0.093 C 
HETATM   25  O   UNK N   1      30.668  24.722  -2.908  0.00  0.00    -0.296 OA
ENDBRANCH  22  23
BRANCH  22  26
HETATM   26  C   UNK N   1      31.599  21.316  -3.093  0.00  0.00     0.061 C 
BRANCH  26  27
HETATM   27  C   UNK N   1      33.083  21.153  -2.977  0.00  0.00    -0.029 C 
HETATM   28  C   UNK N   1      33.829  21.193  -4.081  0.00  0.00    -0.035 C 
HETATM   29  C   UNK N   1      35.311  21.083  -3.998  0.00  0.00     0.036 C 
ENDBRANCH  26  27
ENDBRANCH  22  26
ENDBRANCH  20  22
ENDBRANCH   1  16
TORSDOF 8
ENDMDL
MODEL 7
REMARK VINA RESULT:      -6.9      1.699      8.090
REMARK  8 active torsions:
REMARK  status: ('A' for Active; 'I' for Inactive)
REMARK    1  A    between atoms: C_2  and  C_3 
REMARK       I    between atoms: C_2  and  N_9 
REMARK    2  A    between atoms: C_10  and  N_9 
REMARK    3  A    between atoms: C_10  and  C_12 
REMARK    4  A    between atoms: C_10  and  C_15 
REMARK    5  A    between atoms: C_21  and  N_20 
REMARK    6  A    between atoms: C_21  and  C_22 
REMARK    7  A    between atoms: C_21  and  C_25 
REMARK    8  A    between atoms: C_25  and  C_26 
ROOT
HETATM    1  C   UNK N   1      33.681  14.997   8.115  0.00  0.00     0.077 C 
HETATM    2  C   UNK N   1      33.553  13.503   7.809  0.00  0.00     0.046 C 
ENDROOT
BRANCH   1   3
HETATM    3  N   UNK N   1      32.405  15.667   8.311  0.00  0.00    -0.342 N 
HETATM    4  C   UNK N   1      32.130  16.986   8.467  0.00  0.00     0.252 C 
HETATM    5  O   UNK N   1      33.010  17.794   8.720  0.00  0.00    -0.268 OA
HETATM    6  H   UNK N   1      31.620  15.072   8.333  0.00  0.00     0.164 HD
BRANCH   4   7
HETATM    7  C   UNK N   1      30.745  17.437   8.219  0.00  0.00     0.032 A 
HETATM    8  C   UNK N   1      30.175  17.233   6.951  0.00  0.00     0.017 A 
HETATM    9  C   UNK N   1      28.903  17.727   6.656  0.00  0.00     0.001 A 
HETATM   10  C   UNK N   1      28.190  18.429   7.629  0.00  0.00     0.000 A 
HETATM   11  C   UNK N   1      28.748  18.634   8.895  0.00  0.00     0.001 A 
HETATM   12  C   UNK N   1      30.027  18.148   9.188  0.00  0.00     0.017 A 
ENDBRANCH   4   7
ENDBRANCH   1   3
BRANCH   1  13
HETATM   13  C   UNK N   1      34.480  15.671   6.979  0.00  0.00     0.011 C 
HETATM   14  C   UNK N   1      35.726  14.874   6.607  0.00  0.00     0.012 C 
HETATM   15  C   UNK N   1      33.654  15.901   5.726  0.00  0.00     0.012 C 
ENDBRANCH   1  13
BRANCH   1  16
HETATM   16  C   UNK N   1      34.370  15.094   9.456  0.00  0.00     0.069 A 
HETATM   17  N   UNK N   1      35.190  16.079   9.871  0.00  0.00    -0.284 N 
HETATM   18  N   UNK N   1      35.719  15.680  11.020  0.00  0.00    -0.020 NA
ATOM     19  HN  UNK N   1      35.369  16.963   9.393  1.00  0.00     0.184 HD
HETATM   20  N   UNK N   1      35.282  14.466  11.332  0.00  0.00    -0.273 N 
HETATM   21  C   UNK N   1      34.439  14.060  10.373  0.00  0.00     0.137 A 
BRANCH  20  22
HETATM   22  C   UNK N   1      35.792  13.662  12.455  0.00  0.00     0.177 C 
BRANCH  22  23
HETATM   23  C   UNK N   1      36.797  12.622  12.024  0.00  0.00     0.147 C 
HETATM   24  C   UNK N   1      36.531  11.177  12.300  0.00  0.00     0.093 C 
HETATM   25  O   UNK N   1      37.826  12.943  11.452  0.00  0.00    -0.296 OA
ENDBRANCH  22  23
BRANCH  22  26
HETATM   26  C   UNK N   1      36.355  14.529  13.603  0.00  0.00     0.061 C 
BRANCH  26  27
HETATM   27  C   UNK N   1      36.449  13.835  14.927  0.00  0.00    -0.029 C 
HETATM   28  C   UNK N   1      35.380  13.199  15.403  0.00  0.00    -0.035 C 
HETATM   29  C   UNK N   1      35.451  12.458  16.693  0.00  0.00     0.036 C 
ENDBRANCH  26  27
ENDBRANCH  22  26
ENDBRANCH  20  22
ENDBRANCH   1  16
TORSDOF 8
ENDMDL
MODEL 8
REMARK VINA RESULT:      -6.8     18.135     22.085
REMARK  8 active torsions:
REMARK  status: ('A' for Active; 'I' for Inactive)
REMARK    1  A    between atoms: C_2  and  C_3 
REMARK       I    between atoms: C_2  and  N_9 
REMARK    2  A    between atoms: C_10  and  N_9 
REMARK    3  A    between atoms: C_10  and  C_12 
REMARK    4  A    between atoms: C_10  and  C_15 
REMARK    5  A    between atoms: C_21  and  N_20 
REMARK    6  A    between atoms: C_21  and  C_22 
REMARK    7  A    between atoms: C_21  and  C_25 
REMARK    8  A    between atoms: C_25  and  C_26 
ROOT
HETATM    1  C   UNK N   1      26.753  27.030  -5.053  0.00  0.00     0.077 C 
HETATM    2  C   UNK N   1      25.570  27.361  -4.141  0.00  0.00     0.046 C 
ENDROOT
BRANCH   1   3
HETATM    3  N   UNK N   1      27.822  26.302  -4.386  0.00  0.00    -0.342 N 
HETATM    4  C   UNK N   1      27.777  25.144  -3.682  0.00  0.00     0.252 C 
HETATM    5  O   UNK N   1      26.718  24.672  -3.298  0.00  0.00    -0.268 OA
HETATM    6  H   UNK N   1      28.714  26.713  -4.455  0.00  0.00     0.164 HD
BRANCH   4   7
HETATM    7  C   UNK N   1      29.043  24.408  -3.481  0.00  0.00     0.032 A 
HETATM    8  C   UNK N   1      30.190  24.815  -4.182  0.00  0.00     0.017 A 
HETATM    9  C   UNK N   1      31.377  24.088  -4.084  0.00  0.00     0.001 A 
HETATM   10  C   UNK N   1      31.427  22.947  -3.282  0.00  0.00     0.000 A 
HETATM   11  C   UNK N   1      30.290  22.536  -2.578  0.00  0.00     0.001 A 
HETATM   12  C   UNK N   1      29.097  23.259  -2.683  0.00  0.00     0.017 A 
ENDBRANCH   4   7
ENDBRANCH   1   3
BRANCH   1  13
HETATM   13  C   UNK N   1      27.291  28.341  -5.668  0.00  0.00     0.011 C 
HETATM   14  C   UNK N   1      26.912  29.559  -4.833  0.00  0.00     0.012 C 
HETATM   15  C   UNK N   1      28.797  28.331  -5.865  0.00  0.00     0.012 C 
ENDBRANCH   1  13
BRANCH   1  16
HETATM   16  C   UNK N   1      26.229  26.067  -6.091  0.00  0.00     0.069 A 
HETATM   17  N   UNK N   1      25.305  25.104  -5.902  0.00  0.00    -0.284 N 
HETATM   18  N   UNK N   1      25.279  24.373  -7.009  0.00  0.00    -0.020 NA
ATOM     19  HN  UNK N   1      24.735  24.964  -5.068  1.00  0.00     0.184 HD
HETATM   20  N   UNK N   1      26.173  24.825  -7.881  0.00  0.00    -0.273 N 
HETATM   21  C   UNK N   1      26.794  25.882  -7.340  0.00  0.00     0.137 A 
BRANCH  20  22
HETATM   22  C   UNK N   1      26.518  24.151  -9.143  0.00  0.00     0.177 C 
BRANCH  22  23
HETATM   23  C   UNK N   1      26.255  25.007 -10.357  0.00  0.00     0.147 C 
HETATM   24  C   UNK N   1      24.883  25.551 -10.597  0.00  0.00     0.093 C 
HETATM   25  O   UNK N   1      27.148  25.263 -11.149  0.00  0.00    -0.296 OA
ENDBRANCH  22  23
BRANCH  22  26
HETATM   26  C   UNK N   1      27.964  23.609  -9.154  0.00  0.00     0.061 C 
BRANCH  26  27
HETATM   27  C   UNK N   1      28.235  22.520  -8.162  0.00  0.00    -0.029 C 
HETATM   28  C   UNK N   1      29.125  22.730  -7.194  0.00  0.00    -0.035 C 
HETATM   29  C   UNK N   1      29.384  21.688  -6.163  0.00  0.00     0.036 C 
ENDBRANCH  26  27
ENDBRANCH  22  26
ENDBRANCH  20  22
ENDBRANCH   1  16
TORSDOF 8
ENDMDL
MODEL 9
REMARK VINA RESULT:      -6.8     13.405     16.680
REMARK  8 active torsions:
REMARK  status: ('A' for Active; 'I' for Inactive)
REMARK    1  A    between atoms: C_2  and  C_3 
REMARK       I    between atoms: C_2  and  N_9 
REMARK    2  A    between atoms: C_10  and  N_9 
REMARK    3  A    between atoms: C_10  and  C_12 
REMARK    4  A    between atoms: C_10  and  C_15 
REMARK    5  A    between atoms: C_21  and  N_20 
REMARK    6  A    between atoms: C_21  and  C_22 
REMARK    7  A    between atoms: C_21  and  C_25 
REMARK    8  A    between atoms: C_25  and  C_26 
ROOT
HETATM    1  C   UNK N   1      21.669  17.371   4.063  0.00  0.00     0.077 C 
HETATM    2  C   UNK N   1      22.713  18.278   4.719  0.00  0.00     0.046 C 
ENDROOT
BRANCH   1   3
HETATM    3  N   UNK N   1      22.221  16.473   3.059  0.00  0.00    -0.342 N 
HETATM    4  C   UNK N   1      23.290  15.642   3.129  0.00  0.00     0.252 C 
HETATM    5  O   UNK N   1      24.113  15.737   4.026  0.00  0.00    -0.268 OA
HETATM    6  H   UNK N   1      21.745  16.469   2.197  0.00  0.00     0.164 HD
BRANCH   4   7
HETATM    7  C   UNK N   1      23.376  14.544   2.144  0.00  0.00     0.032 A 
HETATM    8  C   UNK N   1      22.303  14.327   1.263  0.00  0.00     0.017 A 
HETATM    9  C   UNK N   1      22.314  13.245   0.383  0.00  0.00     0.001 A 
HETATM   10  C   UNK N   1      23.401  12.369   0.375  0.00  0.00     0.000 A 
HETATM   11  C   UNK N   1      24.475  12.578   1.246  0.00  0.00     0.001 A 
HETATM   12  C   UNK N   1      24.460  13.658   2.136  0.00  0.00     0.017 A 
ENDBRANCH   4   7
ENDBRANCH   1   3
BRANCH   1  13
HETATM   13  C   UNK N   1      20.557  18.250   3.453  0.00  0.00     0.011 C 
HETATM   14  C   UNK N   1      20.907  19.734   3.511  0.00  0.00     0.012 C 
HETATM   15  C   UNK N   1      20.227  17.881   2.018  0.00  0.00     0.012 C 
ENDBRANCH   1  13
BRANCH   1  16
HETATM   16  C   UNK N   1      21.164  16.455   5.153  0.00  0.00     0.069 A 
HETATM   17  N   UNK N   1      20.248  15.475   5.022  0.00  0.00    -0.284 N 
HETATM   18  N   UNK N   1      19.958  15.054   6.246  0.00  0.00    -0.020 NA
ATOM     19  HN  UNK N   1      19.853  15.126   4.148  1.00  0.00     0.184 HD
HETATM   20  N   UNK N   1      20.640  15.750   7.147  0.00  0.00    -0.273 N 
HETATM   21  C   UNK N   1      21.403  16.644   6.503  0.00  0.00     0.137 A 
BRANCH  20  22
HETATM   22  C   UNK N   1      20.437  15.651   8.601  0.00  0.00     0.177 C 
BRANCH  22  23
HETATM   23  C   UNK N   1      19.215  16.398   9.077  0.00  0.00     0.147 C 
HETATM   24  C   UNK N   1      19.241  17.890   9.148  0.00  0.00     0.093 C 
HETATM   25  O   UNK N   1      18.202  15.799   9.404  0.00  0.00    -0.296 OA
ENDBRANCH  22  23
BRANCH  22  26
HETATM   26  C   UNK N   1      20.419  14.190   9.103  0.00  0.00     0.061 C 
BRANCH  26  27
HETATM   27  C   UNK N   1      21.645  13.768   9.854  0.00  0.00    -0.029 C 
HETATM   28  C   UNK N   1      21.616  12.642  10.564  0.00  0.00    -0.035 C 
HETATM   29  C   UNK N   1      22.831  12.168  11.283  0.00  0.00     0.036 C 
ENDBRANCH  26  27
ENDBRANCH  22  26
ENDBRANCH  20  22
ENDBRANCH   1  16
TORSDOF 8
ENDMDL
