MODEL 1
REMARK VINA RESULT:      -7.9      0.000      0.000
REMARK  4 active torsions:
REMARK  status: ('A' for Active; 'I' for Inactive)
REMARK    1  A    between atoms: C_6  and  C_7 
REMARK       I    between atoms: N_16  and  C_17 
REMARK    2  A    between atoms: C_17  and  C_19 
REMARK    3  A    between atoms: C_23  and  C_24 
REMARK       I    between atoms: C_24  and  N_26 
REMARK    4  A    between atoms: N_26  and  O_27 
ROOT
HETATM    1  C   UNK N   1      36.465  13.154  12.437  0.00  0.00     0.061 A 
HETATM    2  C   UNK N   1      37.684  12.695  11.957  0.00  0.00     0.120 A 
HETATM    3  N   UNK N   1      37.803  13.081  10.661  0.00  0.00    -0.352 N 
ATOM      4  HN  UNK N   1      38.583  12.899  10.031  1.00  0.00     0.166 HD
HETATM    5  C   UNK N   1      36.669  13.756  10.386  0.00  0.00     0.102 A 
HETATM    6  C   UNK N   1      36.357  14.451   9.084  0.00  0.00     0.202 C 
HETATM    7  N   UNK N   1      35.840  13.802  11.438  0.00  0.00    -0.332 N 
HETATM    8  C   UNK N   1      34.555  14.476  11.423  0.00  0.00     0.150 C 
HETATM    9  C   UNK N   1      34.695  15.685  10.525  0.00  0.00     0.147 C 
HETATM   10  N   UNK N   1      35.152  15.279   9.203  0.00  0.00    -0.339 N 
HETATM   11  C   UNK N   1      34.506  15.720   8.075  0.00  0.00     0.261 C 
HETATM   12  O   UNK N   1      34.963  15.446   6.973  0.00  0.00    -0.267 OA
ENDROOT
BRANCH  11  13
HETATM   13  C   UNK N   1      33.252  16.529   8.139  0.00  0.00     0.073 A 
HETATM   14  S   UNK N   1      31.700  15.937   8.083  0.00  0.00    -0.079 SA
HETATM   15  C   UNK N   1      30.866  17.367   8.227  0.00  0.00     0.075 A 
HETATM   16  C   UNK N   1      31.806  18.391   8.337  0.00  0.00     0.026 A 
HETATM   17  C   UNK N   1      33.145  17.921   8.286  0.00  0.00     0.026 A 
BRANCH  15  18
HETATM   18  C   UNK N   1      29.408  17.551   8.236  0.00  0.00     0.281 C 
HETATM   19  O   UNK N   1      28.743  17.224   7.265  0.00  0.00    -0.265 OA
HETATM   20  N   UNK N   1      28.808  18.084   9.325  0.00  0.00    -0.233 N 
HETATM   21  H   UNK N   1      29.355  18.347  10.100  0.00  0.00     0.197 HD
BRANCH  20  22
HETATM   22  O   UNK N   1      27.481  18.262   9.365  0.00  0.00    -0.287 OA
HETATM   23  H   UNK N   1      27.016  18.258  10.216  0.00  0.00     0.244 HD
ENDBRANCH  20  22
ENDBRANCH  15  18
ENDBRANCH  11  13
BRANCH   1  24
HETATM   24  C   UNK N   1      35.950  13.000  13.819  0.00  0.00    -0.008 A 
HETATM   25  C   UNK N   1      34.890  12.122  14.097  0.00  0.00     0.014 A 
HETATM   26  C   UNK N   1      34.387  11.999  15.394  0.00  0.00     0.001 A 
HETATM   27  C   UNK N   1      34.938  12.757  16.429  0.00  0.00     0.000 A 
HETATM   28  C   UNK N   1      35.994  13.634  16.165  0.00  0.00     0.001 A 
HETATM   29  C   UNK N   1      36.498  13.757  14.865  0.00  0.00     0.014 A 
ENDBRANCH   1  24
TORSDOF 4
ENDMDL
MODEL 2
REMARK VINA RESULT:      -7.6      1.685      2.332
REMARK  4 active torsions:
REMARK  status: ('A' for Active; 'I' for Inactive)
REMARK    1  A    between atoms: C_6  and  C_7 
REMARK       I    between atoms: N_16  and  C_17 
REMARK    2  A    between atoms: C_17  and  C_19 
REMARK    3  A    between atoms: C_23  and  C_24 
REMARK       I    between atoms: C_24  and  N_26 
REMARK    4  A    between atoms: N_26  and  O_27 
ROOT
HETATM    1  C   UNK N   1      36.756  12.922  14.350  0.00  0.00     0.061 A 
HETATM    2  C   UNK N   1      37.561  11.798  14.222  0.00  0.00     0.120 A 
HETATM    3  N   UNK N   1      37.524  11.394  12.927  0.00  0.00    -0.352 N 
ATOM      4  HN  UNK N   1      38.009  10.599  12.512  1.00  0.00     0.166 HD
HETATM    5  C   UNK N   1      36.709  12.269  12.305  0.00  0.00     0.102 A 
HETATM    6  C   UNK N   1      36.403  12.285  10.828  0.00  0.00     0.202 C 
HETATM    7  N   UNK N   1      36.221  13.192  13.147  0.00  0.00    -0.332 N 
HETATM    8  C   UNK N   1      35.328  14.261  12.740  0.00  0.00     0.150 C 
HETATM    9  C   UNK N   1      35.718  14.659  11.334  0.00  0.00     0.147 C 
HETATM   10  N   UNK N   1      35.672  13.500  10.453  0.00  0.00    -0.339 N 
HETATM   11  C   UNK N   1      35.010  13.562   9.252  0.00  0.00     0.261 C 
HETATM   12  O   UNK N   1      35.064  12.610   8.484  0.00  0.00    -0.267 OA
ENDROOT
BRANCH  11  13
HETATM   13  C   UNK N   1      34.214  14.758   8.840  0.00  0.00     0.073 A 
HETATM   14  S   UNK N   1      32.610  15.031   9.176  0.00  0.00    -0.079 SA
HETATM   15  C   UNK N   1      32.436  16.515   8.450  0.00  0.00     0.075 A 
HETATM   16  C   UNK N   1      33.673  16.864   7.909  0.00  0.00     0.026 A 
HETATM   17  C   UNK N   1      34.671  15.877   8.127  0.00  0.00     0.026 A 
BRANCH  15  18
HETATM   18  C   UNK N   1      31.217  17.331   8.372  0.00  0.00     0.281 C 
HETATM   19  O   UNK N   1      30.640  17.471   7.304  0.00  0.00    -0.265 OA
HETATM   20  N   UNK N   1      30.739  17.927   9.489  0.00  0.00    -0.233 N 
HETATM   21  H   UNK N   1      31.215  17.810  10.342  0.00  0.00     0.197 HD
BRANCH  20  22
HETATM   22  O   UNK N   1      29.627  18.675   9.451  0.00  0.00    -0.287 OA
HETATM   23  H   UNK N   1      29.461  19.259   8.696  0.00  0.00     0.244 HD
ENDBRANCH  20  22
ENDBRANCH  15  18
ENDBRANCH  11  13
BRANCH   1  24
HETATM   24  C   UNK N   1      36.548  13.718  15.584  0.00  0.00    -0.008 A 
HETATM   25  C   UNK N   1      35.620  13.308  16.555  0.00  0.00     0.014 A 
HETATM   26  C   UNK N   1      35.404  14.073  17.703  0.00  0.00     0.001 A 
HETATM   27  C   UNK N   1      36.113  15.262  17.890  0.00  0.00     0.000 A 
HETATM   28  C   UNK N   1      37.039  15.680  16.931  0.00  0.00     0.001 A 
HETATM   29  C   UNK N   1      37.256  14.913  15.780  0.00  0.00     0.014 A 
ENDBRANCH   1  24
TORSDOF 4
ENDMDL
MODEL 3
REMARK VINA RESULT:      -7.6      2.953      3.838
REMARK  4 active torsions:
REMARK  status: ('A' for Active; 'I' for Inactive)
REMARK    1  A    between atoms: C_6  and  C_7 
REMARK       I    between atoms: N_16  and  C_17 
REMARK    2  A    between atoms: C_17  and  C_19 
REMARK    3  A    between atoms: C_23  and  C_24 
REMARK       I    between atoms: C_24  and  N_26 
REMARK    4  A    between atoms: N_26  and  O_27 
ROOT
HETATM    1  C   UNK N   1      36.431  12.605  14.753  0.00  0.00     0.061 A 
HETATM    2  C   UNK N   1      37.003  11.345  14.856  0.00  0.00     0.120 A 
HETATM    3  N   UNK N   1      36.891  10.728  13.652  0.00  0.00    -0.352 N 
ATOM      4  HN  UNK N   1      37.214   9.794  13.402  1.00  0.00     0.166 HD
HETATM    5  C   UNK N   1      36.261  11.615  12.856  0.00  0.00     0.102 A 
HETATM    6  C   UNK N   1      35.967  11.422  11.389  0.00  0.00     0.202 C 
HETATM    7  N   UNK N   1      35.960  12.750  13.503  0.00  0.00    -0.332 N 
HETATM    8  C   UNK N   1      35.292  13.878  12.881  0.00  0.00     0.150 C 
HETATM    9  C   UNK N   1      35.753  13.934  11.442  0.00  0.00     0.147 C 
HETATM   10  N   UNK N   1      35.485  12.665  10.779  0.00  0.00    -0.339 N 
HETATM   11  C   UNK N   1      34.849  12.634   9.563  0.00  0.00     0.261 C 
HETATM   12  O   UNK N   1      34.720  11.566   8.977  0.00  0.00    -0.267 OA
ENDROOT
BRANCH  11  13
HETATM   13  C   UNK N   1      34.301  13.864   8.916  0.00  0.00     0.073 A 
HETATM   14  S   UNK N   1      35.092  14.831   7.821  0.00  0.00    -0.079 SA
HETATM   15  C   UNK N   1      33.893  15.946   7.537  0.00  0.00     0.075 A 
HETATM   16  C   UNK N   1      32.790  15.581   8.310  0.00  0.00     0.026 A 
HETATM   17  C   UNK N   1      33.020  14.413   9.085  0.00  0.00     0.026 A 
BRANCH  15  18
HETATM   18  C   UNK N   1      33.954  17.113   6.647  0.00  0.00     0.281 C 
HETATM   19  O   UNK N   1      34.539  18.125   7.002  0.00  0.00    -0.265 OA
HETATM   20  N   UNK N   1      33.359  17.059   5.433  0.00  0.00    -0.233 N 
HETATM   21  H   UNK N   1      32.887  16.240   5.160  0.00  0.00     0.197 HD
BRANCH  20  22
HETATM   22  O   UNK N   1      33.400  18.105   4.597  0.00  0.00    -0.287 OA
HETATM   23  H   UNK N   1      32.956  18.056   3.736  0.00  0.00     0.244 HD
ENDBRANCH  20  22
ENDBRANCH  15  18
ENDBRANCH  11  13
BRANCH   1  24
HETATM   24  C   UNK N   1      36.378  13.636  15.818  0.00  0.00    -0.008 A 
HETATM   25  C   UNK N   1      37.205  14.769  15.761  0.00  0.00     0.014 A 
HETATM   26  C   UNK N   1      37.176  15.725  16.779  0.00  0.00     0.001 A 
HETATM   27  C   UNK N   1      36.319  15.555  17.869  0.00  0.00     0.000 A 
HETATM   28  C   UNK N   1      35.491  14.431  17.937  0.00  0.00     0.001 A 
HETATM   29  C   UNK N   1      35.521  13.473  16.916  0.00  0.00     0.014 A 
ENDBRANCH   1  24
TORSDOF 4
ENDMDL
MODEL 4
REMARK VINA RESULT:      -7.5      2.452      3.249
REMARK  4 active torsions:
REMARK  status: ('A' for Active; 'I' for Inactive)
REMARK    1  A    between atoms: C_6  and  C_7 
REMARK       I    between atoms: N_16  and  C_17 
REMARK    2  A    between atoms: C_17  and  C_19 
REMARK    3  A    between atoms: C_23  and  C_24 
REMARK       I    between atoms: C_24  and  N_26 
REMARK    4  A    between atoms: N_26  and  O_27 
ROOT
HETATM    1  C   UNK N   1      35.607  13.345  12.143  0.00  0.00     0.061 A 
HETATM    2  C   UNK N   1      36.314  13.997  13.144  0.00  0.00     0.120 A 
HETATM    3  N   UNK N   1      36.398  15.312  12.817  0.00  0.00    -0.352 N 
ATOM      4  HN  UNK N   1      36.854  16.053  13.347  1.00  0.00     0.166 HD
HETATM    5  C   UNK N   1      35.750  15.427  11.641  0.00  0.00     0.102 A 
HETATM    6  C   UNK N   1      35.506  16.717  10.897  0.00  0.00     0.202 C 
HETATM    7  N   UNK N   1      35.276  14.250  11.207  0.00  0.00    -0.332 N 
HETATM    8  C   UNK N   1      34.528  14.088   9.974  0.00  0.00     0.150 C 
HETATM    9  C   UNK N   1      33.709  15.345   9.779  0.00  0.00     0.147 C 
HETATM   10  N   UNK N   1      34.576  16.515   9.781  0.00  0.00    -0.339 N 
HETATM   11  C   UNK N   1      34.480  17.456   8.786  0.00  0.00     0.261 C 
HETATM   12  O   UNK N   1      35.149  18.479   8.857  0.00  0.00    -0.267 OA
ENDROOT
BRANCH  11  13
HETATM   13  C   UNK N   1      33.581  17.281   7.606  0.00  0.00     0.073 A 
HETATM   14  S   UNK N   1      31.927  17.431   7.603  0.00  0.00    -0.079 SA
HETATM   15  C   UNK N   1      31.636  17.135   5.994  0.00  0.00     0.075 A 
HETATM   16  C   UNK N   1      32.869  16.911   5.381  0.00  0.00     0.026 A 
HETATM   17  C   UNK N   1      33.960  16.991   6.286  0.00  0.00     0.026 A 
BRANCH  15  18
HETATM   18  C   UNK N   1      30.334  17.105   5.315  0.00  0.00     0.281 C 
HETATM   19  O   UNK N   1      29.342  16.709   5.908  0.00  0.00    -0.265 OA
HETATM   20  N   UNK N   1      30.241  17.516   4.029  0.00  0.00    -0.233 N 
HETATM   21  H   UNK N   1      31.048  17.828   3.560  0.00  0.00     0.197 HD
BRANCH  20  22
HETATM   22  O   UNK N   1      29.067  17.503   3.383  0.00  0.00    -0.287 OA
HETATM   23  H   UNK N   1      28.343  18.075   3.681  0.00  0.00     0.244 HD
ENDBRANCH  20  22
ENDBRANCH  15  18
ENDBRANCH  11  13
BRANCH   1  24
HETATM   24  C   UNK N   1      35.240  11.908  12.120  0.00  0.00    -0.008 A 
HETATM   25  C   UNK N   1      35.677  11.071  11.080  0.00  0.00     0.014 A 
HETATM   26  C   UNK N   1      35.306   9.725  11.045  0.00  0.00     0.001 A 
HETATM   27  C   UNK N   1      34.490   9.201  12.050  0.00  0.00     0.000 A 
HETATM   28  C   UNK N   1      34.049  10.024  13.090  0.00  0.00     0.001 A 
HETATM   29  C   UNK N   1      34.421  11.373  13.126  0.00  0.00     0.014 A 
ENDBRANCH   1  24
TORSDOF 4
ENDMDL
MODEL 5
REMARK VINA RESULT:      -7.1      3.611      8.066
REMARK  4 active torsions:
REMARK  status: ('A' for Active; 'I' for Inactive)
REMARK    1  A    between atoms: C_6  and  C_7 
REMARK       I    between atoms: N_16  and  C_17 
REMARK    2  A    between atoms: C_17  and  C_19 
REMARK    3  A    between atoms: C_23  and  C_24 
REMARK       I    between atoms: C_24  and  N_26 
REMARK    4  A    between atoms: N_26  and  O_27 
ROOT
HETATM    1  C   UNK N   1      31.892  16.920   6.981  0.00  0.00     0.061 A 
HETATM    2  C   UNK N   1      32.185  16.989   5.626  0.00  0.00     0.120 A 
HETATM    3  N   UNK N   1      33.379  16.378   5.418  0.00  0.00    -0.352 N 
ATOM      4  HN  UNK N   1      33.868  16.262   4.531  1.00  0.00     0.166 HD
HETATM    5  C   UNK N   1      33.779  15.957   6.634  0.00  0.00     0.102 A 
HETATM    6  C   UNK N   1      35.024  15.153   6.918  0.00  0.00     0.202 C 
HETATM    7  N   UNK N   1      32.905  16.286   7.596  0.00  0.00    -0.332 N 
HETATM    8  C   UNK N   1      33.081  15.945   8.996  0.00  0.00     0.150 C 
HETATM    9  C   UNK N   1      33.784  14.607   9.045  0.00  0.00     0.147 C 
HETATM   10  N   UNK N   1      35.035  14.668   8.302  0.00  0.00    -0.339 N 
HETATM   11  C   UNK N   1      36.203  14.215   8.863  0.00  0.00     0.261 C 
HETATM   12  O   UNK N   1      37.225  14.186   8.188  0.00  0.00    -0.267 OA
ENDROOT
BRANCH  11  13
HETATM   13  C   UNK N   1      36.280  13.751  10.281  0.00  0.00     0.073 A 
HETATM   14  S   UNK N   1      36.346  14.722  11.627  0.00  0.00    -0.079 SA
HETATM   15  C   UNK N   1      36.387  13.546  12.800  0.00  0.00     0.075 A 
HETATM   16  C   UNK N   1      36.340  12.310  12.156  0.00  0.00     0.026 A 
HETATM   17  C   UNK N   1      36.281  12.425  10.741  0.00  0.00     0.026 A 
BRANCH  15  18
HETATM   18  C   UNK N   1      36.464  13.740  14.255  0.00  0.00     0.281 C 
HETATM   19  O   UNK N   1      35.877  12.978  15.007  0.00  0.00    -0.265 OA
HETATM   20  N   UNK N   1      37.187  14.769  14.754  0.00  0.00    -0.233 N 
HETATM   21  H   UNK N   1      37.653  15.379  14.137  0.00  0.00     0.197 HD
BRANCH  20  22
HETATM   22  O   UNK N   1      37.280  14.972  16.075  0.00  0.00    -0.287 OA
HETATM   23  H   UNK N   1      36.750  15.665  16.498  0.00  0.00     0.244 HD
ENDBRANCH  20  22
ENDBRANCH  15  18
ENDBRANCH  11  13
BRANCH   1  24
HETATM   24  C   UNK N   1      30.660  17.418   7.641  0.00  0.00    -0.008 A 
HETATM   25  C   UNK N   1      29.392  17.072   7.147  0.00  0.00     0.014 A 
HETATM   26  C   UNK N   1      28.233  17.565   7.752  0.00  0.00     0.001 A 
HETATM   27  C   UNK N   1      28.332  18.413   8.858  0.00  0.00     0.000 A 
HETATM   28  C   UNK N   1      29.589  18.764   9.358  0.00  0.00     0.001 A 
HETATM   29  C   UNK N   1      30.750  18.270   8.751  0.00  0.00     0.014 A 
ENDBRANCH   1  24
TORSDOF 4
ENDMDL
MODEL 6
REMARK VINA RESULT:      -7.1      2.931      3.869
REMARK  4 active torsions:
REMARK  status: ('A' for Active; 'I' for Inactive)
REMARK    1  A    between atoms: C_6  and  C_7 
REMARK       I    between atoms: N_16  and  C_17 
REMARK    2  A    between atoms: C_17  and  C_19 
REMARK    3  A    between atoms: C_23  and  C_24 
REMARK       I    between atoms: C_24  and  N_26 
REMARK    4  A    between atoms: N_26  and  O_27 
ROOT
HETATM    1  C   UNK N   1      35.871  12.532  11.719  0.00  0.00     0.061 A 
HETATM    2  C   UNK N   1      36.629  13.001  12.783  0.00  0.00     0.120 A 
HETATM    3  N   UNK N   1      36.706  14.353  12.686  0.00  0.00    -0.352 N 
ATOM      4  HN  UNK N   1      37.192  14.991  13.315  1.00  0.00     0.166 HD
HETATM    5  C   UNK N   1      36.003  14.670  11.581  0.00  0.00     0.102 A 
HETATM    6  C   UNK N   1      35.733  16.069  11.085  0.00  0.00     0.202 C 
HETATM    7  N   UNK N   1      35.502  13.586  10.972  0.00  0.00    -0.332 N 
HETATM    8  C   UNK N   1      34.694  13.640   9.767  0.00  0.00     0.150 C 
HETATM    9  C   UNK N   1      33.875  14.910   9.834  0.00  0.00     0.147 C 
HETATM   10  N   UNK N   1      34.749  16.064   9.998  0.00  0.00    -0.339 N 
HETATM   11  C   UNK N   1      34.612  17.164   9.189  0.00  0.00     0.261 C 
HETATM   12  O   UNK N   1      35.291  18.159   9.404  0.00  0.00    -0.267 OA
ENDROOT
BRANCH  11  13
HETATM   13  C   UNK N   1      33.656  17.196   8.040  0.00  0.00     0.073 A 
HETATM   14  S   UNK N   1      34.044  16.993   6.438  0.00  0.00    -0.079 SA
HETATM   15  C   UNK N   1      32.524  17.123   5.778  0.00  0.00     0.075 A 
HETATM   16  C   UNK N   1      31.629  17.328   6.828  0.00  0.00     0.026 A 
HETATM   17  C   UNK N   1      32.265  17.370   8.097  0.00  0.00     0.026 A 
BRANCH  15  18
HETATM   18  C   UNK N   1      32.160  17.046   4.357  0.00  0.00     0.281 C 
HETATM   19  O   UNK N   1      33.027  16.898   3.509  0.00  0.00    -0.265 OA
HETATM   20  N   UNK N   1      30.860  17.142   3.994  0.00  0.00    -0.233 N 
HETATM   21  H   UNK N   1      30.172  17.265   4.686  0.00  0.00     0.197 HD
BRANCH  20  22
HETATM   22  O   UNK N   1      30.495  17.072   2.707  0.00  0.00    -0.287 OA
HETATM   23  H   UNK N   1      31.108  17.361   2.013  0.00  0.00     0.244 HD
ENDBRANCH  20  22
ENDBRANCH  15  18
ENDBRANCH  11  13
BRANCH   1  24
HETATM   24  C   UNK N   1      35.493  11.121  11.464  0.00  0.00    -0.008 A 
HETATM   25  C   UNK N   1      36.414  10.220  10.904  0.00  0.00     0.014 A 
HETATM   26  C   UNK N   1      36.048   8.899  10.638  0.00  0.00     0.001 A 
HETATM   27  C   UNK N   1      34.753   8.464  10.928  0.00  0.00     0.000 A 
HETATM   28  C   UNK N   1      33.827   9.351  11.485  0.00  0.00     0.001 A 
HETATM   29  C   UNK N   1      34.194  10.675  11.752  0.00  0.00     0.014 A 
ENDBRANCH   1  24
TORSDOF 4
ENDMDL
MODEL 7
REMARK VINA RESULT:      -7.0     17.119     19.781
REMARK  4 active torsions:
REMARK  status: ('A' for Active; 'I' for Inactive)
REMARK    1  A    between atoms: C_6  and  C_7 
REMARK       I    between atoms: N_16  and  C_17 
REMARK    2  A    between atoms: C_17  and  C_19 
REMARK    3  A    between atoms: C_23  and  C_24 
REMARK       I    between atoms: C_24  and  N_26 
REMARK    4  A    between atoms: N_26  and  O_27 
ROOT
HETATM    1  C   UNK N   1      30.461  20.517  -6.568  0.00  0.00     0.061 A 
HETATM    2  C   UNK N   1      30.157  19.463  -7.417  0.00  0.00     0.120 A 
HETATM    3  N   UNK N   1      28.929  19.687  -7.952  0.00  0.00    -0.352 N 
ATOM      4  HN  UNK N   1      28.424  19.098  -8.612  1.00  0.00     0.166 HD
HETATM    5  C   UNK N   1      28.521  20.857  -7.422  0.00  0.00     0.102 A 
HETATM    6  C   UNK N   1      27.238  21.574  -7.763  0.00  0.00     0.202 C 
HETATM    7  N   UNK N   1      29.422  21.370  -6.573  0.00  0.00    -0.332 N 
HETATM    8  C   UNK N   1      29.244  22.628  -5.871  0.00  0.00     0.150 C 
HETATM    9  C   UNK N   1      28.470  23.548  -6.790  0.00  0.00     0.147 C 
HETATM   10  N   UNK N   1      27.216  22.922  -7.186  0.00  0.00    -0.339 N 
HETATM   11  C   UNK N   1      26.032  23.609  -7.086  0.00  0.00     0.261 C 
HETATM   12  O   UNK N   1      25.003  23.102  -7.514  0.00  0.00    -0.267 OA
ENDROOT
BRANCH  11  13
HETATM   13  C   UNK N   1      25.946  24.966  -6.468  0.00  0.00     0.073 A 
HETATM   14  S   UNK N   1      26.047  25.312  -4.846  0.00  0.00    -0.079 SA
HETATM   15  C   UNK N   1      25.901  26.966  -4.918  0.00  0.00     0.075 A 
HETATM   16  C   UNK N   1      25.772  27.317  -6.262  0.00  0.00     0.026 A 
HETATM   17  C   UNK N   1      25.796  26.194  -7.131  0.00  0.00     0.026 A 
BRANCH  15  18
HETATM   18  C   UNK N   1      25.898  27.910  -3.792  0.00  0.00     0.281 C 
HETATM   19  O   UNK N   1      25.777  27.499  -2.648  0.00  0.00    -0.265 OA
HETATM   20  N   UNK N   1      26.030  29.235  -4.031  0.00  0.00    -0.233 N 
HETATM   21  H   UNK N   1      26.124  29.554  -4.957  0.00  0.00     0.197 HD
BRANCH  20  22
HETATM   22  O   UNK N   1      26.035  30.121  -3.026  0.00  0.00    -0.287 OA
HETATM   23  H   UNK N   1      25.315  30.123  -2.377  0.00  0.00     0.244 HD
ENDBRANCH  20  22
ENDBRANCH  15  18
ENDBRANCH  11  13
BRANCH   1  24
HETATM   24  C   UNK N   1      31.725  20.703  -5.815  0.00  0.00    -0.008 A 
HETATM   25  C   UNK N   1      31.793  20.410  -4.443  0.00  0.00     0.014 A 
HETATM   26  C   UNK N   1      32.976  20.613  -3.729  0.00  0.00     0.001 A 
HETATM   27  C   UNK N   1      34.105  21.113  -4.380  0.00  0.00     0.000 A 
HETATM   28  C   UNK N   1      34.050  21.408  -5.745  0.00  0.00     0.001 A 
HETATM   29  C   UNK N   1      32.864  21.205  -6.461  0.00  0.00     0.014 A 
ENDBRANCH   1  24
TORSDOF 4
ENDMDL
MODEL 8
REMARK VINA RESULT:      -6.7     12.227     16.494
REMARK  4 active torsions:
REMARK  status: ('A' for Active; 'I' for Inactive)
REMARK    1  A    between atoms: C_6  and  C_7 
REMARK       I    between atoms: N_16  and  C_17 
REMARK    2  A    between atoms: C_17  and  C_19 
REMARK    3  A    between atoms: C_23  and  C_24 
REMARK       I    between atoms: C_24  and  N_26 
REMARK    4  A    between atoms: N_26  and  O_27 
ROOT
HETATM    1  C   UNK N   1      19.820  15.099   1.473  0.00  0.00     0.061 A 
HETATM    2  C   UNK N   1      20.040  16.283   0.783  0.00  0.00     0.120 A 
HETATM    3  N   UNK N   1      20.511  17.206   1.660  0.00  0.00    -0.352 N 
ATOM      4  HN  UNK N   1      20.768  18.172   1.463  1.00  0.00     0.166 HD
HETATM    5  C   UNK N   1      20.565  16.571   2.847  0.00  0.00     0.102 A 
HETATM    6  C   UNK N   1      21.094  17.158   4.132  0.00  0.00     0.202 C 
HETATM    7  N   UNK N   1      20.140  15.302   2.763  0.00  0.00    -0.332 N 
HETATM    8  C   UNK N   1      20.104  14.388   3.889  0.00  0.00     0.150 C 
HETATM    9  C   UNK N   1      21.279  14.727   4.779  0.00  0.00     0.147 C 
HETATM   10  N   UNK N   1      21.224  16.130   5.169  0.00  0.00    -0.339 N 
HETATM   11  C   UNK N   1      21.361  16.493   6.486  0.00  0.00     0.261 C 
HETATM   12  O   UNK N   1      21.408  17.680   6.782  0.00  0.00    -0.267 OA
ENDROOT
BRANCH  11  13
HETATM   13  C   UNK N   1      21.453  15.487   7.587  0.00  0.00     0.073 A 
HETATM   14  S   UNK N   1      22.669  14.374   7.797  0.00  0.00    -0.079 SA
HETATM   15  C   UNK N   1      22.126  13.648   9.190  0.00  0.00     0.075 A 
HETATM   16  C   UNK N   1      20.938  14.281   9.556  0.00  0.00     0.026 A 
HETATM   17  C   UNK N   1      20.560  15.312   8.655  0.00  0.00     0.026 A 
BRANCH  15  18
HETATM   18  C   UNK N   1      22.756  12.541   9.921  0.00  0.00     0.281 C 
HETATM   19  O   UNK N   1      22.951  11.471   9.364  0.00  0.00    -0.265 OA
HETATM   20  N   UNK N   1      23.118  12.713  11.213  0.00  0.00    -0.233 N 
HETATM   21  H   UNK N   1      22.952  13.579  11.652  0.00  0.00     0.197 HD
BRANCH  20  22
HETATM   22  O   UNK N   1      23.698  11.724  11.906  0.00  0.00    -0.287 OA
HETATM   23  H   UNK N   1      23.499  10.799  11.691  0.00  0.00     0.244 HD
ENDBRANCH  20  22
ENDBRANCH  15  18
ENDBRANCH  11  13
BRANCH   1  24
HETATM   24  C   UNK N   1      19.355  13.816   0.892  0.00  0.00    -0.008 A 
HETATM   25  C   UNK N   1      18.040  13.678   0.419  0.00  0.00     0.014 A 
HETATM   26  C   UNK N   1      17.594  12.461  -0.101  0.00  0.00     0.001 A 
HETATM   27  C   UNK N   1      18.461  11.366  -0.151  0.00  0.00     0.000 A 
HETATM   28  C   UNK N   1      19.771  11.492   0.317  0.00  0.00     0.001 A 
HETATM   29  C   UNK N   1      20.218  12.712   0.839  0.00  0.00     0.014 A 
ENDBRANCH   1  24
TORSDOF 4
ENDMDL
MODEL 9
REMARK VINA RESULT:      -6.5     16.592     20.917
REMARK  4 active torsions:
REMARK  status: ('A' for Active; 'I' for Inactive)
REMARK    1  A    between atoms: C_6  and  C_7 
REMARK       I    between atoms: N_16  and  C_17 
REMARK    2  A    between atoms: C_17  and  C_19 
REMARK    3  A    between atoms: C_23  and  C_24 
REMARK       I    between atoms: C_24  and  N_26 
REMARK    4  A    between atoms: N_26  and  O_27 
ROOT
HETATM    1  C   UNK N   1      26.686  26.408  -6.334  0.00  0.00     0.061 A 
HETATM    2  C   UNK N   1      25.500  26.017  -6.939  0.00  0.00     0.120 A 
HETATM    3  N   UNK N   1      25.578  24.689  -7.210  0.00  0.00    -0.352 N 
ATOM      4  HN  UNK N   1      24.870  24.105  -7.652  1.00  0.00     0.166 HD
HETATM    5  C   UNK N   1      26.794  24.309  -6.770  0.00  0.00     0.102 A 
HETATM    6  C   UNK N   1      27.329  22.898  -6.782  0.00  0.00     0.202 C 
HETATM    7  N   UNK N   1      27.487  25.332  -6.250  0.00  0.00    -0.332 N 
HETATM    8  C   UNK N   1      28.820  25.201  -5.692  0.00  0.00     0.150 C 
HETATM    9  C   UNK N   1      28.904  23.834  -5.049  0.00  0.00     0.147 C 
HETATM   10  N   UNK N   1      28.580  22.801  -6.023  0.00  0.00    -0.339 N 
HETATM   11  C   UNK N   1      29.399  21.711  -6.182  0.00  0.00     0.261 C 
HETATM   12  O   UNK N   1      29.060  20.807  -6.936  0.00  0.00    -0.267 OA
ENDROOT
BRANCH  11  13
HETATM   13  C   UNK N   1      30.704  21.582  -5.467  0.00  0.00     0.073 A 
HETATM   14  S   UNK N   1      32.198  21.986  -6.073  0.00  0.00    -0.079 SA
HETATM   15  C   UNK N   1      33.131  21.608  -4.750  0.00  0.00     0.075 A 
HETATM   16  C   UNK N   1      32.274  21.146  -3.751  0.00  0.00     0.026 A 
HETATM   17  C   UNK N   1      30.912  21.130  -4.155  0.00  0.00     0.026 A 
BRANCH  15  18
HETATM   18  C   UNK N   1      34.591  21.725  -4.628  0.00  0.00     0.281 C 
HETATM   19  O   UNK N   1      35.165  22.712  -5.060  0.00  0.00    -0.265 OA
HETATM   20  N   UNK N   1      35.292  20.732  -4.034  0.00  0.00    -0.233 N 
HETATM   21  H   UNK N   1      34.818  19.940  -3.694  0.00  0.00     0.197 HD
BRANCH  20  22
HETATM   22  O   UNK N   1      36.624  20.810  -3.904  0.00  0.00    -0.287 OA
HETATM   23  H   UNK N   1      37.012  21.378  -3.221  0.00  0.00     0.244 HD
ENDBRANCH  20  22
ENDBRANCH  15  18
ENDBRANCH  11  13
BRANCH   1  24
HETATM   24  C   UNK N   1      27.008  27.764  -5.826  0.00  0.00    -0.008 A 
HETATM   25  C   UNK N   1      26.417  28.249  -4.648  0.00  0.00     0.014 A 
HETATM   26  C   UNK N   1      26.699  29.536  -4.186  0.00  0.00     0.001 A 
HETATM   27  C   UNK N   1      27.577  30.355  -4.901  0.00  0.00     0.000 A 
HETATM   28  C   UNK N   1      28.172  29.883  -6.074  0.00  0.00     0.001 A 
HETATM   29  C   UNK N   1      27.889  28.593  -6.537  0.00  0.00     0.014 A 
ENDBRANCH   1  24
TORSDOF 4
ENDMDL
