REMARK  5 active torsions:
REMARK  status: ('A' for Active; 'I' for Inactive)
REMARK    1  A    between atoms: C_1  and  N_14 
REMARK    2  A    between atoms: C_2  and  C_13 
REMARK    3  A    between atoms: C_7  and  N_16 
REMARK    4  A    between atoms: C_10  and  O_20 
REMARK    5  A    between atoms: C_13  and  O_19 
ROOT
HETATM    1  N   UNK N   1      -0.046  -0.377  -0.000  0.00  0.00    -0.299 N 
ATOM      2  HN  UNK N   1       0.825   0.153  -0.000  1.00  0.00     0.187 HD
HETATM    3  N   UNK N   1      -1.122   0.253  -0.000  0.00  0.00    -0.300 N 
ATOM      4  HN  UNK N   1      -2.010  -0.248  -0.000  1.00  0.00     0.187 HD
ENDROOT
BRANCH   1   5
HETATM    5  C   UNK N   1       0.027  -1.791  -0.000  0.00  0.00     0.065 A 
HETATM    6  C   UNK N   1       1.294  -2.424   0.000  0.00  0.00     0.065 A 
HETATM    7  C   UNK N   1       1.356  -3.826   0.000  0.00  0.00     0.021 A 
HETATM    8  C   UNK N   1       0.189  -4.591   0.000  0.00  0.00     0.001 A 
HETATM    9  C   UNK N   1      -1.058  -3.965   0.000  0.00  0.00     0.002 A 
HETATM   10  C   UNK N   1      -1.141  -2.571   0.000  0.00  0.00     0.032 A 
BRANCH   6  11
HETATM   11  C   UNK N   1       2.567  -1.648  -0.000  0.00  0.00     0.178 C 
HETATM   12  O   UNK N   1       3.638  -2.234   0.000  0.00  0.00    -0.646 OA
BRANCH  11  13
HETATM   13  O   UNK N   1       2.563  -0.299  -0.000  0.00  0.00    -0.773 OA
HETATM   14  H   UNK N   1       3.373   0.172  -0.000  0.00  0.00     0.167 HD
ENDBRANCH  11  13
ENDBRANCH   6  11
ENDBRANCH   1   5
BRANCH   3  15
HETATM   15  C   UNK N   1      -1.100   1.670  -0.000  0.00  0.00     0.048 A 
HETATM   16  C   UNK N   1      -2.298   2.393  -0.000  0.00  0.00     0.034 A 
HETATM   17  C   UNK N   1      -2.270   3.794  -0.000  0.00  0.00     0.039 A 
HETATM   18  C   UNK N   1      -1.045   4.472   0.000  0.00  0.00     0.065 A 
HETATM   19  C   UNK N   1       0.151   3.755  -0.000  0.00  0.00     0.039 A 
HETATM   20  C   UNK N   1       0.125   2.361  -0.000  0.00  0.00     0.034 A 
BRANCH  18  21
HETATM   21  O   UNK N   1      -1.018   5.814   0.000  0.00  0.00    -0.361 OA
HETATM   22  H   UNK N   1      -0.197   6.266   0.000  0.00  0.00     0.217 HD
ENDBRANCH  18  21
ENDBRANCH   3  15
TORSDOF 5
