MODEL 1
REMARK VINA RESULT:      -6.2      0.000      0.000
REMARK  5 active torsions:
REMARK  status: ('A' for Active; 'I' for Inactive)
REMARK    1  A    between atoms: C_1  and  N_14 
REMARK    2  A    between atoms: C_2  and  C_13 
REMARK    3  A    between atoms: C_7  and  N_16 
REMARK    4  A    between atoms: C_10  and  O_20 
REMARK    5  A    between atoms: C_13  and  O_19 
ROOT
HETATM    1  N   UNK N   1      28.121  18.054   5.803  0.00  0.00    -0.299 N 
ATOM      2  HN  UNK N   1      27.300  17.450   5.792  1.00  0.00     0.187 HD
HETATM    3  N   UNK N   1      28.062  19.144   5.201  0.00  0.00    -0.300 N 
ATOM      4  HN  UNK N   1      28.867  19.770   5.193  1.00  0.00     0.187 HD
ENDROOT
BRANCH   1   5
HETATM    5  C   UNK N   1      29.271  17.613   6.502  0.00  0.00     0.065 A 
HETATM    6  C   UNK N   1      29.266  17.603   7.918  0.00  0.00     0.065 A 
HETATM    7  C   UNK N   1      30.410  17.164   8.601  0.00  0.00     0.021 A 
HETATM    8  C   UNK N   1      31.541  16.742   7.901  0.00  0.00     0.001 A 
HETATM    9  C   UNK N   1      31.544  16.753   6.505  0.00  0.00     0.002 A 
HETATM   10  C   UNK N   1      30.414  17.186   5.807  0.00  0.00     0.032 A 
BRANCH   6  11
HETATM   11  C   UNK N   1      28.081  18.044   8.709  0.00  0.00     0.178 C 
HETATM   12  O   UNK N   1      27.666  17.350   9.623  0.00  0.00    -0.646 OA
BRANCH  11  13
HETATM   13  O   UNK N   1      27.452  19.205   8.435  0.00  0.00    -0.773 OA
HETATM   14  H   UNK N   1      27.825  20.018   8.714  0.00  0.00     0.167 HD
ENDBRANCH  11  13
ENDBRANCH   6  11
ENDBRANCH   1   5
BRANCH   3  15
HETATM   15  C   UNK N   1      26.868  19.504   4.528  0.00  0.00     0.048 A 
HETATM   16  C   UNK N   1      25.641  18.971   4.936  0.00  0.00     0.034 A 
HETATM   17  C   UNK N   1      24.464  19.331   4.266  0.00  0.00     0.039 A 
HETATM   18  C   UNK N   1      24.514  20.224   3.189  0.00  0.00     0.065 A 
HETATM   19  C   UNK N   1      25.735  20.757   2.779  0.00  0.00     0.039 A 
HETATM   20  C   UNK N   1      26.907  20.400   3.444  0.00  0.00     0.034 A 
BRANCH  18  21
HETATM   21  O   UNK N   1      23.386  20.569   2.547  0.00  0.00    -0.361 OA
HETATM   22  H   UNK N   1      23.133  20.114   1.768  0.00  0.00     0.217 HD
ENDBRANCH  18  21
ENDBRANCH   3  15
TORSDOF 5
ENDMDL
MODEL 2
REMARK VINA RESULT:      -6.1     10.147     12.034
REMARK  5 active torsions:
REMARK  status: ('A' for Active; 'I' for Inactive)
REMARK    1  A    between atoms: C_1  and  N_14 
REMARK    2  A    between atoms: C_2  and  C_13 
REMARK    3  A    between atoms: C_7  and  N_16 
REMARK    4  A    between atoms: C_10  and  O_20 
REMARK    5  A    between atoms: C_13  and  O_19 
ROOT
HETATM    1  N   UNK N   1      29.029  24.628  -4.446  0.00  0.00    -0.299 N 
ATOM      2  HN  UNK N   1      29.671  25.410  -4.322  1.00  0.00     0.187 HD
HETATM    3  N   UNK N   1      27.804  24.857  -4.413  0.00  0.00    -0.300 N 
ATOM      4  HN  UNK N   1      27.136  24.097  -4.534  1.00  0.00     0.187 HD
ENDROOT
BRANCH   1   5
HETATM    5  C   UNK N   1      29.573  23.337  -4.647  0.00  0.00     0.065 A 
HETATM    6  C   UNK N   1      29.804  22.495  -3.532  0.00  0.00     0.065 A 
HETATM    7  C   UNK N   1      30.344  21.217  -3.742  0.00  0.00     0.021 A 
HETATM    8  C   UNK N   1      30.651  20.775  -5.029  0.00  0.00     0.001 A 
HETATM    9  C   UNK N   1      30.423  21.606  -6.127  0.00  0.00     0.002 A 
HETATM   10  C   UNK N   1      29.886  22.882  -5.939  0.00  0.00     0.032 A 
BRANCH   6  11
HETATM   11  C   UNK N   1      29.492  22.924  -2.138  0.00  0.00     0.178 C 
HETATM   12  O   UNK N   1      30.394  23.067  -1.328  0.00  0.00    -0.646 OA
BRANCH  11  13
HETATM   13  O   UNK N   1      28.222  23.160  -1.748  0.00  0.00    -0.773 OA
HETATM   14  H   UNK N   1      28.056  23.675  -0.983  0.00  0.00     0.167 HD
ENDBRANCH  11  13
ENDBRANCH   6  11
ENDBRANCH   1   5
BRANCH   3  15
HETATM   15  C   UNK N   1      27.349  26.183  -4.206  0.00  0.00     0.048 A 
HETATM   16  C   UNK N   1      28.259  27.202  -3.905  0.00  0.00     0.034 A 
HETATM   17  C   UNK N   1      27.803  28.511  -3.701  0.00  0.00     0.039 A 
HETATM   18  C   UNK N   1      26.437  28.802  -3.798  0.00  0.00     0.065 A 
HETATM   19  C   UNK N   1      25.526  27.789  -4.098  0.00  0.00     0.039 A 
HETATM   20  C   UNK N   1      25.978  26.486  -4.301  0.00  0.00     0.034 A 
BRANCH  18  21
HETATM   21  O   UNK N   1      25.999  30.056  -3.603  0.00  0.00    -0.361 OA
HETATM   22  H   UNK N   1      25.764  30.341  -2.742  0.00  0.00     0.217 HD
ENDBRANCH  18  21
ENDBRANCH   3  15
TORSDOF 5
ENDMDL
MODEL 3
REMARK VINA RESULT:      -6.1     10.102     13.347
REMARK  5 active torsions:
REMARK  status: ('A' for Active; 'I' for Inactive)
REMARK    1  A    between atoms: C_1  and  N_14 
REMARK    2  A    between atoms: C_2  and  C_13 
REMARK    3  A    between atoms: C_7  and  N_16 
REMARK    4  A    between atoms: C_10  and  O_20 
REMARK    5  A    between atoms: C_13  and  O_19 
ROOT
HETATM    1  N   UNK N   1      36.257  13.937  12.974  0.00  0.00    -0.299 N 
ATOM      2  HN  UNK N   1      35.259  13.959  13.186  1.00  0.00     0.187 HD
HETATM    3  N   UNK N   1      37.064  13.998  13.923  0.00  0.00    -0.300 N 
ATOM      4  HN  UNK N   1      38.068  13.979  13.744  1.00  0.00     0.187 HD
ENDROOT
BRANCH   1   5
HETATM    5  C   UNK N   1      36.655  13.839  11.619  0.00  0.00     0.065 A 
HETATM    6  C   UNK N   1      35.994  14.620  10.640  0.00  0.00     0.065 A 
HETATM    7  C   UNK N   1      36.396  14.516   9.299  0.00  0.00     0.021 A 
HETATM    8  C   UNK N   1      37.432  13.657   8.930  0.00  0.00     0.001 A 
HETATM    9  C   UNK N   1      38.081  12.889   9.897  0.00  0.00     0.002 A 
HETATM   10  C   UNK N   1      37.696  12.978  11.237  0.00  0.00     0.032 A 
BRANCH   6  11
HETATM   11  C   UNK N   1      34.883  15.551  10.987  0.00  0.00     0.178 C 
HETATM   12  O   UNK N   1      35.068  16.758  10.961  0.00  0.00    -0.646 OA
BRANCH  11  13
HETATM   13  O   UNK N   1      33.664  15.087  11.333  0.00  0.00    -0.773 OA
HETATM   14  H   UNK N   1      33.334  15.235  12.197  0.00  0.00     0.167 HD
ENDBRANCH  11  13
ENDBRANCH   6  11
ENDBRANCH   1   5
BRANCH   3  15
HETATM   15  C   UNK N   1      36.575  14.095  15.249  0.00  0.00     0.048 A 
HETATM   16  C   UNK N   1      37.083  15.067  16.118  0.00  0.00     0.034 A 
HETATM   17  C   UNK N   1      36.596  15.157  17.429  0.00  0.00     0.039 A 
HETATM   18  C   UNK N   1      35.601  14.277  17.871  0.00  0.00     0.065 A 
HETATM   19  C   UNK N   1      35.092  13.307  17.008  0.00  0.00     0.039 A 
HETATM   20  C   UNK N   1      35.576  13.216  15.703  0.00  0.00     0.034 A 
BRANCH  18  21
HETATM   21  O   UNK N   1      35.134  14.364  19.126  0.00  0.00    -0.361 OA
HETATM   22  H   UNK N   1      35.508  13.834  19.803  0.00  0.00     0.217 HD
ENDBRANCH  18  21
ENDBRANCH   3  15
TORSDOF 5
ENDMDL
MODEL 4
REMARK VINA RESULT:      -6.1     12.891     14.160
REMARK  5 active torsions:
REMARK  status: ('A' for Active; 'I' for Inactive)
REMARK    1  A    between atoms: C_1  and  N_14 
REMARK    2  A    between atoms: C_2  and  C_13 
REMARK    3  A    between atoms: C_7  and  N_16 
REMARK    4  A    between atoms: C_10  and  O_20 
REMARK    5  A    between atoms: C_13  and  O_19 
ROOT
HETATM    1  N   UNK N   1      27.196  23.907  -6.402  0.00  0.00    -0.299 N 
ATOM      2  HN  UNK N   1      27.704  24.734  -6.713  1.00  0.00     0.187 HD
HETATM    3  N   UNK N   1      26.337  24.041  -5.508  0.00  0.00    -0.300 N 
ATOM      4  HN  UNK N   1      25.812  23.233  -5.176  1.00  0.00     0.187 HD
ENDROOT
BRANCH   1   5
HETATM    5  C   UNK N   1      27.501  22.663  -7.007  0.00  0.00     0.065 A 
HETATM    6  C   UNK N   1      26.543  22.042  -7.845  0.00  0.00     0.065 A 
HETATM    7  C   UNK N   1      26.854  20.810  -8.440  0.00  0.00     0.021 A 
HETATM    8  C   UNK N   1      28.089  20.200  -8.213  0.00  0.00     0.001 A 
HETATM    9  C   UNK N   1      29.031  20.814  -7.387  0.00  0.00     0.002 A 
HETATM   10  C   UNK N   1      28.740  22.041  -6.785  0.00  0.00     0.032 A 
BRANCH   6  11
HETATM   11  C   UNK N   1      25.211  22.656  -8.117  0.00  0.00     0.178 C 
HETATM   12  O   UNK N   1      25.121  23.859  -8.302  0.00  0.00    -0.646 OA
BRANCH  11  13
HETATM   13  O   UNK N   1      24.092  21.904  -8.163  0.00  0.00    -0.773 OA
HETATM   14  H   UNK N   1      23.615  21.725  -7.376  0.00  0.00     0.167 HD
ENDBRANCH  11  13
ENDBRANCH   6  11
ENDBRANCH   1   5
BRANCH   3  15
HETATM   15  C   UNK N   1      26.098  25.326  -4.959  0.00  0.00     0.048 A 
HETATM   16  C   UNK N   1      25.335  26.262  -5.665  0.00  0.00     0.034 A 
HETATM   17  C   UNK N   1      25.101  27.531  -5.117  0.00  0.00     0.039 A 
HETATM   18  C   UNK N   1      25.630  27.863  -3.864  0.00  0.00     0.065 A 
HETATM   19  C   UNK N   1      26.391  26.932  -3.158  0.00  0.00     0.039 A 
HETATM   20  C   UNK N   1      26.624  25.669  -3.701  0.00  0.00     0.034 A 
BRANCH  18  21
HETATM   21  O   UNK N   1      25.407  29.078  -3.339  0.00  0.00    -0.361 OA
HETATM   22  H   UNK N   1      26.088  29.517  -2.868  0.00  0.00     0.217 HD
ENDBRANCH  18  21
ENDBRANCH   3  15
TORSDOF 5
ENDMDL
MODEL 5
REMARK VINA RESULT:      -6.0      3.949      5.787
REMARK  5 active torsions:
REMARK  status: ('A' for Active; 'I' for Inactive)
REMARK    1  A    between atoms: C_1  and  N_14 
REMARK    2  A    between atoms: C_2  and  C_13 
REMARK    3  A    between atoms: C_7  and  N_16 
REMARK    4  A    between atoms: C_10  and  O_20 
REMARK    5  A    between atoms: C_13  and  O_19 
ROOT
HETATM    1  N   UNK N   1      32.194  16.605   8.705  0.00  0.00    -0.299 N 
ATOM      2  HN  UNK N   1      32.006  16.136   7.819  1.00  0.00     0.187 HD
HETATM    3  N   UNK N   1      31.385  17.466   9.102  0.00  0.00    -0.300 N 
ATOM      4  HN  UNK N   1      31.545  17.953   9.984  1.00  0.00     0.187 HD
ENDROOT
BRANCH   1   5
HETATM    5  C   UNK N   1      33.361  16.245   9.421  0.00  0.00     0.065 A 
HETATM    6  C   UNK N   1      34.546  17.000   9.248  0.00  0.00     0.065 A 
HETATM    7  C   UNK N   1      35.698  16.636   9.963  0.00  0.00     0.021 A 
HETATM    8  C   UNK N   1      35.681  15.545  10.833  0.00  0.00     0.001 A 
HETATM    9  C   UNK N   1      34.512  14.803  11.002  0.00  0.00     0.002 A 
HETATM   10  C   UNK N   1      33.355  15.149  10.300  0.00  0.00     0.032 A 
BRANCH   6  11
HETATM   11  C   UNK N   1      34.612  18.173   8.330  0.00  0.00     0.178 C 
HETATM   12  O   UNK N   1      34.007  18.150   7.269  0.00  0.00    -0.646 OA
BRANCH  11  13
HETATM   13  O   UNK N   1      35.330  19.270   8.647  0.00  0.00    -0.773 OA
HETATM   14  H   UNK N   1      36.266  19.246   8.603  0.00  0.00     0.167 HD
ENDBRANCH  11  13
ENDBRANCH   6  11
ENDBRANCH   1   5
BRANCH   3  15
HETATM   15  C   UNK N   1      30.242  17.763   8.319  0.00  0.00     0.048 A 
HETATM   16  C   UNK N   1      30.115  17.233   7.030  0.00  0.00     0.034 A 
HETATM   17  C   UNK N   1      28.982  17.530   6.259  0.00  0.00     0.039 A 
HETATM   18  C   UNK N   1      27.978  18.356   6.778  0.00  0.00     0.065 A 
HETATM   19  C   UNK N   1      28.101  18.886   8.062  0.00  0.00     0.039 A 
HETATM   20  C   UNK N   1      29.227  18.591   8.829  0.00  0.00     0.034 A 
BRANCH  18  21
HETATM   21  O   UNK N   1      26.893  18.641   6.040  0.00  0.00    -0.361 OA
HETATM   22  H   UNK N   1      26.654  19.533   5.884  0.00  0.00     0.217 HD
ENDBRANCH  18  21
ENDBRANCH   3  15
TORSDOF 5
ENDMDL
MODEL 6
REMARK VINA RESULT:      -5.9      4.543      7.059
REMARK  5 active torsions:
REMARK  status: ('A' for Active; 'I' for Inactive)
REMARK    1  A    between atoms: C_1  and  N_14 
REMARK    2  A    between atoms: C_2  and  C_13 
REMARK    3  A    between atoms: C_7  and  N_16 
REMARK    4  A    between atoms: C_10  and  O_20 
REMARK    5  A    between atoms: C_13  and  O_19 
ROOT
HETATM    1  N   UNK N   1      23.616  18.291   5.417  0.00  0.00    -0.299 N 
ATOM      2  HN  UNK N   1      22.902  18.800   5.937  1.00  0.00     0.187 HD
HETATM    3  N   UNK N   1      23.629  17.047   5.493  0.00  0.00    -0.300 N 
ATOM      4  HN  UNK N   1      24.330  16.509   4.984  1.00  0.00     0.187 HD
ENDROOT
BRANCH   1   5
HETATM    5  C   UNK N   1      24.542  19.033   4.644  0.00  0.00     0.065 A 
HETATM    6  C   UNK N   1      24.077  19.812   3.556  0.00  0.00     0.065 A 
HETATM    7  C   UNK N   1      25.002  20.543   2.796  0.00  0.00     0.021 A 
HETATM    8  C   UNK N   1      26.363  20.507   3.103  0.00  0.00     0.001 A 
HETATM    9  C   UNK N   1      26.819  19.739   4.174  0.00  0.00     0.002 A 
HETATM   10  C   UNK N   1      25.914  19.004   4.943  0.00  0.00     0.032 A 
BRANCH   6  11
HETATM   11  C   UNK N   1      22.633  19.881   3.192  0.00  0.00     0.178 C 
HETATM   12  O   UNK N   1      21.941  18.877   3.251  0.00  0.00    -0.646 OA
BRANCH  11  13
HETATM   13  O   UNK N   1      22.067  21.039   2.794  0.00  0.00    -0.773 OA
HETATM   14  H   UNK N   1      22.601  21.726   2.447  0.00  0.00     0.167 HD
ENDBRANCH  11  13
ENDBRANCH   6  11
ENDBRANCH   1   5
BRANCH   3  15
HETATM   15  C   UNK N   1      22.662  16.387   6.292  0.00  0.00     0.048 A 
HETATM   16  C   UNK N   1      21.461  17.027   6.616  0.00  0.00     0.034 A 
HETATM   17  C   UNK N   1      20.509  16.370   7.406  0.00  0.00     0.039 A 
HETATM   18  C   UNK N   1      20.757  15.073   7.873  0.00  0.00     0.065 A 
HETATM   19  C   UNK N   1      21.953  14.432   7.552  0.00  0.00     0.039 A 
HETATM   20  C   UNK N   1      22.902  15.085   6.766  0.00  0.00     0.034 A 
BRANCH  18  21
HETATM   21  O   UNK N   1      19.845  14.444   8.630  0.00  0.00    -0.361 OA
HETATM   22  H   UNK N   1      19.084  14.069   8.232  0.00  0.00     0.217 HD
ENDBRANCH  18  21
ENDBRANCH   3  15
TORSDOF 5
ENDMDL
MODEL 7
REMARK VINA RESULT:      -5.9     11.033     13.815
REMARK  5 active torsions:
REMARK  status: ('A' for Active; 'I' for Inactive)
REMARK    1  A    between atoms: C_1  and  N_14 
REMARK    2  A    between atoms: C_2  and  C_13 
REMARK    3  A    between atoms: C_7  and  N_16 
REMARK    4  A    between atoms: C_10  and  O_20 
REMARK    5  A    between atoms: C_13  and  O_19 
ROOT
HETATM    1  N   UNK N   1      27.572  24.288  -4.459  0.00  0.00    -0.299 N 
ATOM      2  HN  UNK N   1      27.139  23.402  -4.198  1.00  0.00     0.187 HD
HETATM    3  N   UNK N   1      28.804  24.313  -4.644  0.00  0.00    -0.300 N 
ATOM      4  HN  UNK N   1      29.267  25.183  -4.905  1.00  0.00     0.187 HD
ENDROOT
BRANCH   1   5
HETATM    5  C   UNK N   1      26.742  25.428  -4.592  0.00  0.00     0.065 A 
HETATM    6  C   UNK N   1      26.061  25.656  -5.813  0.00  0.00     0.065 A 
HETATM    7  C   UNK N   1      25.242  26.789  -5.935  0.00  0.00     0.021 A 
HETATM    8  C   UNK N   1      25.096  27.681  -4.872  0.00  0.00     0.001 A 
HETATM    9  C   UNK N   1      25.768  27.454  -3.670  0.00  0.00     0.002 A 
HETATM   10  C   UNK N   1      26.588  26.333  -3.529  0.00  0.00     0.032 A 
BRANCH   6  11
HETATM   11  C   UNK N   1      26.187  24.731  -6.975  0.00  0.00     0.178 C 
HETATM   12  O   UNK N   1      25.186  24.249  -7.481  0.00  0.00    -0.646 OA
BRANCH  11  13
HETATM   13  O   UNK N   1      27.394  24.410  -7.485  0.00  0.00    -0.773 OA
HETATM   14  H   UNK N   1      28.175  24.641  -7.022  0.00  0.00     0.167 HD
ENDBRANCH  11  13
ENDBRANCH   6  11
ENDBRANCH   1   5
BRANCH   3  15
HETATM   15  C   UNK N   1      29.557  23.122  -4.488  0.00  0.00     0.048 A 
HETATM   16  C   UNK N   1      30.230  22.866  -3.289  0.00  0.00     0.034 A 
HETATM   17  C   UNK N   1      30.972  21.687  -3.141  0.00  0.00     0.039 A 
HETATM   18  C   UNK N   1      31.041  20.764  -4.191  0.00  0.00     0.065 A 
HETATM   19  C   UNK N   1      30.372  21.015  -5.388  0.00  0.00     0.039 A 
HETATM   20  C   UNK N   1      29.633  22.188  -5.537  0.00  0.00     0.034 A 
BRANCH  18  21
HETATM   21  O   UNK N   1      31.752  19.634  -4.049  0.00  0.00    -0.361 OA
HETATM   22  H   UNK N   1      32.606  19.663  -3.664  0.00  0.00     0.217 HD
ENDBRANCH  18  21
ENDBRANCH   3  15
TORSDOF 5
ENDMDL
MODEL 8
REMARK VINA RESULT:      -5.9     11.567     14.430
REMARK  5 active torsions:
REMARK  status: ('A' for Active; 'I' for Inactive)
REMARK    1  A    between atoms: C_1  and  N_14 
REMARK    2  A    between atoms: C_2  and  C_13 
REMARK    3  A    between atoms: C_7  and  N_16 
REMARK    4  A    between atoms: C_10  and  O_20 
REMARK    5  A    between atoms: C_13  and  O_19 
ROOT
HETATM    1  N   UNK N   1      34.770  12.228  14.373  0.00  0.00    -0.299 N 
ATOM      2  HN  UNK N   1      34.032  12.843  14.714  1.00  0.00     0.187 HD
HETATM    3  N   UNK N   1      35.587  11.772  15.196  0.00  0.00    -0.300 N 
ATOM      4  HN  UNK N   1      36.337  11.154  14.886  1.00  0.00     0.187 HD
ENDROOT
BRANCH   1   5
HETATM    5  C   UNK N   1      34.815  11.935  12.988  0.00  0.00     0.065 A 
HETATM    6  C   UNK N   1      35.403  12.866  12.097  0.00  0.00     0.065 A 
HETATM    7  C   UNK N   1      35.443  12.566  10.727  0.00  0.00     0.021 A 
HETATM    8  C   UNK N   1      34.913  11.370  10.243  0.00  0.00     0.001 A 
HETATM    9  C   UNK N   1      34.334  10.455  11.123  0.00  0.00     0.002 A 
HETATM   10  C   UNK N   1      34.284  10.734  12.490  0.00  0.00     0.032 A 
BRANCH   6  11
HETATM   11  C   UNK N   1      35.983  14.156  12.568  0.00  0.00     0.178 C 
HETATM   12  O   UNK N   1      35.667  15.201  12.023  0.00  0.00    -0.646 OA
BRANCH  11  13
HETATM   13  O   UNK N   1      36.857  14.196  13.595  0.00  0.00    -0.773 OA
HETATM   14  H   UNK N   1      36.717  14.787  14.308  0.00  0.00     0.167 HD
ENDBRANCH  11  13
ENDBRANCH   6  11
ENDBRANCH   1   5
BRANCH   3  15
HETATM   15  C   UNK N   1      35.466  12.119  16.565  0.00  0.00     0.048 A 
HETATM   16  C   UNK N   1      35.302  13.457  16.940  0.00  0.00     0.034 A 
HETATM   17  C   UNK N   1      35.182  13.794  18.295  0.00  0.00     0.039 A 
HETATM   18  C   UNK N   1      35.226  12.794  19.274  0.00  0.00     0.065 A 
HETATM   19  C   UNK N   1      35.389  11.460  18.904  0.00  0.00     0.039 A 
HETATM   20  C   UNK N   1      35.508  11.122  17.556  0.00  0.00     0.034 A 
BRANCH  18  21
HETATM   21  O   UNK N   1      35.111  13.117  20.572  0.00  0.00    -0.361 OA
HETATM   22  H   UNK N   1      34.276  13.359  20.922  0.00  0.00     0.217 HD
ENDBRANCH  18  21
ENDBRANCH   3  15
TORSDOF 5
ENDMDL
MODEL 9
REMARK VINA RESULT:      -5.8      7.385      7.834
REMARK  5 active torsions:
REMARK  status: ('A' for Active; 'I' for Inactive)
REMARK    1  A    between atoms: C_1  and  N_14 
REMARK    2  A    between atoms: C_2  and  C_13 
REMARK    3  A    between atoms: C_7  and  N_16 
REMARK    4  A    between atoms: C_10  and  O_20 
REMARK    5  A    between atoms: C_13  and  O_19 
ROOT
HETATM    1  N   UNK N   1      20.855  17.175   5.761  0.00  0.00    -0.299 N 
ATOM      2  HN  UNK N   1      21.252  18.084   5.997  1.00  0.00     0.187 HD
HETATM    3  N   UNK N   1      20.469  16.984   4.591  0.00  0.00    -0.300 N 
ATOM      4  HN  UNK N   1      20.067  16.086   4.323  1.00  0.00     0.187 HD
ENDROOT
BRANCH   1   5
HETATM    5  C   UNK N   1      20.768  16.195   6.778  0.00  0.00     0.065 A 
HETATM    6  C   UNK N   1      20.302  16.563   8.064  0.00  0.00     0.065 A 
HETATM    7  C   UNK N   1      20.220  15.584   9.066  0.00  0.00     0.021 A 
HETATM    8  C   UNK N   1      20.589  14.264   8.805  0.00  0.00     0.001 A 
HETATM    9  C   UNK N   1      21.047  13.903   7.537  0.00  0.00     0.002 A 
HETATM   10  C   UNK N   1      21.137  14.863   6.527  0.00  0.00     0.032 A 
BRANCH   6  11
HETATM   11  C   UNK N   1      19.897  17.961   8.389  0.00  0.00     0.178 C 
HETATM   12  O   UNK N   1      20.537  18.900   7.945  0.00  0.00    -0.646 OA
BRANCH  11  13
HETATM   13  O   UNK N   1      18.827  18.214   9.171  0.00  0.00    -0.773 OA
HETATM   14  H   UNK N   1      18.719  17.754   9.980  0.00  0.00     0.167 HD
ENDBRANCH  11  13
ENDBRANCH   6  11
ENDBRANCH   1   5
BRANCH   3  15
HETATM   15  C   UNK N   1      20.595  18.024   3.636  0.00  0.00     0.048 A 
HETATM   16  C   UNK N   1      21.002  19.301   4.036  0.00  0.00     0.034 A 
HETATM   17  C   UNK N   1      21.124  20.326   3.088  0.00  0.00     0.039 A 
HETATM   18  C   UNK N   1      20.840  20.073   1.741  0.00  0.00     0.065 A 
HETATM   19  C   UNK N   1      20.435  18.802   1.338  0.00  0.00     0.039 A 
HETATM   20  C   UNK N   1      20.312  17.781   2.280  0.00  0.00     0.034 A 
BRANCH  18  21
HETATM   21  O   UNK N   1      20.958  21.055   0.832  0.00  0.00    -0.361 OA
HETATM   22  H   UNK N   1      21.231  20.854  -0.041  0.00  0.00     0.217 HD
ENDBRANCH  18  21
ENDBRANCH   3  15
TORSDOF 5
ENDMDL
