MODEL 1
REMARK VINA RESULT:      -7.3      0.000      0.000
REMARK  16 active torsions:
REMARK  status: ('A' for Active; 'I' for Inactive)
REMARK    1  A    between atoms: C_1  and  C_7 
REMARK    2  A    between atoms: C_7  and  C_8 
REMARK    3  A    between atoms: C_8  and  N_9 
REMARK       I    between atoms: N_9  and  C_10 
REMARK    4  A    between atoms: C_10  and  C_12 
REMARK    5  A    between atoms: C_12  and  O_13 
REMARK    6  A    between atoms: P_14  and  O_13 
REMARK    7  A    between atoms: P_14  and  O_16 
REMARK    8  A    between atoms: P_14  and  C_17 
REMARK    9  A    between atoms: C_17  and  C_18 
REMARK   10  A    between atoms: C_17  and  N_25 
REMARK   11  A    between atoms: C_18  and  C_19 
REMARK       I    between atoms: N_25  and  C_26 
REMARK   12  A    between atoms: C_26  and  C_28 
REMARK   13  A    between atoms: C_28  and  C_29 
REMARK   14  A    between atoms: C_29  and  C_30 
REMARK   15  A    between atoms: C_30  and  C_31 
REMARK   16  A    between atoms: C_31  and  O_32 
ROOT
HETATM    1  C   UNK N   1      35.356  12.521  13.785  0.00  0.00     0.200 C 
ENDROOT
BRANCH   1   2
HETATM    2  P   UNK N   1      36.076  14.121  13.081  0.00  0.00     0.262 P 
HETATM    3  O   UNK N   1      36.686  15.098  14.123  0.00  0.00    -0.652 OA
BRANCH   2   4
HETATM    4  O   UNK N   1      35.102  15.031  11.950  0.00  0.00    -0.308 OA
BRANCH   4   5
HETATM    5  C   UNK N   1      35.938  15.671  11.039  0.00  0.00     0.281 C 
BRANCH   5   6
HETATM    6  C   UNK N   1      35.150  16.645  10.233  0.00  0.00     0.241 C 
HETATM    7  N   UNK N   1      34.005  16.239   9.641  0.00  0.00    -0.359 N 
HETATM    8  H   UNK N   1      33.715  15.305   9.752  0.00  0.00     0.162 HD
HETATM    9  O   UNK N   1      35.544  17.797  10.116  0.00  0.00    -0.271 OA
BRANCH   7  10
HETATM   10  C   UNK N   1      33.194  17.131   8.853  0.00  0.00     0.127 C 
BRANCH  10  11
HETATM   11  C   UNK N   1      32.168  16.318   8.082  0.00  0.00     0.058 C 
BRANCH  11  12
HETATM   12  C   UNK N   1      32.094  16.774   6.662  0.00  0.00    -0.057 A 
HETATM   13  C   UNK N   1      30.867  16.757   5.994  0.00  0.00     0.007 A 
HETATM   14  C   UNK N   1      30.785  17.180   4.664  0.00  0.00     0.001 A 
HETATM   15  C   UNK N   1      31.933  17.626   4.000  0.00  0.00     0.000 A 
HETATM   16  C   UNK N   1      33.163  17.642   4.663  0.00  0.00     0.001 A 
HETATM   17  C   UNK N   1      33.244  17.210   5.989  0.00  0.00     0.007 A 
ENDBRANCH  11  12
ENDBRANCH  10  11
ENDBRANCH   7  10
ENDBRANCH   5   6
ENDBRANCH   4   5
ENDBRANCH   2   4
BRANCH   2  18
HETATM   18  O   UNK N   1      37.471  13.729  12.124  0.00  0.00    -0.328 OA
HETATM   19  H   UNK N   1      38.359  13.433  12.373  0.00  0.00     0.220 HD
ENDBRANCH   2  18
ENDBRANCH   1   2
BRANCH   1  20
HETATM   20  C   UNK N   1      36.344  11.913  14.790  0.00  0.00     0.075 C 
BRANCH  20  21
HETATM   21  C   UNK N   1      35.906  12.006  16.217  0.00  0.00    -0.056 A 
HETATM   22  C   UNK N   1      36.010  10.878  17.040  0.00  0.00     0.007 A 
HETATM   23  C   UNK N   1      35.651  10.958  18.388  0.00  0.00     0.001 A 
HETATM   24  C   UNK N   1      35.182  12.164  18.914  0.00  0.00     0.000 A 
HETATM   25  C   UNK N   1      35.067  13.290  18.092  0.00  0.00     0.001 A 
HETATM   26  C   UNK N   1      35.433  13.213  16.744  0.00  0.00     0.007 A 
ENDBRANCH  20  21
ENDBRANCH   1  20
BRANCH   1  27
HETATM   27  N   UNK N   1      34.973  11.469  12.846  0.00  0.00    -0.345 N 
HETATM   28  C   UNK N   1      34.002  10.521  12.919  0.00  0.00     0.218 C 
HETATM   29  O   UNK N   1      33.238  10.464  13.867  0.00  0.00    -0.274 OA
HETATM   30  H   UNK N   1      35.510  11.442  12.021  0.00  0.00     0.163 HD
BRANCH  28  31
HETATM   31  C   UNK N   1      33.881   9.529  11.794  0.00  0.00     0.103 C 
BRANCH  31  32
HETATM   32  C   UNK N   1      33.055  10.040  10.620  0.00  0.00     0.019 C 
BRANCH  32  33
HETATM   33  C   UNK N   1      33.943  10.657   9.551  0.00  0.00     0.110 C 
BRANCH  33  34
HETATM   34  C   UNK N   1      33.542  12.076   9.320  0.00  0.00     0.139 C 
HETATM   35  O   UNK N   1      32.892  12.375   8.331  0.00  0.00    -0.650 OA
BRANCH  34  36
HETATM   36  O   UNK N   1      33.905  13.030  10.197  0.00  0.00    -0.776 OA
HETATM   37  H   UNK N   1      34.561  12.851  10.843  0.00  0.00     0.167 HD
ENDBRANCH  34  36
ENDBRANCH  33  34
ENDBRANCH  32  33
ENDBRANCH  31  32
ENDBRANCH  28  31
ENDBRANCH   1  27
TORSDOF 16
ENDMDL
MODEL 2
REMARK VINA RESULT:      -7.2     17.698     21.698
REMARK  16 active torsions:
REMARK  status: ('A' for Active; 'I' for Inactive)
REMARK    1  A    between atoms: C_1  and  C_7 
REMARK    2  A    between atoms: C_7  and  C_8 
REMARK    3  A    between atoms: C_8  and  N_9 
REMARK       I    between atoms: N_9  and  C_10 
REMARK    4  A    between atoms: C_10  and  C_12 
REMARK    5  A    between atoms: C_12  and  O_13 
REMARK    6  A    between atoms: P_14  and  O_13 
REMARK    7  A    between atoms: P_14  and  O_16 
REMARK    8  A    between atoms: P_14  and  C_17 
REMARK    9  A    between atoms: C_17  and  C_18 
REMARK   10  A    between atoms: C_17  and  N_25 
REMARK   11  A    between atoms: C_18  and  C_19 
REMARK       I    between atoms: N_25  and  C_26 
REMARK   12  A    between atoms: C_26  and  C_28 
REMARK   13  A    between atoms: C_28  and  C_29 
REMARK   14  A    between atoms: C_29  and  C_30 
REMARK   15  A    between atoms: C_30  and  C_31 
REMARK   16  A    between atoms: C_31  and  O_32 
ROOT
HETATM    1  C   UNK N   1      28.933  21.703  -6.882  0.00  0.00     0.200 C 
ENDROOT
BRANCH   1   2
HETATM    2  P   UNK N   1      28.771  20.987  -8.624  0.00  0.00     0.262 P 
HETATM    3  O   UNK N   1      29.854  21.442  -9.641  0.00  0.00    -0.652 OA
BRANCH   2   4
HETATM    4  O   UNK N   1      27.203  21.051  -9.395  0.00  0.00    -0.308 OA
BRANCH   4   5
HETATM    5  C   UNK N   1      26.213  21.063  -8.416  0.00  0.00     0.281 C 
BRANCH   5   6
HETATM    6  C   UNK N   1      25.489  22.365  -8.452  0.00  0.00     0.241 C 
HETATM    7  N   UNK N   1      26.163  23.487  -8.789  0.00  0.00    -0.359 N 
HETATM    8  H   UNK N   1      27.122  23.422  -9.002  0.00  0.00     0.162 HD
HETATM    9  O   UNK N   1      24.298  22.406  -8.178  0.00  0.00    -0.271 OA
BRANCH   7  10
HETATM   10  C   UNK N   1      25.523  24.776  -8.848  0.00  0.00     0.127 C 
BRANCH  10  11
HETATM   11  C   UNK N   1      26.580  25.861  -8.743  0.00  0.00     0.058 C 
BRANCH  11  12
HETATM   12  C   UNK N   1      26.398  26.655  -7.492  0.00  0.00    -0.057 A 
HETATM   13  C   UNK N   1      25.233  26.496  -6.737  0.00  0.00     0.007 A 
HETATM   14  C   UNK N   1      25.050  27.236  -5.565  0.00  0.00     0.001 A 
HETATM   15  C   UNK N   1      26.036  28.135  -5.143  0.00  0.00     0.000 A 
HETATM   16  C   UNK N   1      27.201  28.299  -5.898  0.00  0.00     0.001 A 
HETATM   17  C   UNK N   1      27.378  27.566  -7.073  0.00  0.00     0.007 A 
ENDBRANCH  11  12
ENDBRANCH  10  11
ENDBRANCH   7  10
ENDBRANCH   5   6
ENDBRANCH   4   5
ENDBRANCH   2   4
BRANCH   2  18
HETATM   18  O   UNK N   1      29.069  19.278  -8.553  0.00  0.00    -0.328 OA
HETATM   19  H   UNK N   1      28.469  18.523  -8.458  0.00  0.00     0.220 HD
ENDBRANCH   2  18
ENDBRANCH   1   2
BRANCH   1  20
HETATM   20  C   UNK N   1      28.845  23.234  -6.947  0.00  0.00     0.075 C 
BRANCH  20  21
HETATM   21  C   UNK N   1      28.278  23.870  -5.717  0.00  0.00    -0.056 A 
HETATM   22  C   UNK N   1      29.044  24.813  -5.021  0.00  0.00     0.007 A 
HETATM   23  C   UNK N   1      28.515  25.454  -3.898  0.00  0.00     0.001 A 
HETATM   24  C   UNK N   1      27.222  25.150  -3.466  0.00  0.00     0.000 A 
HETATM   25  C   UNK N   1      26.459  24.200  -4.153  0.00  0.00     0.001 A 
HETATM   26  C   UNK N   1      26.985  23.563  -5.282  0.00  0.00     0.007 A 
ENDBRANCH  20  21
ENDBRANCH   1  20
BRANCH   1  27
HETATM   27  N   UNK N   1      30.122  21.358  -6.106  0.00  0.00    -0.345 N 
HETATM   28  C   UNK N   1      31.432  21.665  -6.302  0.00  0.00     0.218 C 
HETATM   29  O   UNK N   1      31.789  22.370  -7.230  0.00  0.00    -0.274 OA
HETATM   30  H   UNK N   1      29.945  20.810  -5.307  0.00  0.00     0.163 HD
BRANCH  28  31
HETATM   31  C   UNK N   1      32.450  21.115  -5.339  0.00  0.00     0.103 C 
BRANCH  31  32
HETATM   32  C   UNK N   1      31.867  20.765  -3.975  0.00  0.00     0.019 C 
BRANCH  32  33
HETATM   33  C   UNK N   1      32.002  21.929  -3.006  0.00  0.00     0.110 C 
BRANCH  33  34
HETATM   34  C   UNK N   1      30.648  22.371  -2.559  0.00  0.00     0.139 C 
HETATM   35  O   UNK N   1      29.653  21.998  -3.160  0.00  0.00    -0.650 OA
BRANCH  34  36
HETATM   36  O   UNK N   1      30.523  23.191  -1.499  0.00  0.00    -0.776 OA
HETATM   37  H   UNK N   1      30.867  24.063  -1.534  0.00  0.00     0.167 HD
ENDBRANCH  34  36
ENDBRANCH  33  34
ENDBRANCH  32  33
ENDBRANCH  31  32
ENDBRANCH  28  31
ENDBRANCH   1  27
TORSDOF 16
ENDMDL
MODEL 3
REMARK VINA RESULT:      -7.1      4.939      8.797
REMARK  16 active torsions:
REMARK  status: ('A' for Active; 'I' for Inactive)
REMARK    1  A    between atoms: C_1  and  C_7 
REMARK    2  A    between atoms: C_7  and  C_8 
REMARK    3  A    between atoms: C_8  and  N_9 
REMARK       I    between atoms: N_9  and  C_10 
REMARK    4  A    between atoms: C_10  and  C_12 
REMARK    5  A    between atoms: C_12  and  O_13 
REMARK    6  A    between atoms: P_14  and  O_13 
REMARK    7  A    between atoms: P_14  and  O_16 
REMARK    8  A    between atoms: P_14  and  C_17 
REMARK    9  A    between atoms: C_17  and  C_18 
REMARK   10  A    between atoms: C_17  and  N_25 
REMARK   11  A    between atoms: C_18  and  C_19 
REMARK       I    between atoms: N_25  and  C_26 
REMARK   12  A    between atoms: C_26  and  C_28 
REMARK   13  A    between atoms: C_28  and  C_29 
REMARK   14  A    between atoms: C_29  and  C_30 
REMARK   15  A    between atoms: C_30  and  C_31 
REMARK   16  A    between atoms: C_31  and  O_32 
ROOT
HETATM    1  C   UNK N   1      30.936  17.541   8.243  0.00  0.00     0.200 C 
ENDROOT
BRANCH   1   2
HETATM    2  P   UNK N   1      29.495  17.783   9.442  0.00  0.00     0.262 P 
HETATM    3  O   UNK N   1      29.228  16.605  10.419  0.00  0.00    -0.652 OA
BRANCH   2   4
HETATM    4  O   UNK N   1      27.970  18.338   8.791  0.00  0.00    -0.308 OA
BRANCH   4   5
HETATM    5  C   UNK N   1      28.211  19.092   7.645  0.00  0.00     0.281 C 
BRANCH   5   6
HETATM    6  C   UNK N   1      27.772  18.329   6.442  0.00  0.00     0.241 C 
HETATM    7  N   UNK N   1      27.005  17.228   6.602  0.00  0.00    -0.359 N 
HETATM    8  H   UNK N   1      26.753  16.950   7.512  0.00  0.00     0.162 HD
HETATM    9  O   UNK N   1      28.109  18.704   5.328  0.00  0.00    -0.271 OA
BRANCH   7  10
HETATM   10  C   UNK N   1      26.543  16.448   5.482  0.00  0.00     0.127 C 
BRANCH  10  11
HETATM   11  C   UNK N   1      27.069  15.030   5.616  0.00  0.00     0.058 C 
BRANCH  11  12
HETATM   12  C   UNK N   1      28.166  14.780   4.633  0.00  0.00    -0.057 A 
HETATM   13  C   UNK N   1      28.320  15.634   3.539  0.00  0.00     0.007 A 
HETATM   14  C   UNK N   1      29.342  15.409   2.612  0.00  0.00     0.001 A 
HETATM   15  C   UNK N   1      30.215  14.330   2.781  0.00  0.00     0.000 A 
HETATM   16  C   UNK N   1      30.062  13.470   3.872  0.00  0.00     0.001 A 
HETATM   17  C   UNK N   1      29.035  13.691   4.793  0.00  0.00     0.007 A 
ENDBRANCH  11  12
ENDBRANCH  10  11
ENDBRANCH   7  10
ENDBRANCH   5   6
ENDBRANCH   4   5
ENDBRANCH   2   4
BRANCH   2  18
HETATM   18  O   UNK N   1      29.901  19.058  10.549  0.00  0.00    -0.328 OA
HETATM   19  H   UNK N   1      30.496  19.081  11.313  0.00  0.00     0.220 HD
ENDBRANCH   2  18
ENDBRANCH   1   2
BRANCH   1  20
HETATM   20  C   UNK N   1      30.600  16.412   7.259  0.00  0.00     0.075 C 
BRANCH  20  21
HETATM   21  C   UNK N   1      31.441  16.403   6.022  0.00  0.00    -0.056 A 
HETATM   22  C   UNK N   1      31.285  17.427   5.081  0.00  0.00     0.007 A 
HETATM   23  C   UNK N   1      32.095  17.463   3.943  0.00  0.00     0.001 A 
HETATM   24  C   UNK N   1      33.059  16.472   3.742  0.00  0.00     0.000 A 
HETATM   25  C   UNK N   1      33.210  15.442   4.676  0.00  0.00     0.001 A 
HETATM   26  C   UNK N   1      32.405  15.409   5.819  0.00  0.00     0.007 A 
ENDBRANCH  20  21
ENDBRANCH   1  20
BRANCH   1  27
HETATM   27  N   UNK N   1      32.256  17.263   8.805  0.00  0.00    -0.345 N 
HETATM   28  C   UNK N   1      33.488  17.708   8.443  0.00  0.00     0.218 C 
HETATM   29  O   UNK N   1      33.636  18.504   7.532  0.00  0.00    -0.274 OA
HETATM   30  H   UNK N   1      32.253  16.649   9.575  0.00  0.00     0.163 HD
BRANCH  28  31
HETATM   31  C   UNK N   1      34.686  17.197   9.198  0.00  0.00     0.103 C 
BRANCH  31  32
HETATM   32  C   UNK N   1      35.149  15.819   8.741  0.00  0.00     0.019 C 
BRANCH  32  33
HETATM   33  C   UNK N   1      35.010  14.795   9.857  0.00  0.00     0.110 C 
BRANCH  33  34
HETATM   34  C   UNK N   1      33.589  14.351   9.959  0.00  0.00     0.139 C 
HETATM   35  O   UNK N   1      33.171  13.464   9.232  0.00  0.00    -0.650 OA
BRANCH  34  36
HETATM   36  O   UNK N   1      32.763  14.935  10.847  0.00  0.00    -0.776 OA
HETATM   37  H   UNK N   1      33.102  15.280  11.650  0.00  0.00     0.167 HD
ENDBRANCH  34  36
ENDBRANCH  33  34
ENDBRANCH  32  33
ENDBRANCH  31  32
ENDBRANCH  28  31
ENDBRANCH   1  27
TORSDOF 16
ENDMDL
MODEL 4
REMARK VINA RESULT:      -7.0     18.867     22.112
REMARK  16 active torsions:
REMARK  status: ('A' for Active; 'I' for Inactive)
REMARK    1  A    between atoms: C_1  and  C_7 
REMARK    2  A    between atoms: C_7  and  C_8 
REMARK    3  A    between atoms: C_8  and  N_9 
REMARK       I    between atoms: N_9  and  C_10 
REMARK    4  A    between atoms: C_10  and  C_12 
REMARK    5  A    between atoms: C_12  and  O_13 
REMARK    6  A    between atoms: P_14  and  O_13 
REMARK    7  A    between atoms: P_14  and  O_16 
REMARK    8  A    between atoms: P_14  and  C_17 
REMARK    9  A    between atoms: C_17  and  C_18 
REMARK   10  A    between atoms: C_17  and  N_25 
REMARK   11  A    between atoms: C_18  and  C_19 
REMARK       I    between atoms: N_25  and  C_26 
REMARK   12  A    between atoms: C_26  and  C_28 
REMARK   13  A    between atoms: C_28  and  C_29 
REMARK   14  A    between atoms: C_29  and  C_30 
REMARK   15  A    between atoms: C_30  and  C_31 
REMARK   16  A    between atoms: C_31  and  O_32 
ROOT
HETATM    1  C   UNK N   1      26.926  23.747  -7.176  0.00  0.00     0.200 C 
ENDROOT
BRANCH   1   2
HETATM    2  P   UNK N   1      25.651  22.468  -7.734  0.00  0.00     0.262 P 
HETATM    3  O   UNK N   1      24.736  21.899  -6.614  0.00  0.00    -0.652 OA
BRANCH   2   4
HETATM    4  O   UNK N   1      26.197  21.151  -8.745  0.00  0.00    -0.308 OA
BRANCH   4   5
HETATM    5  C   UNK N   1      27.422  21.491  -9.315  0.00  0.00     0.281 C 
BRANCH   5   6
HETATM    6  C   UNK N   1      28.523  20.804  -8.582  0.00  0.00     0.241 C 
HETATM    7  N   UNK N   1      29.782  21.286  -8.679  0.00  0.00    -0.359 N 
HETATM    8  H   UNK N   1      29.948  22.081  -9.234  0.00  0.00     0.162 HD
HETATM    9  O   UNK N   1      28.278  19.816  -7.904  0.00  0.00    -0.271 OA
BRANCH   7  10
HETATM   10  C   UNK N   1      30.890  20.672  -7.993  0.00  0.00     0.127 C 
BRANCH  10  11
HETATM   11  C   UNK N   1      31.737  21.757  -7.350  0.00  0.00     0.058 C 
BRANCH  11  12
HETATM   12  C   UNK N   1      31.614  21.708  -5.862  0.00  0.00    -0.057 A 
HETATM   13  C   UNK N   1      32.525  22.413  -5.071  0.00  0.00     0.007 A 
HETATM   14  C   UNK N   1      32.421  22.375  -3.677  0.00  0.00     0.001 A 
HETATM   15  C   UNK N   1      31.402  21.632  -3.072  0.00  0.00     0.000 A 
HETATM   16  C   UNK N   1      30.491  20.922  -3.859  0.00  0.00     0.001 A 
HETATM   17  C   UNK N   1      30.602  20.955  -5.251  0.00  0.00     0.007 A 
ENDBRANCH  11  12
ENDBRANCH  10  11
ENDBRANCH   7  10
ENDBRANCH   5   6
ENDBRANCH   4   5
ENDBRANCH   2   4
BRANCH   2  18
HETATM   18  O   UNK N   1      24.488  23.252  -8.757  0.00  0.00    -0.328 OA
HETATM   19  H   UNK N   1      23.528  23.148  -8.838  0.00  0.00     0.220 HD
ENDBRANCH   2  18
ENDBRANCH   1   2
BRANCH   1  20
HETATM   20  C   UNK N   1      27.696  23.207  -5.962  0.00  0.00     0.075 C 
BRANCH  20  21
HETATM   21  C   UNK N   1      28.781  24.111  -5.470  0.00  0.00    -0.056 A 
HETATM   22  C   UNK N   1      28.934  24.310  -4.092  0.00  0.00     0.007 A 
HETATM   23  C   UNK N   1      29.972  25.112  -3.611  0.00  0.00     0.001 A 
HETATM   24  C   UNK N   1      30.855  25.721  -4.506  0.00  0.00     0.000 A 
HETATM   25  C   UNK N   1      30.697  25.534  -5.883  0.00  0.00     0.001 A 
HETATM   26  C   UNK N   1      29.664  24.725  -6.366  0.00  0.00     0.007 A 
ENDBRANCH  20  21
ENDBRANCH   1  20
BRANCH   1  27
HETATM   27  N   UNK N   1      26.453  25.088  -6.842  0.00  0.00    -0.345 N 
HETATM   28  C   UNK N   1      25.538  25.507  -5.928  0.00  0.00     0.218 C 
HETATM   29  O   UNK N   1      24.979  24.722  -5.181  0.00  0.00    -0.274 OA
HETATM   30  H   UNK N   1      26.865  25.811  -7.368  0.00  0.00     0.163 HD
BRANCH  28  31
HETATM   31  C   UNK N   1      25.222  26.976  -5.850  0.00  0.00     0.103 C 
BRANCH  31  32
HETATM   32  C   UNK N   1      26.462  27.861  -5.795  0.00  0.00     0.019 C 
BRANCH  32  33
HETATM   33  C   UNK N   1      27.246  27.628  -4.513  0.00  0.00     0.110 C 
BRANCH  33  34
HETATM   34  C   UNK N   1      26.421  28.032  -3.337  0.00  0.00     0.139 C 
HETATM   35  O   UNK N   1      26.197  29.213  -3.123  0.00  0.00    -0.650 OA
BRANCH  34  36
HETATM   36  O   UNK N   1      25.931  27.096  -2.504  0.00  0.00    -0.776 OA
HETATM   37  H   UNK N   1      26.337  26.945  -1.672  0.00  0.00     0.167 HD
ENDBRANCH  34  36
ENDBRANCH  33  34
ENDBRANCH  32  33
ENDBRANCH  31  32
ENDBRANCH  28  31
ENDBRANCH   1  27
TORSDOF 16
ENDMDL
MODEL 5
REMARK VINA RESULT:      -6.8      1.779      5.048
REMARK  16 active torsions:
REMARK  status: ('A' for Active; 'I' for Inactive)
REMARK    1  A    between atoms: C_1  and  C_7 
REMARK    2  A    between atoms: C_7  and  C_8 
REMARK    3  A    between atoms: C_8  and  N_9 
REMARK       I    between atoms: N_9  and  C_10 
REMARK    4  A    between atoms: C_10  and  C_12 
REMARK    5  A    between atoms: C_12  and  O_13 
REMARK    6  A    between atoms: P_14  and  O_13 
REMARK    7  A    between atoms: P_14  and  O_16 
REMARK    8  A    between atoms: P_14  and  C_17 
REMARK    9  A    between atoms: C_17  and  C_18 
REMARK   10  A    between atoms: C_17  and  N_25 
REMARK   11  A    between atoms: C_18  and  C_19 
REMARK       I    between atoms: N_25  and  C_26 
REMARK   12  A    between atoms: C_26  and  C_28 
REMARK   13  A    between atoms: C_28  and  C_29 
REMARK   14  A    between atoms: C_29  and  C_30 
REMARK   15  A    between atoms: C_30  and  C_31 
REMARK   16  A    between atoms: C_31  and  O_32 
ROOT
HETATM    1  C   UNK N   1      35.733  11.601  13.905  0.00  0.00     0.200 C 
ENDROOT
BRANCH   1   2
HETATM    2  P   UNK N   1      36.118  13.372  13.369  0.00  0.00     0.262 P 
HETATM    3  O   UNK N   1      36.657  14.310  14.485  0.00  0.00    -0.652 OA
BRANCH   2   4
HETATM    4  O   UNK N   1      34.911  14.230  12.439  0.00  0.00    -0.308 OA
BRANCH   4   5
HETATM    5  C   UNK N   1      35.357  15.527  12.200  0.00  0.00     0.281 C 
BRANCH   5   6
HETATM    6  C   UNK N   1      35.373  15.788  10.733  0.00  0.00     0.241 C 
HETATM    7  N   UNK N   1      34.648  16.816  10.237  0.00  0.00    -0.359 N 
HETATM    8  H   UNK N   1      34.121  17.371  10.856  0.00  0.00     0.162 HD
HETATM    9  O   UNK N   1      36.037  15.074   9.995  0.00  0.00    -0.271 OA
BRANCH   7  10
HETATM   10  C   UNK N   1      34.623  17.126   8.830  0.00  0.00     0.127 C 
BRANCH  10  11
HETATM   11  C   UNK N   1      33.371  17.927   8.521  0.00  0.00     0.058 C 
BRANCH  11  12
HETATM   12  C   UNK N   1      32.821  17.550   7.184  0.00  0.00    -0.057 A 
HETATM   13  C   UNK N   1      33.654  17.579   6.063  0.00  0.00     0.007 A 
HETATM   14  C   UNK N   1      33.150  17.230   4.806  0.00  0.00     0.001 A 
HETATM   15  C   UNK N   1      31.812  16.848   4.670  0.00  0.00     0.000 A 
HETATM   16  C   UNK N   1      30.975  16.821   5.788  0.00  0.00     0.001 A 
HETATM   17  C   UNK N   1      31.477  17.178   7.042  0.00  0.00     0.007 A 
ENDBRANCH  11  12
ENDBRANCH  10  11
ENDBRANCH   7  10
ENDBRANCH   5   6
ENDBRANCH   4   5
ENDBRANCH   2   4
BRANCH   2  18
HETATM   18  O   UNK N   1      37.464  13.341  12.273  0.00  0.00    -0.328 OA
HETATM   19  H   UNK N   1      37.857  12.621  11.756  0.00  0.00     0.220 HD
ENDBRANCH   2  18
ENDBRANCH   1   2
BRANCH   1  20
HETATM   20  C   UNK N   1      34.337  11.205  13.402  0.00  0.00     0.075 C 
BRANCH  20  21
HETATM   21  C   UNK N   1      34.315   9.970  12.559  0.00  0.00    -0.056 A 
HETATM   22  C   UNK N   1      35.135   8.890  12.907  0.00  0.00     0.007 A 
HETATM   23  C   UNK N   1      35.093   7.709  12.161  0.00  0.00     0.001 A 
HETATM   24  C   UNK N   1      34.235   7.609  11.062  0.00  0.00     0.000 A 
HETATM   25  C   UNK N   1      33.423   8.691  10.706  0.00  0.00     0.001 A 
HETATM   26  C   UNK N   1      33.459   9.870  11.457  0.00  0.00     0.007 A 
ENDBRANCH  20  21
ENDBRANCH   1  20
BRANCH   1  27
HETATM   27  N   UNK N   1      35.798  11.286  15.331  0.00  0.00    -0.345 N 
HETATM   28  C   UNK N   1      36.613  10.445  16.020  0.00  0.00     0.218 C 
HETATM   29  O   UNK N   1      37.500   9.820  15.464  0.00  0.00    -0.274 OA
HETATM   30  H   UNK N   1      35.140  11.764  15.886  0.00  0.00     0.163 HD
BRANCH  28  31
HETATM   31  C   UNK N   1      36.403  10.295  17.502  0.00  0.00     0.103 C 
BRANCH  31  32
HETATM   32  C   UNK N   1      35.134  10.972  18.006  0.00  0.00     0.019 C 
BRANCH  32  33
HETATM   33  C   UNK N   1      35.461  12.121  18.947  0.00  0.00     0.110 C 
BRANCH  33  34
HETATM   34  C   UNK N   1      35.180  13.422  18.269  0.00  0.00     0.139 C 
HETATM   35  O   UNK N   1      35.184  14.459  18.912  0.00  0.00    -0.650 OA
BRANCH  34  36
HETATM   36  O   UNK N   1      34.913  13.450  16.951  0.00  0.00    -0.776 OA
HETATM   37  H   UNK N   1      35.612  13.408  16.327  0.00  0.00     0.167 HD
ENDBRANCH  34  36
ENDBRANCH  33  34
ENDBRANCH  32  33
ENDBRANCH  31  32
ENDBRANCH  28  31
ENDBRANCH   1  27
TORSDOF 16
ENDMDL
MODEL 6
REMARK VINA RESULT:      -6.8     12.172     15.828
REMARK  16 active torsions:
REMARK  status: ('A' for Active; 'I' for Inactive)
REMARK    1  A    between atoms: C_1  and  C_7 
REMARK    2  A    between atoms: C_7  and  C_8 
REMARK    3  A    between atoms: C_8  and  N_9 
REMARK       I    between atoms: N_9  and  C_10 
REMARK    4  A    between atoms: C_10  and  C_12 
REMARK    5  A    between atoms: C_12  and  O_13 
REMARK    6  A    between atoms: P_14  and  O_13 
REMARK    7  A    between atoms: P_14  and  O_16 
REMARK    8  A    between atoms: P_14  and  C_17 
REMARK    9  A    between atoms: C_17  and  C_18 
REMARK   10  A    between atoms: C_17  and  N_25 
REMARK   11  A    between atoms: C_18  and  C_19 
REMARK       I    between atoms: N_25  and  C_26 
REMARK   12  A    between atoms: C_26  and  C_28 
REMARK   13  A    between atoms: C_28  and  C_29 
REMARK   14  A    between atoms: C_29  and  C_30 
REMARK   15  A    between atoms: C_30  and  C_31 
REMARK   16  A    between atoms: C_31  and  O_32 
ROOT
HETATM    1  C   UNK N   1      22.664  18.611   3.401  0.00  0.00     0.200 C 
ENDROOT
BRANCH   1   2
HETATM    2  P   UNK N   1      21.098  19.558   2.925  0.00  0.00     0.262 P 
HETATM    3  O   UNK N   1      20.511  20.483   4.027  0.00  0.00    -0.652 OA
BRANCH   2   4
HETATM    4  O   UNK N   1      19.794  18.665   2.178  0.00  0.00    -0.308 OA
BRANCH   4   5
HETATM    5  C   UNK N   1      20.297  17.937   1.102  0.00  0.00     0.281 C 
BRANCH   5   6
HETATM    6  C   UNK N   1      20.327  16.488   1.449  0.00  0.00     0.241 C 
HETATM    7  N   UNK N   1      19.684  16.060   2.559  0.00  0.00    -0.359 N 
HETATM    8  H   UNK N   1      19.209  16.717   3.117  0.00  0.00     0.162 HD
HETATM    9  O   UNK N   1      20.931  15.703   0.731  0.00  0.00    -0.271 OA
BRANCH   7  10
HETATM   10  C   UNK N   1      19.670  14.674   2.948  0.00  0.00     0.127 C 
BRANCH  10  11
HETATM   11  C   UNK N   1      19.064  14.555   4.335  0.00  0.00     0.058 C 
BRANCH  11  12
HETATM   12  C   UNK N   1      20.114  14.212   5.341  0.00  0.00    -0.057 A 
HETATM   13  C   UNK N   1      20.335  15.065   6.425  0.00  0.00     0.007 A 
HETATM   14  C   UNK N   1      21.316  14.755   7.372  0.00  0.00     0.001 A 
HETATM   15  C   UNK N   1      22.076  13.589   7.237  0.00  0.00     0.000 A 
HETATM   16  C   UNK N   1      21.861  12.736   6.152  0.00  0.00     0.001 A 
HETATM   17  C   UNK N   1      20.886  13.050   5.202  0.00  0.00     0.007 A 
ENDBRANCH  11  12
ENDBRANCH  10  11
ENDBRANCH   7  10
ENDBRANCH   5   6
ENDBRANCH   4   5
ENDBRANCH   2   4
BRANCH   2  18
HETATM   18  O   UNK N   1      21.500  20.712   1.692  0.00  0.00    -0.328 OA
HETATM   19  H   UNK N   1      21.262  20.761   0.754  0.00  0.00     0.220 HD
ENDBRANCH   2  18
ENDBRANCH   1   2
BRANCH   1  20
HETATM   20  C   UNK N   1      22.327  17.575   4.484  0.00  0.00     0.075 C 
BRANCH  20  21
HETATM   21  C   UNK N   1      23.264  16.411   4.534  0.00  0.00    -0.056 A 
HETATM   22  C   UNK N   1      24.151  16.293   5.610  0.00  0.00     0.007 A 
HETATM   23  C   UNK N   1      25.001  15.187   5.701  0.00  0.00     0.001 A 
HETATM   24  C   UNK N   1      24.969  14.201   4.712  0.00  0.00     0.000 A 
HETATM   25  C   UNK N   1      24.091  14.322   3.629  0.00  0.00     0.001 A 
HETATM   26  C   UNK N   1      23.235  15.424   3.542  0.00  0.00     0.007 A 
ENDBRANCH  20  21
ENDBRANCH   1  20
BRANCH   1  27
HETATM   27  N   UNK N   1      23.817  19.380   3.864  0.00  0.00    -0.345 N 
HETATM   28  C   UNK N   1      24.592  20.293   3.223  0.00  0.00     0.218 C 
HETATM   29  O   UNK N   1      24.360  20.632   2.075  0.00  0.00    -0.274 OA
HETATM   30  H   UNK N   1      24.076  19.207   4.798  0.00  0.00     0.163 HD
BRANCH  28  31
HETATM   31  C   UNK N   1      25.759  20.890   3.963  0.00  0.00     0.103 C 
BRANCH  31  32
HETATM   32  C   UNK N   1      26.953  19.950   4.074  0.00  0.00     0.019 C 
BRANCH  32  33
HETATM   33  C   UNK N   1      27.146  19.475   5.505  0.00  0.00     0.110 C 
BRANCH  33  34
HETATM   34  C   UNK N   1      27.050  20.636   6.439  0.00  0.00     0.139 C 
HETATM   35  O   UNK N   1      27.853  21.551   6.361  0.00  0.00    -0.650 OA
BRANCH  34  36
HETATM   36  O   UNK N   1      26.082  20.670   7.374  0.00  0.00    -0.776 OA
HETATM   37  H   UNK N   1      26.146  21.263   8.097  0.00  0.00     0.167 HD
ENDBRANCH  34  36
ENDBRANCH  33  34
ENDBRANCH  32  33
ENDBRANCH  31  32
ENDBRANCH  28  31
ENDBRANCH   1  27
TORSDOF 16
ENDMDL
MODEL 7
REMARK VINA RESULT:      -6.8      1.822      9.398
REMARK  16 active torsions:
REMARK  status: ('A' for Active; 'I' for Inactive)
REMARK    1  A    between atoms: C_1  and  C_7 
REMARK    2  A    between atoms: C_7  and  C_8 
REMARK    3  A    between atoms: C_8  and  N_9 
REMARK       I    between atoms: N_9  and  C_10 
REMARK    4  A    between atoms: C_10  and  C_12 
REMARK    5  A    between atoms: C_12  and  O_13 
REMARK    6  A    between atoms: P_14  and  O_13 
REMARK    7  A    between atoms: P_14  and  O_16 
REMARK    8  A    between atoms: P_14  and  C_17 
REMARK    9  A    between atoms: C_17  and  C_18 
REMARK   10  A    between atoms: C_17  and  N_25 
REMARK   11  A    between atoms: C_18  and  C_19 
REMARK       I    between atoms: N_25  and  C_26 
REMARK   12  A    between atoms: C_26  and  C_28 
REMARK   13  A    between atoms: C_28  and  C_29 
REMARK   14  A    between atoms: C_29  and  C_30 
REMARK   15  A    between atoms: C_30  and  C_31 
REMARK   16  A    between atoms: C_31  and  O_32 
ROOT
HETATM    1  C   UNK N   1      34.582  15.881   8.576  0.00  0.00     0.200 C 
ENDROOT
BRANCH   1   2
HETATM    2  P   UNK N   1      35.125  15.851  10.387  0.00  0.00     0.262 P 
HETATM    3  O   UNK N   1      35.152  17.230  11.103  0.00  0.00    -0.652 OA
BRANCH   2   4
HETATM    4  O   UNK N   1      36.580  14.970  10.794  0.00  0.00    -0.308 OA
BRANCH   4   5
HETATM    5  C   UNK N   1      36.232  13.704  11.257  0.00  0.00     0.281 C 
BRANCH   5   6
HETATM    6  C   UNK N   1      36.485  13.620  12.723  0.00  0.00     0.241 C 
HETATM    7  N   UNK N   1      37.026  12.492  13.237  0.00  0.00    -0.359 N 
HETATM    8  H   UNK N   1      37.240  11.747  12.631  0.00  0.00     0.162 HD
HETATM    9  O   UNK N   1      36.202  14.566  13.444  0.00  0.00    -0.271 OA
BRANCH   7  10
HETATM   10  C   UNK N   1      37.300  12.348  14.643  0.00  0.00     0.127 C 
BRANCH  10  11
HETATM   11  C   UNK N   1      36.248  11.445  15.263  0.00  0.00     0.058 C 
BRANCH  11  12
HETATM   12  C   UNK N   1      35.840  11.956  16.606  0.00  0.00    -0.057 A 
HETATM   13  C   UNK N   1      35.565  13.316  16.772  0.00  0.00     0.007 A 
HETATM   14  C   UNK N   1      35.183  13.806  18.024  0.00  0.00     0.001 A 
HETATM   15  C   UNK N   1      35.072  12.936  19.113  0.00  0.00     0.000 A 
HETATM   16  C   UNK N   1      35.350  11.576  18.952  0.00  0.00     0.001 A 
HETATM   17  C   UNK N   1      35.739  11.088  17.702  0.00  0.00     0.007 A 
ENDBRANCH  11  12
ENDBRANCH  10  11
ENDBRANCH   7  10
ENDBRANCH   5   6
ENDBRANCH   4   5
ENDBRANCH   2   4
BRANCH   2  18
HETATM   18  O   UNK N   1      33.922  15.010  11.314  0.00  0.00    -0.328 OA
HETATM   19  H   UNK N   1      33.365  15.295  12.055  0.00  0.00     0.220 HD
ENDBRANCH   2  18
ENDBRANCH   1   2
BRANCH   1  20
HETATM   20  C   UNK N   1      33.228  16.595   8.459  0.00  0.00     0.075 C 
BRANCH  20  21
HETATM   21  C   UNK N   1      32.748  16.775   7.054  0.00  0.00    -0.056 A 
HETATM   22  C   UNK N   1      33.523  17.518   6.156  0.00  0.00     0.007 A 
HETATM   23  C   UNK N   1      33.116  17.657   4.827  0.00  0.00     0.001 A 
HETATM   24  C   UNK N   1      31.930  17.059   4.395  0.00  0.00     0.000 A 
HETATM   25  C   UNK N   1      31.148  16.325   5.293  0.00  0.00     0.001 A 
HETATM   26  C   UNK N   1      31.558  16.178   6.621  0.00  0.00     0.007 A 
ENDBRANCH  20  21
ENDBRANCH   1  20
BRANCH   1  27
HETATM   27  N   UNK N   1      34.476  14.606   7.871  0.00  0.00    -0.345 N 
HETATM   28  C   UNK N   1      35.097  14.155   6.749  0.00  0.00     0.218 C 
HETATM   29  O   UNK N   1      35.929  14.830   6.167  0.00  0.00    -0.274 OA
HETATM   30  H   UNK N   1      33.848  13.964   8.276  0.00  0.00     0.163 HD
BRANCH  28  31
HETATM   31  C   UNK N   1      34.738  12.789   6.229  0.00  0.00     0.103 C 
BRANCH  31  32
HETATM   32  C   UNK N   1      33.371  12.303   6.694  0.00  0.00     0.019 C 
BRANCH  32  33
HETATM   33  C   UNK N   1      33.501  11.119   7.638  0.00  0.00     0.110 C 
BRANCH  33  34
HETATM   34  C   UNK N   1      33.101  11.529   9.017  0.00  0.00     0.139 C 
HETATM   35  O   UNK N   1      33.723  12.402   9.600  0.00  0.00    -0.650 OA
BRANCH  34  36
HETATM   36  O   UNK N   1      32.061  10.928   9.623  0.00  0.00    -0.776 OA
HETATM   37  H   UNK N   1      32.155  10.583  10.490  0.00  0.00     0.167 HD
ENDBRANCH  34  36
ENDBRANCH  33  34
ENDBRANCH  32  33
ENDBRANCH  31  32
ENDBRANCH  28  31
ENDBRANCH   1  27
TORSDOF 16
ENDMDL
MODEL 8
REMARK VINA RESULT:      -6.7      3.516      8.097
REMARK  16 active torsions:
REMARK  status: ('A' for Active; 'I' for Inactive)
REMARK    1  A    between atoms: C_1  and  C_7 
REMARK    2  A    between atoms: C_7  and  C_8 
REMARK    3  A    between atoms: C_8  and  N_9 
REMARK       I    between atoms: N_9  and  C_10 
REMARK    4  A    between atoms: C_10  and  C_12 
REMARK    5  A    between atoms: C_12  and  O_13 
REMARK    6  A    between atoms: P_14  and  O_13 
REMARK    7  A    between atoms: P_14  and  O_16 
REMARK    8  A    between atoms: P_14  and  C_17 
REMARK    9  A    between atoms: C_17  and  C_18 
REMARK   10  A    between atoms: C_17  and  N_25 
REMARK   11  A    between atoms: C_18  and  C_19 
REMARK       I    between atoms: N_25  and  C_26 
REMARK   12  A    between atoms: C_26  and  C_28 
REMARK   13  A    between atoms: C_28  and  C_29 
REMARK   14  A    between atoms: C_29  and  C_30 
REMARK   15  A    between atoms: C_30  and  C_31 
REMARK   16  A    between atoms: C_31  and  O_32 
ROOT
HETATM    1  C   UNK N   1      32.776  16.195   8.288  0.00  0.00     0.200 C 
ENDROOT
BRANCH   1   2
HETATM    2  P   UNK N   1      33.525  15.673   6.632  0.00  0.00     0.262 P 
HETATM    3  O   UNK N   1      34.970  15.108   6.697  0.00  0.00    -0.652 OA
BRANCH   2   4
HETATM    4  O   UNK N   1      33.409  16.787   5.291  0.00  0.00    -0.308 OA
BRANCH   4   5
HETATM    5  C   UNK N   1      33.377  16.066   4.100  0.00  0.00     0.281 C 
BRANCH   5   6
HETATM    6  C   UNK N   1      32.178  16.460   3.308  0.00  0.00     0.241 C 
HETATM    7  N   UNK N   1      30.951  16.090   3.738  0.00  0.00    -0.359 N 
HETATM    8  H   UNK N   1      30.874  15.565   4.567  0.00  0.00     0.162 HD
HETATM    9  O   UNK N   1      32.314  17.111   2.281  0.00  0.00    -0.271 OA
BRANCH   7  10
HETATM   10  C   UNK N   1      29.752  16.442   3.023  0.00  0.00     0.127 C 
BRANCH  10  11
HETATM   11  C   UNK N   1      28.564  16.337   3.964  0.00  0.00     0.058 C 
BRANCH  11  12
HETATM   12  C   UNK N   1      27.837  17.639   4.041  0.00  0.00    -0.057 A 
HETATM   13  C   UNK N   1      28.510  18.780   4.485  0.00  0.00     0.007 A 
HETATM   14  C   UNK N   1      27.839  20.005   4.563  0.00  0.00     0.001 A 
HETATM   15  C   UNK N   1      26.493  20.090   4.193  0.00  0.00     0.000 A 
HETATM   16  C   UNK N   1      25.815  18.950   3.752  0.00  0.00     0.001 A 
HETATM   17  C   UNK N   1      26.484  17.726   3.683  0.00  0.00     0.007 A 
ENDBRANCH  11  12
ENDBRANCH  10  11
ENDBRANCH   7  10
ENDBRANCH   5   6
ENDBRANCH   4   5
ENDBRANCH   2   4
BRANCH   2  18
HETATM   18  O   UNK N   1      32.649  14.297   6.036  0.00  0.00    -0.328 OA
HETATM   19  H   UNK N   1      31.761  14.214   5.658  0.00  0.00     0.220 HD
ENDBRANCH   2  18
ENDBRANCH   1   2
BRANCH   1  20
HETATM   20  C   UNK N   1      32.234  17.627   8.176  0.00  0.00     0.075 C 
BRANCH  20  21
HETATM   21  C   UNK N   1      30.746  17.732   8.285  0.00  0.00    -0.056 A 
HETATM   22  C   UNK N   1      29.942  16.973   7.426  0.00  0.00     0.007 A 
HETATM   23  C   UNK N   1      28.551  17.020   7.545  0.00  0.00     0.001 A 
HETATM   24  C   UNK N   1      27.961  17.830   8.518  0.00  0.00     0.000 A 
HETATM   25  C   UNK N   1      28.762  18.598   9.370  0.00  0.00     0.001 A 
HETATM   26  C   UNK N   1      30.154  18.546   9.258  0.00  0.00     0.007 A 
ENDBRANCH  20  21
ENDBRANCH   1  20
BRANCH   1  27
HETATM   27  N   UNK N   1      33.626  16.133   9.475  0.00  0.00    -0.345 N 
HETATM   28  C   UNK N   1      34.715  16.864   9.829  0.00  0.00     0.218 C 
HETATM   29  O   UNK N   1      35.124  17.776   9.131  0.00  0.00    -0.274 OA
HETATM   30  H   UNK N   1      33.365  15.444  10.129  0.00  0.00     0.163 HD
BRANCH  28  31
HETATM   31  C   UNK N   1      35.419  16.526  11.116  0.00  0.00     0.103 C 
BRANCH  31  32
HETATM   32  C   UNK N   1      36.028  15.129  11.126  0.00  0.00     0.019 C 
BRANCH  32  33
HETATM   33  C   UNK N   1      35.147  14.152  11.888  0.00  0.00     0.110 C 
BRANCH  33  34
HETATM   34  C   UNK N   1      35.657  13.996  13.283  0.00  0.00     0.139 C 
HETATM   35  O   UNK N   1      34.963  13.460  14.132  0.00  0.00    -0.650 OA
BRANCH  34  36
HETATM   36  O   UNK N   1      36.880  14.454  13.607  0.00  0.00    -0.776 OA
HETATM   37  H   UNK N   1      37.190  14.389  14.489  0.00  0.00     0.167 HD
ENDBRANCH  34  36
ENDBRANCH  33  34
ENDBRANCH  32  33
ENDBRANCH  31  32
ENDBRANCH  28  31
ENDBRANCH   1  27
TORSDOF 16
ENDMDL
MODEL 9
REMARK VINA RESULT:      -6.7     10.103     13.644
REMARK  16 active torsions:
REMARK  status: ('A' for Active; 'I' for Inactive)
REMARK    1  A    between atoms: C_1  and  C_7 
REMARK    2  A    between atoms: C_7  and  C_8 
REMARK    3  A    between atoms: C_8  and  N_9 
REMARK       I    between atoms: N_9  and  C_10 
REMARK    4  A    between atoms: C_10  and  C_12 
REMARK    5  A    between atoms: C_12  and  O_13 
REMARK    6  A    between atoms: P_14  and  O_13 
REMARK    7  A    between atoms: P_14  and  O_16 
REMARK    8  A    between atoms: P_14  and  C_17 
REMARK    9  A    between atoms: C_17  and  C_18 
REMARK   10  A    between atoms: C_17  and  N_25 
REMARK   11  A    between atoms: C_18  and  C_19 
REMARK       I    between atoms: N_25  and  C_26 
REMARK   12  A    between atoms: C_26  and  C_28 
REMARK   13  A    between atoms: C_28  and  C_29 
REMARK   14  A    between atoms: C_29  and  C_30 
REMARK   15  A    between atoms: C_30  and  C_31 
REMARK   16  A    between atoms: C_31  and  O_32 
ROOT
HETATM    1  C   UNK N   1      24.291  18.383   4.510  0.00  0.00     0.200 C 
ENDROOT
BRANCH   1   2
HETATM    2  P   UNK N   1      25.266  19.960   4.143  0.00  0.00     0.262 P 
HETATM    3  O   UNK N   1      26.353  19.836   3.040  0.00  0.00    -0.652 OA
BRANCH   2   4
HETATM    4  O   UNK N   1      25.926  20.850   5.495  0.00  0.00    -0.308 OA
BRANCH   4   5
HETATM    5  C   UNK N   1      27.316  20.858   5.401  0.00  0.00     0.281 C 
BRANCH   5   6
HETATM    6  C   UNK N   1      27.866  19.620   6.019  0.00  0.00     0.241 C 
HETATM    7  N   UNK N   1      28.509  18.721   5.239  0.00  0.00    -0.359 N 
HETATM    8  H   UNK N   1      28.598  18.903   4.276  0.00  0.00     0.162 HD
HETATM    9  O   UNK N   1      27.733  19.427   7.219  0.00  0.00    -0.271 OA
BRANCH   7  10
HETATM   10  C   UNK N   1      29.068  17.507   5.773  0.00  0.00     0.127 C 
BRANCH  10  11
HETATM   11  C   UNK N   1      29.835  16.790   4.676  0.00  0.00     0.058 C 
BRANCH  11  12
HETATM   12  C   UNK N   1      29.038  15.649   4.134  0.00  0.00    -0.057 A 
HETATM   13  C   UNK N   1      28.987  14.445   4.842  0.00  0.00     0.007 A 
HETATM   14  C   UNK N   1      28.245  13.370   4.345  0.00  0.00     0.001 A 
HETATM   15  C   UNK N   1      27.548  13.498   3.138  0.00  0.00     0.000 A 
HETATM   16  C   UNK N   1      27.599  14.699   2.426  0.00  0.00     0.001 A 
HETATM   17  C   UNK N   1      28.348  15.770   2.920  0.00  0.00     0.007 A 
ENDBRANCH  11  12
ENDBRANCH  10  11
ENDBRANCH   7  10
ENDBRANCH   5   6
ENDBRANCH   4   5
ENDBRANCH   2   4
BRANCH   2  18
HETATM   18  O   UNK N   1      24.192  21.125   3.432  0.00  0.00    -0.328 OA
HETATM   19  H   UNK N   1      24.326  22.049   3.173  0.00  0.00     0.220 HD
ENDBRANCH   2  18
ENDBRANCH   1   2
BRANCH   1  20
HETATM   20  C   UNK N   1      25.046  17.171   3.947  0.00  0.00     0.075 C 
BRANCH  20  21
HETATM   21  C   UNK N   1      25.096  15.994   4.869  0.00  0.00    -0.056 A 
HETATM   22  C   UNK N   1      24.427  14.817   4.512  0.00  0.00     0.007 A 
HETATM   23  C   UNK N   1      24.502  13.691   5.337  0.00  0.00     0.001 A 
HETATM   24  C   UNK N   1      25.240  13.743   6.522  0.00  0.00     0.000 A 
HETATM   25  C   UNK N   1      25.900  14.921   6.885  0.00  0.00     0.001 A 
HETATM   26  C   UNK N   1      25.832  16.046   6.058  0.00  0.00     0.007 A 
ENDBRANCH  20  21
ENDBRANCH   1  20
BRANCH   1  27
HETATM   27  N   UNK N   1      22.910  18.305   4.039  0.00  0.00    -0.345 N 
HETATM   28  C   UNK N   1      21.761  18.002   4.700  0.00  0.00     0.218 C 
HETATM   29  O   UNK N   1      21.756  17.773   5.897  0.00  0.00    -0.274 OA
HETATM   30  H   UNK N   1      22.791  18.505   3.083  0.00  0.00     0.163 HD
BRANCH  28  31
HETATM   31  C   UNK N   1      20.475  17.956   3.918  0.00  0.00     0.103 C 
BRANCH  31  32
HETATM   32  C   UNK N   1      20.658  18.235   2.431  0.00  0.00     0.019 C 
BRANCH  32  33
HETATM   33  C   UNK N   1      20.047  19.572   2.045  0.00  0.00     0.110 C 
BRANCH  33  34
HETATM   34  C   UNK N   1      21.040  20.374   1.270  0.00  0.00     0.139 C 
HETATM   35  O   UNK N   1      22.119  20.657   1.765  0.00  0.00    -0.650 OA
BRANCH  34  36
HETATM   36  O   UNK N   1      20.741  20.796   0.027  0.00  0.00    -0.776 OA
HETATM   37  H   UNK N   1      20.070  20.368  -0.468  0.00  0.00     0.167 HD
ENDBRANCH  34  36
ENDBRANCH  33  34
ENDBRANCH  32  33
ENDBRANCH  31  32
ENDBRANCH  28  31
ENDBRANCH   1  27
TORSDOF 16
ENDMDL
