REMARK  16 active torsions:
REMARK  status: ('A' for Active; 'I' for Inactive)
REMARK    1  A    between atoms: C_1  and  C_7 
REMARK    2  A    between atoms: C_7  and  C_8 
REMARK    3  A    between atoms: C_8  and  N_9 
REMARK       I    between atoms: N_9  and  C_10 
REMARK    4  A    between atoms: C_10  and  C_12 
REMARK    5  A    between atoms: C_12  and  O_13 
REMARK    6  A    between atoms: P_14  and  O_13 
REMARK    7  A    between atoms: P_14  and  O_16 
REMARK    8  A    between atoms: P_14  and  C_17 
REMARK    9  A    between atoms: C_17  and  C_18 
REMARK   10  A    between atoms: C_17  and  N_25 
REMARK   11  A    between atoms: C_18  and  C_19 
REMARK       I    between atoms: N_25  and  C_26 
REMARK   12  A    between atoms: C_26  and  C_28 
REMARK   13  A    between atoms: C_28  and  C_29 
REMARK   14  A    between atoms: C_29  and  C_30 
REMARK   15  A    between atoms: C_30  and  C_31 
REMARK   16  A    between atoms: C_31  and  O_32 
ROOT
HETATM    1  C   UNK N   1       1.452   3.092   0.130  0.00  0.00     0.200 C 
ENDROOT
BRANCH   1   2
HETATM    2  P   UNK N   1      -0.024   2.077   0.735  0.00  0.00     0.262 P 
HETATM    3  O   UNK N   1       0.313   0.922   1.718  0.00  0.00    -0.652 OA
BRANCH   2   4
HETATM    4  O   UNK N   1      -1.164   1.496  -0.456  0.00  0.00    -0.308 OA
BRANCH   4   5
HETATM    5  C   UNK N   1      -0.736   0.259  -0.932  0.00  0.00     0.281 C 
BRANCH   5   6
HETATM    6  C   UNK N   1      -1.341  -0.829  -0.114  0.00  0.00     0.241 C 
HETATM    7  N   UNK N   1      -0.548  -1.812   0.369  0.00  0.00    -0.359 N 
HETATM    8  H   UNK N   1       0.415  -1.790   0.168  0.00  0.00     0.162 HD
HETATM    9  O   UNK N   1      -2.543  -0.824   0.112  0.00  0.00    -0.271 OA
BRANCH   7  10
HETATM   10  C   UNK N   1      -1.068  -2.890   1.170  0.00  0.00     0.127 C 
BRANCH  10  11
HETATM   11  C   UNK N   1      -1.208  -4.129   0.303  0.00  0.00     0.058 C 
BRANCH  11  12
HETATM   12  C   UNK N   1      -2.648  -4.440   0.057  0.00  0.00    -0.057 A 
HETATM   13  C   UNK N   1      -3.164  -5.677   0.451  0.00  0.00     0.007 A 
HETATM   14  C   UNK N   1      -4.510  -5.980   0.225  0.00  0.00     0.001 A 
HETATM   15  C   UNK N   1      -5.344  -5.043  -0.394  0.00  0.00     0.000 A 
HETATM   16  C   UNK N   1      -4.831  -3.806  -0.793  0.00  0.00     0.001 A 
HETATM   17  C   UNK N   1      -3.484  -3.508  -0.574  0.00  0.00     0.007 A 
ENDBRANCH  11  12
ENDBRANCH  10  11
ENDBRANCH   7  10
ENDBRANCH   5   6
ENDBRANCH   4   5
ENDBRANCH   2   4
BRANCH   2  18
HETATM   18  O   UNK N   1      -1.024   3.089   1.730  0.00  0.00    -0.328 OA
HETATM   19  H   UNK N   1      -0.814   3.855   2.285  0.00  0.00     0.220 HD
ENDBRANCH   2  18
ENDBRANCH   1   2
BRANCH   1  20
HETATM   20  C   UNK N   1       0.997   4.043  -0.986  0.00  0.00     0.075 C 
BRANCH  20  21
HETATM   21  C   UNK N   1      -0.223   4.842  -0.654  0.00  0.00    -0.056 A 
HETATM   22  C   UNK N   1      -1.424   4.564  -1.318  0.00  0.00     0.007 A 
HETATM   23  C   UNK N   1      -2.586   5.266  -0.988  0.00  0.00     0.001 A 
HETATM   24  C   UNK N   1      -2.548   6.251   0.002  0.00  0.00     0.000 A 
HETATM   25  C   UNK N   1      -1.347   6.538   0.659  0.00  0.00     0.001 A 
HETATM   26  C   UNK N   1      -0.185   5.831   0.335  0.00  0.00     0.007 A 
ENDBRANCH  20  21
ENDBRANCH   1  20
BRANCH   1  27
HETATM   27  N   UNK N   1       2.629   2.372  -0.351  0.00  0.00    -0.345 N 
HETATM   28  C   UNK N   1       2.863   1.040  -0.486  0.00  0.00     0.218 C 
HETATM   29  O   UNK N   1       2.007   0.213  -0.224  0.00  0.00    -0.274 OA
HETATM   30  H   UNK N   1       3.379   2.949  -0.623  0.00  0.00     0.163 HD
BRANCH  28  31
HETATM   31  C   UNK N   1       4.216   0.595  -0.973  0.00  0.00     0.103 C 
BRANCH  31  32
HETATM   32  C   UNK N   1       4.330  -0.914  -1.153  0.00  0.00     0.019 C 
BRANCH  32  33
HETATM   33  C   UNK N   1       4.568  -1.609   0.178  0.00  0.00     0.110 C 
BRANCH  33  34
HETATM   34  C   UNK N   1       4.082  -3.019   0.104  0.00  0.00     0.139 C 
HETATM   35  O   UNK N   1       2.893  -3.249  -0.046  0.00  0.00    -0.650 OA
BRANCH  34  36
HETATM   36  O   UNK N   1       4.954  -4.038   0.213  0.00  0.00    -0.776 OA
HETATM   37  H   UNK N   1       4.643  -4.919   0.289  0.00  0.00     0.167 HD
ENDBRANCH  34  36
ENDBRANCH  33  34
ENDBRANCH  32  33
ENDBRANCH  31  32
ENDBRANCH  28  31
ENDBRANCH   1  27
TORSDOF 16
