REMARK  9 active torsions:
REMARK  status: ('A' for Active; 'I' for Inactive)
REMARK    1  A    between atoms: C_2  and  O_3 
REMARK    2  A    between atoms: C_2  and  C_6 
REMARK    3  A    between atoms: C_4  and  C_5 
REMARK    4  A    between atoms: C_4  and  C_7 
REMARK    5  A    between atoms: C_5  and  C_6 
REMARK       I    between atoms: C_7  and  N_9 
REMARK    6  A    between atoms: N_9  and  C_13 
REMARK    7  A    between atoms: C_10  and  N_16 
REMARK       I    between atoms: N_16  and  C_17 
REMARK    8  A    between atoms: C_17  and  C_26 
REMARK    9  A    between atoms: N_27  and  C_26 
ROOT
HETATM    1  N   UNK N   1       0.060   0.556  -1.353  0.00  0.00    -0.325 N 
HETATM    2  C   UNK N   1       1.211  -0.011  -1.792  0.00  0.00     0.256 C 
HETATM    3  O   UNK N   1       1.650   0.327  -2.880  0.00  0.00    -0.271 OA
HETATM    4  H   UNK N   1      -0.207   1.406  -1.772  0.00  0.00     0.169 HD
ENDROOT
BRANCH   1   5
HETATM    5  C   UNK N   1      -0.794   0.041  -0.348  0.00  0.00     0.034 A 
HETATM    6  C   UNK N   1      -0.539  -1.205   0.243  0.00  0.00     0.032 A 
HETATM    7  C   UNK N   1      -1.578  -1.957   0.779  0.00  0.00     0.032 A 
HETATM    8  C   UNK N   1      -2.885  -1.475   0.715  0.00  0.00     0.034 A 
HETATM    9  C   UNK N   1      -3.118  -0.179   0.229  0.00  0.00     0.032 A 
HETATM   10  C   UNK N   1      -2.077   0.575  -0.293  0.00  0.00     0.032 A 
BRANCH   8  11
HETATM   11  N   UNK N   1      -3.943  -2.417   0.845  0.00  0.00    -0.327 N 
HETATM   12  C   UNK N   1      -5.250  -2.143   0.592  0.00  0.00     0.222 C 
HETATM   13  O   UNK N   1      -5.634  -0.999   0.447  0.00  0.00    -0.273 OA
HETATM   14  H   UNK N   1      -3.713  -3.329   1.138  0.00  0.00     0.169 HD
BRANCH  12  15
HETATM   15  C   UNK N   1      -6.185  -3.286   0.342  0.00  0.00     0.103 C 
BRANCH  15  16
HETATM   16  C   UNK N   1      -7.574  -3.019   0.888  0.00  0.00     0.019 C 
BRANCH  16  17
HETATM   17  C   UNK N   1      -8.543  -2.682  -0.238  0.00  0.00     0.110 C 
BRANCH  17  18
HETATM   18  C   UNK N   1      -8.737  -1.204  -0.384  0.00  0.00     0.139 C 
HETATM   19  O   UNK N   1      -9.794  -0.699  -0.047  0.00  0.00    -0.650 OA
BRANCH  18  20
HETATM   20  O   UNK N   1      -7.777  -0.436  -0.930  0.00  0.00    -0.776 OA
HETATM   21  H   UNK N   1      -6.979  -0.748  -1.311  0.00  0.00     0.167 HD
ENDBRANCH  18  20
ENDBRANCH  17  18
ENDBRANCH  16  17
ENDBRANCH  15  16
ENDBRANCH  12  15
ENDBRANCH   8  11
ENDBRANCH   1   5
BRANCH   2  22
HETATM   22  C   UNK N   1       1.985  -1.021  -0.990  0.00  0.00     0.415 C 
BRANCH  22  23
HETATM   23  N   UNK N   1       3.071  -0.452  -0.161  0.00  0.00     0.027 N 
HETATM   24  C   UNK N   1       3.881  -1.639   0.185  0.00  0.00     0.313 C 
HETATM   25  C   UNK N   1       5.388  -1.470  -0.001  0.00  0.00     0.037 C 
HETATM   26  C   UNK N   1       5.789  -0.163   0.642  0.00  0.00     0.017 C 
HETATM   27  C   UNK N   1       5.179   1.039  -0.084  0.00  0.00     0.022 C 
HETATM   28  C   UNK N   1       6.207   1.509  -1.115  0.00  0.00     0.020 C 
HETATM   29  C   UNK N   1       3.865   0.634  -0.841  0.00  0.00     0.266 C 
HETATM   30  C   UNK N   1       5.004   2.159   0.981  0.00  0.00     0.167 A 
HETATM   31  C   UNK N   1       3.068   1.921  -1.155  0.00  0.00     0.046 C 
HETATM   32  C   UNK N   1       2.576   2.626   0.102  0.00  0.00     0.043 C 
HETATM   33  C   UNK N   1       3.734   2.951   1.031  0.00  0.00     0.085 A 
HETATM   34  C   UNK N   1       3.483   3.815   2.250  0.00  0.00     0.049 C 
HETATM   35  O   UNK N   1       4.835   3.410   0.318  0.00  0.00    -0.369 OA
HETATM   36  O   UNK N   1       2.530  -0.001   0.998  0.00  0.00    -0.064 OA
ENDBRANCH  22  23
ENDBRANCH   2  22
TORSDOF 9
