MODEL 1
REMARK VINA RESULT:      -7.4      0.000      0.000
REMARK  9 active torsions:
REMARK  status: ('A' for Active; 'I' for Inactive)
REMARK    1  A    between atoms: C_2  and  O_3 
REMARK    2  A    between atoms: C_2  and  C_6 
REMARK    3  A    between atoms: C_4  and  C_5 
REMARK    4  A    between atoms: C_4  and  C_7 
REMARK    5  A    between atoms: C_5  and  C_6 
REMARK       I    between atoms: C_7  and  N_9 
REMARK    6  A    between atoms: N_9  and  C_13 
REMARK    7  A    between atoms: C_10  and  N_16 
REMARK       I    between atoms: N_16  and  C_17 
REMARK    8  A    between atoms: C_17  and  C_26 
REMARK    9  A    between atoms: N_27  and  C_26 
ROOT
HETATM    1  N   UNK N   1      29.775  15.837   5.796  0.00  0.00    -0.325 N 
HETATM    2  C   UNK N   1      29.067  16.074   4.664  0.00  0.00     0.256 C 
HETATM    3  O   UNK N   1      28.623  15.121   4.044  0.00  0.00    -0.271 OA
HETATM    4  H   UNK N   1      29.652  14.959   6.224  0.00  0.00     0.169 HD
ENDROOT
BRANCH   1   5
HETATM    5  C   UNK N   1      30.675  16.734   6.422  0.00  0.00     0.034 A 
HETATM    6  C   UNK N   1      32.002  16.843   5.983  0.00  0.00     0.032 A 
HETATM    7  C   UNK N   1      33.002  17.252   6.857  0.00  0.00     0.032 A 
HETATM    8  C   UNK N   1      32.685  17.541   8.184  0.00  0.00     0.034 A 
HETATM    9  C   UNK N   1      31.341  17.543   8.586  0.00  0.00     0.032 A 
HETATM   10  C   UNK N   1      30.343  17.147   7.707  0.00  0.00     0.032 A 
BRANCH   8  11
HETATM   11  N   UNK N   1      33.742  17.512   9.136  0.00  0.00    -0.327 N 
HETATM   12  C   UNK N   1      34.262  16.376   9.671  0.00  0.00     0.222 C 
HETATM   13  O   UNK N   1      33.703  15.305   9.533  0.00  0.00    -0.273 OA
HETATM   14  H   UNK N   1      34.122  18.373   9.428  0.00  0.00     0.169 HD
BRANCH  12  15
HETATM   15  C   UNK N   1      35.617  16.438  10.304  0.00  0.00     0.103 C 
BRANCH  15  16
HETATM   16  C   UNK N   1      35.569  16.146  11.791  0.00  0.00     0.019 C 
BRANCH  16  17
HETATM   17  C   UNK N   1      36.148  14.770  12.091  0.00  0.00     0.110 C 
BRANCH  17  18
HETATM   18  C   UNK N   1      35.105  13.823  12.602  0.00  0.00     0.139 C 
HETATM   19  O   UNK N   1      35.089  13.526  13.784  0.00  0.00    -0.650 OA
BRANCH  18  20
HETATM   20  O   UNK N   1      34.219  13.260  11.762  0.00  0.00    -0.776 OA
HETATM   21  H   UNK N   1      33.518  12.689  12.010  0.00  0.00     0.167 HD
ENDBRANCH  18  20
ENDBRANCH  17  18
ENDBRANCH  16  17
ENDBRANCH  15  16
ENDBRANCH  12  15
ENDBRANCH   8  11
ENDBRANCH   1   5
BRANCH   2  22
HETATM   22  C   UNK N   1      28.784  17.459   4.150  0.00  0.00     0.415 C 
BRANCH  22  23
HETATM   23  N   UNK N   1      27.585  18.102   4.732  0.00  0.00     0.027 N 
HETATM   24  C   UNK N   1      28.137  19.316   5.369  0.00  0.00     0.313 C 
HETATM   25  C   UNK N   1      27.370  20.605   5.078  0.00  0.00     0.037 C 
HETATM   26  C   UNK N   1      25.901  20.329   5.299  0.00  0.00     0.017 C 
HETATM   27  C   UNK N   1      25.352  19.322   4.285  0.00  0.00     0.022 C 
HETATM   28  C   UNK N   1      24.778  20.128   3.118  0.00  0.00     0.020 C 
HETATM   29  C   UNK N   1      26.494  18.396   3.734  0.00  0.00     0.266 C 
HETATM   30  C   UNK N   1      24.184  18.575   4.988  0.00  0.00     0.167 A 
HETATM   31  C   UNK N   1      25.843  17.147   3.097  0.00  0.00     0.046 C 
HETATM   32  C   UNK N   1      25.116  16.281   4.118  0.00  0.00     0.043 C 
HETATM   33  C   UNK N   1      24.064  17.087   4.863  0.00  0.00     0.085 A 
HETATM   34  C   UNK N   1      23.105  16.371   5.791  0.00  0.00     0.049 C 
HETATM   35  O   UNK N   1      23.378  17.934   4.001  0.00  0.00    -0.369 OA
HETATM   36  O   UNK N   1      27.123  17.314   5.734  0.00  0.00    -0.064 OA
ENDBRANCH  22  23
ENDBRANCH   2  22
TORSDOF 9
ENDMDL
MODEL 2
REMARK VINA RESULT:      -7.2      2.138     10.639
REMARK  9 active torsions:
REMARK  status: ('A' for Active; 'I' for Inactive)
REMARK    1  A    between atoms: C_2  and  O_3 
REMARK    2  A    between atoms: C_2  and  C_6 
REMARK    3  A    between atoms: C_4  and  C_5 
REMARK    4  A    between atoms: C_4  and  C_7 
REMARK    5  A    between atoms: C_5  and  C_6 
REMARK       I    between atoms: C_7  and  N_9 
REMARK    6  A    between atoms: N_9  and  C_13 
REMARK    7  A    between atoms: C_10  and  N_16 
REMARK       I    between atoms: N_16  and  C_17 
REMARK    8  A    between atoms: C_17  and  C_26 
REMARK    9  A    between atoms: N_27  and  C_26 
ROOT
HETATM    1  N   UNK N   1      33.248  17.302   9.121  0.00  0.00    -0.325 N 
HETATM    2  C   UNK N   1      34.499  16.799   9.262  0.00  0.00     0.256 C 
HETATM    3  O   UNK N   1      35.315  17.437   9.908  0.00  0.00    -0.271 OA
HETATM    4  H   UNK N   1      32.966  17.986   9.770  0.00  0.00     0.169 HD
ENDROOT
BRANCH   1   5
HETATM    5  C   UNK N   1      32.308  16.937   8.127  0.00  0.00     0.034 A 
HETATM    6  C   UNK N   1      32.632  17.022   6.765  0.00  0.00     0.032 A 
HETATM    7  C   UNK N   1      31.636  17.209   5.813  0.00  0.00     0.032 A 
HETATM    8  C   UNK N   1      30.307  17.327   6.218  0.00  0.00     0.034 A 
HETATM    9  C   UNK N   1      29.977  17.124   7.567  0.00  0.00     0.032 A 
HETATM   10  C   UNK N   1      30.972  16.924   8.513  0.00  0.00     0.032 A 
BRANCH   8  11
HETATM   11  N   UNK N   1      29.397  17.951   5.320  0.00  0.00    -0.327 N 
HETATM   12  C   UNK N   1      28.499  17.283   4.549  0.00  0.00     0.222 C 
HETATM   13  O   UNK N   1      28.566  16.077   4.412  0.00  0.00    -0.273 OA
HETATM   14  H   UNK N   1      29.418  18.934   5.253  0.00  0.00     0.169 HD
BRANCH  12  15
HETATM   15  C   UNK N   1      27.331  18.038   3.993  0.00  0.00     0.103 C 
BRANCH  15  16
HETATM   16  C   UNK N   1      27.473  19.535   4.187  0.00  0.00     0.019 C 
BRANCH  16  17
HETATM   17  C   UNK N   1      26.373  20.070   5.094  0.00  0.00     0.110 C 
BRANCH  17  18
HETATM   18  C   UNK N   1      26.914  20.542   6.409  0.00  0.00     0.139 C 
HETATM   19  O   UNK N   1      27.727  19.857   7.006  0.00  0.00    -0.650 OA
BRANCH  18  20
HETATM   20  O   UNK N   1      26.474  21.687   6.961  0.00  0.00    -0.776 OA
HETATM   21  H   UNK N   1      25.584  21.878   7.185  0.00  0.00     0.167 HD
ENDBRANCH  18  20
ENDBRANCH  17  18
ENDBRANCH  16  17
ENDBRANCH  15  16
ENDBRANCH  12  15
ENDBRANCH   8  11
ENDBRANCH   1   5
BRANCH   2  22
HETATM   22  C   UNK N   1      34.922  15.479   8.679  0.00  0.00     0.415 C 
BRANCH  22  23
HETATM   23  N   UNK N   1      34.625  14.303   9.528  0.00  0.00     0.027 N 
HETATM   24  C   UNK N   1      33.640  13.552   8.722  0.00  0.00     0.313 C 
HETATM   25  C   UNK N   1      33.911  12.053   8.601  0.00  0.00     0.037 C 
HETATM   26  C   UNK N   1      34.201  11.524   9.986  0.00  0.00     0.017 C 
HETATM   27  C   UNK N   1      35.500  12.101  10.555  0.00  0.00     0.022 C 
HETATM   28  C   UNK N   1      36.619  11.117  10.207  0.00  0.00     0.020 C 
HETATM   29  C   UNK N   1      35.836  13.487   9.901  0.00  0.00     0.266 C 
HETATM   30  C   UNK N   1      35.334  12.128  12.102  0.00  0.00     0.167 A 
HETATM   31  C   UNK N   1      36.857  14.217  10.804  0.00  0.00     0.046 C 
HETATM   32  C   UNK N   1      36.282  14.574  12.168  0.00  0.00     0.043 C 
HETATM   33  C   UNK N   1      35.758  13.337  12.878  0.00  0.00     0.085 A 
HETATM   34  C   UNK N   1      35.313  13.446  14.322  0.00  0.00     0.049 C 
HETATM   35  O   UNK N   1      36.618  12.259  12.706  0.00  0.00    -0.369 OA
HETATM   36  O   UNK N   1      33.972  14.733  10.636  0.00  0.00    -0.064 OA
ENDBRANCH  22  23
ENDBRANCH   2  22
TORSDOF 9
ENDMDL
MODEL 3
REMARK VINA RESULT:      -7.1      3.722      6.000
REMARK  9 active torsions:
REMARK  status: ('A' for Active; 'I' for Inactive)
REMARK    1  A    between atoms: C_2  and  O_3 
REMARK    2  A    between atoms: C_2  and  C_6 
REMARK    3  A    between atoms: C_4  and  C_5 
REMARK    4  A    between atoms: C_4  and  C_7 
REMARK    5  A    between atoms: C_5  and  C_6 
REMARK       I    between atoms: C_7  and  N_9 
REMARK    6  A    between atoms: N_9  and  C_13 
REMARK    7  A    between atoms: C_10  and  N_16 
REMARK       I    between atoms: N_16  and  C_17 
REMARK    8  A    between atoms: C_17  and  C_26 
REMARK    9  A    between atoms: N_27  and  C_26 
ROOT
HETATM    1  N   UNK N   1      25.199  19.446   2.984  0.00  0.00    -0.325 N 
HETATM    2  C   UNK N   1      24.066  19.470   3.728  0.00  0.00     0.256 C 
HETATM    3  O   UNK N   1      23.142  20.179   3.360  0.00  0.00    -0.271 OA
HETATM    4  H   UNK N   1      25.127  19.752   2.051  0.00  0.00     0.169 HD
ENDROOT
BRANCH   1   5
HETATM    5  C   UNK N   1      26.477  19.021   3.422  0.00  0.00     0.034 A 
HETATM    6  C   UNK N   1      26.821  17.662   3.422  0.00  0.00     0.032 A 
HETATM    7  C   UNK N   1      27.775  17.176   4.310  0.00  0.00     0.032 A 
HETATM    8  C   UNK N   1      28.381  18.045   5.216  0.00  0.00     0.034 A 
HETATM    9  C   UNK N   1      28.118  19.421   5.133  0.00  0.00     0.032 A 
HETATM   10  C   UNK N   1      27.176  19.905   4.237  0.00  0.00     0.032 A 
BRANCH   8  11
HETATM   11  N   UNK N   1      28.985  17.476   6.372  0.00  0.00    -0.327 N 
HETATM   12  C   UNK N   1      30.322  17.291   6.528  0.00  0.00     0.222 C 
HETATM   13  O   UNK N   1      31.084  17.400   5.587  0.00  0.00    -0.273 OA
HETATM   14  H   UNK N   1      28.394  17.198   7.110  0.00  0.00     0.169 HD
BRANCH  12  15
HETATM   15  C   UNK N   1      30.862  17.102   7.912  0.00  0.00     0.103 C 
BRANCH  15  16
HETATM   16  C   UNK N   1      30.593  18.301   8.800  0.00  0.00     0.019 C 
BRANCH  16  17
HETATM   17  C   UNK N   1      29.622  17.940   9.917  0.00  0.00     0.110 C 
BRANCH  17  18
HETATM   18  C   UNK N   1      28.206  17.893   9.432  0.00  0.00     0.139 C 
HETATM   19  O   UNK N   1      27.531  16.900   9.640  0.00  0.00    -0.650 OA
BRANCH  18  20
HETATM   20  O   UNK N   1      27.687  18.915   8.727  0.00  0.00    -0.776 OA
HETATM   21  H   UNK N   1      26.858  18.910   8.289  0.00  0.00     0.167 HD
ENDBRANCH  18  20
ENDBRANCH  17  18
ENDBRANCH  16  17
ENDBRANCH  15  16
ENDBRANCH  12  15
ENDBRANCH   8  11
ENDBRANCH   1   5
BRANCH   2  22
HETATM   22  C   UNK N   1      23.885  18.647   4.973  0.00  0.00     0.415 C 
BRANCH  22  23
HETATM   23  N   UNK N   1      23.345  17.288   4.744  0.00  0.00     0.027 N 
HETATM   24  C   UNK N   1      24.296  16.425   5.476  0.00  0.00     0.313 C 
HETATM   25  C   UNK N   1      23.653  15.368   6.371  0.00  0.00     0.037 C 
HETATM   26  C   UNK N   1      22.583  14.669   5.565  0.00  0.00     0.017 C 
HETATM   27  C   UNK N   1      21.433  15.614   5.206  0.00  0.00     0.022 C 
HETATM   28  C   UNK N   1      20.371  15.462   6.296  0.00  0.00     0.020 C 
HETATM   29  C   UNK N   1      21.915  17.107   5.185  0.00  0.00     0.266 C 
HETATM   30  C   UNK N   1      20.837  15.098   3.865  0.00  0.00     0.167 A 
HETATM   31  C   UNK N   1      20.881  17.941   4.394  0.00  0.00     0.046 C 
HETATM   32  C   UNK N   1      20.813  17.548   2.925  0.00  0.00     0.043 C 
HETATM   33  C   UNK N   1      20.505  16.067   2.773  0.00  0.00     0.085 A 
HETATM   34  C   UNK N   1      20.213  15.511   1.394  0.00  0.00     0.049 C 
HETATM   35  O   UNK N   1      19.539  15.660   3.685  0.00  0.00    -0.369 OA
HETATM   36  O   UNK N   1      23.485  16.991   3.428  0.00  0.00    -0.064 OA
ENDBRANCH  22  23
ENDBRANCH   2  22
TORSDOF 9
ENDMDL
MODEL 4
REMARK VINA RESULT:      -7.0      2.904      5.395
REMARK  9 active torsions:
REMARK  status: ('A' for Active; 'I' for Inactive)
REMARK    1  A    between atoms: C_2  and  O_3 
REMARK    2  A    between atoms: C_2  and  C_6 
REMARK    3  A    between atoms: C_4  and  C_5 
REMARK    4  A    between atoms: C_4  and  C_7 
REMARK    5  A    between atoms: C_5  and  C_6 
REMARK       I    between atoms: C_7  and  N_9 
REMARK    6  A    between atoms: N_9  and  C_13 
REMARK    7  A    between atoms: C_10  and  N_16 
REMARK       I    between atoms: N_16  and  C_17 
REMARK    8  A    between atoms: C_17  and  C_26 
REMARK    9  A    between atoms: N_27  and  C_26 
ROOT
HETATM    1  N   UNK N   1      34.677  16.090   7.450  0.00  0.00    -0.325 N 
HETATM    2  C   UNK N   1      34.008  17.030   6.739  0.00  0.00     0.256 C 
HETATM    3  O   UNK N   1      34.466  17.385   5.664  0.00  0.00    -0.271 OA
HETATM    4  H   UNK N   1      35.318  15.529   6.957  0.00  0.00     0.169 HD
ENDROOT
BRANCH   1   5
HETATM    5  C   UNK N   1      34.539  15.837   8.837  0.00  0.00     0.034 A 
HETATM    6  C   UNK N   1      34.935  16.792   9.784  0.00  0.00     0.032 A 
HETATM    7  C   UNK N   1      35.325  16.401  11.060  0.00  0.00     0.032 A 
HETATM    8  C   UNK N   1      35.337  15.047  11.394  0.00  0.00     0.034 A 
HETATM    9  C   UNK N   1      34.829  14.108  10.482  0.00  0.00     0.032 A 
HETATM   10  C   UNK N   1      34.427  14.503   9.215  0.00  0.00     0.032 A 
BRANCH   8  11
HETATM   11  N   UNK N   1      36.141  14.646  12.497  0.00  0.00    -0.327 N 
HETATM   12  C   UNK N   1      35.761  13.737  13.433  0.00  0.00     0.222 C 
HETATM   13  O   UNK N   1      34.607  13.365  13.514  0.00  0.00    -0.273 OA
HETATM   14  H   UNK N   1      37.033  15.054  12.588  0.00  0.00     0.169 HD
BRANCH  12  15
HETATM   15  C   UNK N   1      36.820  13.085  14.268  0.00  0.00     0.103 C 
BRANCH  15  16
HETATM   16  C   UNK N   1      36.333  12.775  15.670  0.00  0.00     0.019 C 
BRANCH  16  17
HETATM   17  C   UNK N   1      36.288  14.039  16.519  0.00  0.00     0.110 C 
BRANCH  17  18
HETATM   18  C   UNK N   1      35.449  13.857  17.747  0.00  0.00     0.139 C 
HETATM   19  O   UNK N   1      34.896  12.789  17.945  0.00  0.00    -0.650 OA
BRANCH  18  20
HETATM   20  O   UNK N   1      35.257  14.875  18.605  0.00  0.00    -0.776 OA
HETATM   21  H   UNK N   1      35.017  15.750  18.369  0.00  0.00     0.167 HD
ENDBRANCH  18  20
ENDBRANCH  17  18
ENDBRANCH  16  17
ENDBRANCH  15  16
ENDBRANCH  12  15
ENDBRANCH   8  11
ENDBRANCH   1   5
BRANCH   2  22
HETATM   22  C   UNK N   1      32.713  17.642   7.201  0.00  0.00     0.415 C 
BRANCH  22  23
HETATM   23  N   UNK N   1      31.497  16.935   6.742  0.00  0.00     0.027 N 
HETATM   24  C   UNK N   1      30.659  16.892   7.960  0.00  0.00     0.313 C 
HETATM   25  C   UNK N   1      29.201  17.301   7.756  0.00  0.00     0.037 C 
HETATM   26  C   UNK N   1      28.679  16.563   6.546  0.00  0.00     0.017 C 
HETATM   27  C   UNK N   1      29.382  17.008   5.261  0.00  0.00     0.022 C 
HETATM   28  C   UNK N   1      28.531  18.123   4.648  0.00  0.00     0.020 C 
HETATM   29  C   UNK N   1      30.809  17.584   5.568  0.00  0.00     0.266 C 
HETATM   30  C   UNK N   1      29.361  15.788   4.297  0.00  0.00     0.167 A 
HETATM   31  C   UNK N   1      31.627  17.585   4.256  0.00  0.00     0.046 C 
HETATM   32  C   UNK N   1      31.893  16.180   3.732  0.00  0.00     0.043 C 
HETATM   33  C   UNK N   1      30.593  15.421   3.528  0.00  0.00     0.085 A 
HETATM   34  C   UNK N   1      30.625  14.072   2.840  0.00  0.00     0.049 C 
HETATM   35  O   UNK N   1      29.618  16.238   2.969  0.00  0.00    -0.369 OA
HETATM   36  O   UNK N   1      31.831  15.652   6.457  0.00  0.00    -0.064 OA
ENDBRANCH  22  23
ENDBRANCH   2  22
TORSDOF 9
ENDMDL
MODEL 5
REMARK VINA RESULT:      -7.0      4.450     11.840
REMARK  9 active torsions:
REMARK  status: ('A' for Active; 'I' for Inactive)
REMARK    1  A    between atoms: C_2  and  O_3 
REMARK    2  A    between atoms: C_2  and  C_6 
REMARK    3  A    between atoms: C_4  and  C_5 
REMARK    4  A    between atoms: C_4  and  C_7 
REMARK    5  A    between atoms: C_5  and  C_6 
REMARK       I    between atoms: C_7  and  N_9 
REMARK    6  A    between atoms: N_9  and  C_13 
REMARK    7  A    between atoms: C_10  and  N_16 
REMARK       I    between atoms: N_16  and  C_17 
REMARK    8  A    between atoms: C_17  and  C_26 
REMARK    9  A    between atoms: N_27  and  C_26 
ROOT
HETATM    1  N   UNK N   1      35.708  11.648   9.611  0.00  0.00    -0.325 N 
HETATM    2  C   UNK N   1      35.288  11.171  10.809  0.00  0.00     0.256 C 
HETATM    3  O   UNK N   1      35.384   9.973  11.027  0.00  0.00    -0.271 OA
HETATM    4  H   UNK N   1      36.329  11.081   9.098  0.00  0.00     0.169 HD
ENDROOT
BRANCH   1   5
HETATM    5  C   UNK N   1      35.338  12.884   9.029  0.00  0.00     0.034 A 
HETATM    6  C   UNK N   1      35.966  14.077   9.414  0.00  0.00     0.032 A 
HETATM    7  C   UNK N   1      35.301  15.292   9.303  0.00  0.00     0.032 A 
HETATM    8  C   UNK N   1      33.993  15.323   8.819  0.00  0.00     0.034 A 
HETATM    9  C   UNK N   1      33.413  14.143   8.327  0.00  0.00     0.032 A 
HETATM   10  C   UNK N   1      34.085  12.933   8.426  0.00  0.00     0.032 A 
BRANCH   8  11
HETATM   11  N   UNK N   1      33.200  16.461   9.131  0.00  0.00    -0.327 N 
HETATM   12  C   UNK N   1      33.005  17.514   8.294  0.00  0.00     0.222 C 
HETATM   13  O   UNK N   1      33.683  17.654   7.295  0.00  0.00    -0.273 OA
HETATM   14  H   UNK N   1      32.763  16.489  10.014  0.00  0.00     0.169 HD
BRANCH  12  15
HETATM   15  C   UNK N   1      31.837  18.419   8.542  0.00  0.00     0.103 C 
BRANCH  15  16
HETATM   16  C   UNK N   1      30.535  17.652   8.660  0.00  0.00     0.019 C 
BRANCH  16  17
HETATM   17  C   UNK N   1      29.589  18.337   9.638  0.00  0.00     0.110 C 
BRANCH  17  18
HETATM   18  C   UNK N   1      28.154  18.129   9.265  0.00  0.00     0.139 C 
HETATM   19  O   UNK N   1      27.602  17.081   9.555  0.00  0.00    -0.650 OA
BRANCH  18  20
HETATM   20  O   UNK N   1      27.482  19.065   8.570  0.00  0.00    -0.776 OA
HETATM   21  H   UNK N   1      26.567  19.253   8.651  0.00  0.00     0.167 HD
ENDBRANCH  18  20
ENDBRANCH  17  18
ENDBRANCH  16  17
ENDBRANCH  15  16
ENDBRANCH  12  15
ENDBRANCH   8  11
ENDBRANCH   1   5
BRANCH   2  22
HETATM   22  C   UNK N   1      34.731  12.053  11.893  0.00  0.00     0.415 C 
BRANCH  22  23
HETATM   23  N   UNK N   1      35.559  12.127  13.117  0.00  0.00     0.027 N 
HETATM   24  C   UNK N   1      36.369  13.344  12.897  0.00  0.00     0.313 C 
HETATM   25  C   UNK N   1      36.432  14.302  14.085  0.00  0.00     0.037 C 
HETATM   26  C   UNK N   1      36.750  13.489  15.318  0.00  0.00     0.017 C 
HETATM   27  C   UNK N   1      35.616  12.522  15.670  0.00  0.00     0.022 C 
HETATM   28  C   UNK N   1      34.709  13.240  16.671  0.00  0.00     0.020 C 
HETATM   29  C   UNK N   1      34.767  12.162  14.399  0.00  0.00     0.266 C 
HETATM   30  C   UNK N   1      36.273  11.307  16.385  0.00  0.00     0.167 A 
HETATM   31  C   UNK N   1      33.961  10.877  14.700  0.00  0.00     0.046 C 
HETATM   32  C   UNK N   1      34.855   9.663  14.912  0.00  0.00     0.043 C 
HETATM   33  C   UNK N   1      35.859   9.914  16.025  0.00  0.00     0.085 A 
HETATM   34  C   UNK N   1      36.718   8.768  16.518  0.00  0.00     0.049 C 
HETATM   35  O   UNK N   1      35.268  10.583  17.091  0.00  0.00    -0.369 OA
HETATM   36  O   UNK N   1      36.422  11.081  13.112  0.00  0.00    -0.064 OA
ENDBRANCH  22  23
ENDBRANCH   2  22
TORSDOF 9
ENDMDL
MODEL 6
REMARK VINA RESULT:      -6.9      2.932     10.832
REMARK  9 active torsions:
REMARK  status: ('A' for Active; 'I' for Inactive)
REMARK    1  A    between atoms: C_2  and  O_3 
REMARK    2  A    between atoms: C_2  and  C_6 
REMARK    3  A    between atoms: C_4  and  C_5 
REMARK    4  A    between atoms: C_4  and  C_7 
REMARK    5  A    between atoms: C_5  and  C_6 
REMARK       I    between atoms: C_7  and  N_9 
REMARK    6  A    between atoms: N_9  and  C_13 
REMARK    7  A    between atoms: C_10  and  N_16 
REMARK       I    between atoms: N_16  and  C_17 
REMARK    8  A    between atoms: C_17  and  C_26 
REMARK    9  A    between atoms: N_27  and  C_26 
ROOT
HETATM    1  N   UNK N   1      28.307  17.980   7.905  0.00  0.00    -0.325 N 
HETATM    2  C   UNK N   1      29.591  17.834   8.314  0.00  0.00     0.256 C 
HETATM    3  O   UNK N   1      29.805  17.597   9.493  0.00  0.00    -0.271 OA
HETATM    4  H   UNK N   1      27.607  17.604   8.487  0.00  0.00     0.169 HD
ENDROOT
BRANCH   1   5
HETATM    5  C   UNK N   1      27.877  18.622   6.718  0.00  0.00     0.034 A 
HETATM    6  C   UNK N   1      27.544  19.984   6.717  0.00  0.00     0.032 A 
HETATM    7  C   UNK N   1      26.640  20.489   5.790  0.00  0.00     0.032 A 
HETATM    8  C   UNK N   1      26.049  19.631   4.863  0.00  0.00     0.034 A 
HETATM    9  C   UNK N   1      26.473  18.294   4.793  0.00  0.00     0.032 A 
HETATM   10  C   UNK N   1      27.386  17.797   5.712  0.00  0.00     0.032 A 
BRANCH   8  11
HETATM   11  N   UNK N   1      24.837  20.054   4.251  0.00  0.00    -0.327 N 
HETATM   12  C   UNK N   1      24.746  20.549   2.988  0.00  0.00     0.222 C 
HETATM   13  O   UNK N   1      25.741  20.870   2.368  0.00  0.00    -0.273 OA
HETATM   14  H   UNK N   1      24.007  19.984   4.777  0.00  0.00     0.169 HD
BRANCH  12  15
HETATM   15  C   UNK N   1      23.409  20.547   2.313  0.00  0.00     0.103 C 
BRANCH  15  16
HETATM   16  C   UNK N   1      22.343  19.876   3.157  0.00  0.00     0.019 C 
BRANCH  16  17
HETATM   17  C   UNK N   1      20.969  20.461   2.859  0.00  0.00     0.110 C 
BRANCH  17  18
HETATM   18  C   UNK N   1      20.742  20.632   1.388  0.00  0.00     0.139 C 
HETATM   19  O   UNK N   1      20.652  21.753   0.919  0.00  0.00    -0.650 OA
BRANCH  18  20
HETATM   20  O   UNK N   1      20.585  19.562   0.588  0.00  0.00    -0.776 OA
HETATM   21  H   UNK N   1      19.918  19.460  -0.063  0.00  0.00     0.167 HD
ENDBRANCH  18  20
ENDBRANCH  17  18
ENDBRANCH  16  17
ENDBRANCH  15  16
ENDBRANCH  12  15
ENDBRANCH   8  11
ENDBRANCH   1   5
BRANCH   2  22
HETATM   22  C   UNK N   1      30.766  17.928   7.379  0.00  0.00     0.415 C 
BRANCH  22  23
HETATM   23  N   UNK N   1      31.444  16.641   7.106  0.00  0.00     0.027 N 
HETATM   24  C   UNK N   1      30.351  15.794   6.585  0.00  0.00     0.313 C 
HETATM   25  C   UNK N   1      30.688  15.013   5.316  0.00  0.00     0.037 C 
HETATM   26  C   UNK N   1      32.026  14.343   5.526  0.00  0.00     0.017 C 
HETATM   27  C   UNK N   1      33.159  15.365   5.656  0.00  0.00     0.022 C 
HETATM   28  C   UNK N   1      33.748  15.561   4.258  0.00  0.00     0.020 C 
HETATM   29  C   UNK N   1      32.617  16.747   6.166  0.00  0.00     0.266 C 
HETATM   30  C   UNK N   1      34.243  14.712   6.560  0.00  0.00     0.167 A 
HETATM   31  C   UNK N   1      33.811  17.568   6.706  0.00  0.00     0.046 C 
HETATM   32  C   UNK N   1      34.446  16.936   7.937  0.00  0.00     0.043 C 
HETATM   33  C   UNK N   1      34.889  15.511   7.649  0.00  0.00     0.085 A 
HETATM   34  C   UNK N   1      35.710  14.769   8.684  0.00  0.00     0.049 C 
HETATM   35  O   UNK N   1      35.474  15.413   6.392  0.00  0.00    -0.369 OA
HETATM   36  O   UNK N   1      31.823  16.100   8.291  0.00  0.00    -0.064 OA
ENDBRANCH  22  23
ENDBRANCH   2  22
TORSDOF 9
ENDMDL
MODEL 7
REMARK VINA RESULT:      -6.9      4.154     11.830
REMARK  9 active torsions:
REMARK  status: ('A' for Active; 'I' for Inactive)
REMARK    1  A    between atoms: C_2  and  O_3 
REMARK    2  A    between atoms: C_2  and  C_6 
REMARK    3  A    between atoms: C_4  and  C_5 
REMARK    4  A    between atoms: C_4  and  C_7 
REMARK    5  A    between atoms: C_5  and  C_6 
REMARK       I    between atoms: C_7  and  N_9 
REMARK    6  A    between atoms: N_9  and  C_13 
REMARK    7  A    between atoms: C_10  and  N_16 
REMARK       I    between atoms: N_16  and  C_17 
REMARK    8  A    between atoms: C_17  and  C_26 
REMARK    9  A    between atoms: N_27  and  C_26 
ROOT
HETATM    1  N   UNK N   1      36.622  14.300  10.125  0.00  0.00    -0.325 N 
HETATM    2  C   UNK N   1      37.268  13.205  10.597  0.00  0.00     0.256 C 
HETATM    3  O   UNK N   1      38.424  13.324  10.970  0.00  0.00    -0.271 OA
HETATM    4  H   UNK N   1      36.993  15.178  10.374  0.00  0.00     0.169 HD
ENDROOT
BRANCH   1   5
HETATM    5  C   UNK N   1      35.465  14.300   9.309  0.00  0.00     0.034 A 
HETATM    6  C   UNK N   1      35.540  13.939   7.956  0.00  0.00     0.032 A 
HETATM    7  C   UNK N   1      34.617  14.435   7.042  0.00  0.00     0.032 A 
HETATM    8  C   UNK N   1      33.620  15.310   7.472  0.00  0.00     0.034 A 
HETATM    9  C   UNK N   1      33.480  15.575   8.843  0.00  0.00     0.032 A 
HETATM   10  C   UNK N   1      34.394  15.067   9.755  0.00  0.00     0.032 A 
BRANCH   8  11
HETATM   11  N   UNK N   1      32.998  16.133   6.493  0.00  0.00    -0.327 N 
HETATM   12  C   UNK N   1      33.537  17.278   5.997  0.00  0.00     0.222 C 
HETATM   13  O   UNK N   1      34.501  17.796   6.525  0.00  0.00    -0.273 OA
HETATM   14  H   UNK N   1      32.117  15.855   6.151  0.00  0.00     0.169 HD
BRANCH  12  15
HETATM   15  C   UNK N   1      33.018  17.808   4.696  0.00  0.00     0.103 C 
BRANCH  15  16
HETATM   16  C   UNK N   1      32.976  16.742   3.619  0.00  0.00     0.019 C 
BRANCH  16  17
HETATM   17  C   UNK N   1      31.584  16.643   3.009  0.00  0.00     0.110 C 
BRANCH  17  18
HETATM   18  C   UNK N   1      30.510  16.764   4.046  0.00  0.00     0.139 C 
HETATM   19  O   UNK N   1      30.307  15.839   4.814  0.00  0.00    -0.650 OA
BRANCH  18  20
HETATM   20  O   UNK N   1      29.734  17.861   4.107  0.00  0.00    -0.776 OA
HETATM   21  H   UNK N   1      29.720  18.555   3.477  0.00  0.00     0.167 HD
ENDBRANCH  18  20
ENDBRANCH  17  18
ENDBRANCH  16  17
ENDBRANCH  15  16
ENDBRANCH  12  15
ENDBRANCH   8  11
ENDBRANCH   1   5
BRANCH   2  22
HETATM   22  C   UNK N   1      36.618  11.853  10.704  0.00  0.00     0.415 C 
BRANCH  22  23
HETATM   23  N   UNK N   1      35.700  11.696  11.854  0.00  0.00     0.027 N 
HETATM   24  C   UNK N   1      34.450  11.227  11.220  0.00  0.00     0.313 C 
HETATM   25  C   UNK N   1      33.789  10.030  11.902  0.00  0.00     0.037 C 
HETATM   26  C   UNK N   1      33.732  10.316  13.384  0.00  0.00     0.017 C 
HETATM   27  C   UNK N   1      35.131  10.383  14.004  0.00  0.00     0.022 C 
HETATM   28  C   UNK N   1      35.454   8.984  14.532  0.00  0.00     0.020 C 
HETATM   29  C   UNK N   1      36.207  10.770  12.930  0.00  0.00     0.266 C 
HETATM   30  C   UNK N   1      35.034  11.355  15.215  0.00  0.00     0.167 A 
HETATM   31  C   UNK N   1      37.474  11.263  13.665  0.00  0.00     0.046 C 
HETATM   32  C   UNK N   1      37.237  12.551  14.441  0.00  0.00     0.043 C 
HETATM   33  C   UNK N   1      36.097  12.386  15.433  0.00  0.00     0.085 A 
HETATM   34  C   UNK N   1      35.821  13.492  16.431  0.00  0.00     0.049 C 
HETATM   35  O   UNK N   1      36.159  11.151  16.067  0.00  0.00    -0.369 OA
HETATM   36  O   UNK N   1      35.438  12.927  12.360  0.00  0.00    -0.064 OA
ENDBRANCH  22  23
ENDBRANCH   2  22
TORSDOF 9
ENDMDL
MODEL 8
REMARK VINA RESULT:      -6.8      2.864      5.719
REMARK  9 active torsions:
REMARK  status: ('A' for Active; 'I' for Inactive)
REMARK    1  A    between atoms: C_2  and  O_3 
REMARK    2  A    between atoms: C_2  and  C_6 
REMARK    3  A    between atoms: C_4  and  C_5 
REMARK    4  A    between atoms: C_4  and  C_7 
REMARK    5  A    between atoms: C_5  and  C_6 
REMARK       I    between atoms: C_7  and  N_9 
REMARK    6  A    between atoms: N_9  and  C_13 
REMARK    7  A    between atoms: C_10  and  N_16 
REMARK       I    between atoms: N_16  and  C_17 
REMARK    8  A    between atoms: C_17  and  C_26 
REMARK    9  A    between atoms: N_27  and  C_26 
ROOT
HETATM    1  N   UNK N   1      25.141  18.922   3.399  0.00  0.00    -0.325 N 
HETATM    2  C   UNK N   1      23.871  19.069   3.849  0.00  0.00     0.256 C 
HETATM    3  O   UNK N   1      23.124  19.826   3.250  0.00  0.00    -0.271 OA
HETATM    4  H   UNK N   1      25.318  19.185   2.467  0.00  0.00     0.169 HD
ENDROOT
BRANCH   1   5
HETATM    5  C   UNK N   1      26.239  18.424   4.143  0.00  0.00     0.034 A 
HETATM    6  C   UNK N   1      27.009  19.277   4.945  0.00  0.00     0.032 A 
HETATM    7  C   UNK N   1      28.338  18.975   5.222  0.00  0.00     0.032 A 
HETATM    8  C   UNK N   1      28.912  17.824   4.685  0.00  0.00     0.034 A 
HETATM    9  C   UNK N   1      28.105  16.916   3.981  0.00  0.00     0.032 A 
HETATM   10  C   UNK N   1      26.776  17.213   3.718  0.00  0.00     0.032 A 
BRANCH   8  11
HETATM   11  N   UNK N   1      30.331  17.771   4.599  0.00  0.00    -0.327 N 
HETATM   12  C   UNK N   1      31.138  17.239   5.554  0.00  0.00     0.222 C 
HETATM   13  O   UNK N   1      30.708  16.965   6.658  0.00  0.00    -0.273 OA
HETATM   14  H   UNK N   1      30.757  18.147   3.794  0.00  0.00     0.169 HD
BRANCH  12  15
HETATM   15  C   UNK N   1      32.534  16.850   5.175  0.00  0.00     0.103 C 
BRANCH  15  16
HETATM   16  C   UNK N   1      33.576  17.646   5.936  0.00  0.00     0.019 C 
BRANCH  16  17
HETATM   17  C   UNK N   1      34.154  16.827   7.083  0.00  0.00     0.110 C 
BRANCH  17  18
HETATM   18  C   UNK N   1      33.834  17.429   8.416  0.00  0.00     0.139 C 
HETATM   19  O   UNK N   1      34.739  17.797   9.144  0.00  0.00    -0.650 OA
BRANCH  18  20
HETATM   20  O   UNK N   1      32.560  17.522   8.840  0.00  0.00    -0.776 OA
HETATM   21  H   UNK N   1      31.806  17.219   8.372  0.00  0.00     0.167 HD
ENDBRANCH  18  20
ENDBRANCH  17  18
ENDBRANCH  16  17
ENDBRANCH  15  16
ENDBRANCH  12  15
ENDBRANCH   8  11
ENDBRANCH   1   5
BRANCH   2  22
HETATM   22  C   UNK N   1      23.332  18.325   5.040  0.00  0.00     0.415 C 
BRANCH  22  23
HETATM   23  N   UNK N   1      22.932  16.927   4.767  0.00  0.00     0.027 N 
HETATM   24  C   UNK N   1      23.788  16.150   5.689  0.00  0.00     0.313 C 
HETATM   25  C   UNK N   1      23.062  15.072   6.492  0.00  0.00     0.037 C 
HETATM   26  C   UNK N   1      22.204  14.281   5.532  0.00  0.00     0.017 C 
HETATM   27  C   UNK N   1      21.081  15.133   4.938  0.00  0.00     0.022 C 
HETATM   28  C   UNK N   1      19.850  14.934   5.824  0.00  0.00     0.020 C 
HETATM   29  C   UNK N   1      21.461  16.656   4.950  0.00  0.00     0.266 C 
HETATM   30  C   UNK N   1      20.774  14.545   3.531  0.00  0.00     0.167 A 
HETATM   31  C   UNK N   1      20.536  17.396   3.956  0.00  0.00     0.046 C 
HETATM   32  C   UNK N   1      20.762  16.964   2.513  0.00  0.00     0.043 C 
HETATM   33  C   UNK N   1      20.584  15.462   2.362  0.00  0.00     0.085 A 
HETATM   34  C   UNK N   1      20.584  14.854   0.975  0.00  0.00     0.049 C 
HETATM   35  O   UNK N   1      19.496  15.010   3.100  0.00  0.00    -0.369 OA
HETATM   36  O   UNK N   1      23.329  16.608   3.510  0.00  0.00    -0.064 OA
ENDBRANCH  22  23
ENDBRANCH   2  22
TORSDOF 9
ENDMDL
MODEL 9
REMARK VINA RESULT:      -6.8      6.020      9.072
REMARK  9 active torsions:
REMARK  status: ('A' for Active; 'I' for Inactive)
REMARK    1  A    between atoms: C_2  and  O_3 
REMARK    2  A    between atoms: C_2  and  C_6 
REMARK    3  A    between atoms: C_4  and  C_5 
REMARK    4  A    between atoms: C_4  and  C_7 
REMARK    5  A    between atoms: C_5  and  C_6 
REMARK       I    between atoms: C_7  and  N_9 
REMARK    6  A    between atoms: N_9  and  C_13 
REMARK    7  A    between atoms: C_10  and  N_16 
REMARK       I    between atoms: N_16  and  C_17 
REMARK    8  A    between atoms: C_17  and  C_26 
REMARK    9  A    between atoms: N_27  and  C_26 
ROOT
HETATM    1  N   UNK N   1      21.387  18.559   4.761  0.00  0.00    -0.325 N 
HETATM    2  C   UNK N   1      22.336  18.647   3.797  0.00  0.00     0.256 C 
HETATM    3  O   UNK N   1      22.321  19.611   3.048  0.00  0.00    -0.271 OA
HETATM    4  H   UNK N   1      20.923  19.392   5.007  0.00  0.00     0.169 HD
ENDROOT
BRANCH   1   5
HETATM    5  C   UNK N   1      21.000  17.383   5.448  0.00  0.00     0.034 A 
HETATM    6  C   UNK N   1      21.139  17.285   6.840  0.00  0.00     0.032 A 
HETATM    7  C   UNK N   1      21.300  16.045   7.446  0.00  0.00     0.032 A 
HETATM    8  C   UNK N   1      21.337  14.891   6.663  0.00  0.00     0.034 A 
HETATM    9  C   UNK N   1      21.080  14.986   5.286  0.00  0.00     0.032 A 
HETATM   10  C   UNK N   1      20.906  16.224   4.686  0.00  0.00     0.032 A 
BRANCH   8  11
HETATM   11  N   UNK N   1      21.937  13.731   7.225  0.00  0.00    -0.327 N 
HETATM   12  C   UNK N   1      21.487  12.463   7.029  0.00  0.00     0.222 C 
HETATM   13  O   UNK N   1      20.398  12.254   6.532  0.00  0.00    -0.273 OA
HETATM   14  H   UNK N   1      22.731  13.854   7.795  0.00  0.00     0.169 HD
BRANCH  12  15
HETATM   15  C   UNK N   1      22.422  11.323   7.296  0.00  0.00     0.103 C 
BRANCH  15  16
HETATM   16  C   UNK N   1      23.521  11.701   8.270  0.00  0.00     0.019 C 
BRANCH  16  17
HETATM   17  C   UNK N   1      23.141  11.311   9.693  0.00  0.00     0.110 C 
BRANCH  17  18
HETATM   18  C   UNK N   1      23.034  12.506  10.590  0.00  0.00     0.139 C 
HETATM   19  O   UNK N   1      22.547  13.538  10.162  0.00  0.00    -0.650 OA
BRANCH  18  20
HETATM   20  O   UNK N   1      23.515  12.467  11.845  0.00  0.00    -0.776 OA
HETATM   21  H   UNK N   1      24.364  12.761  12.114  0.00  0.00     0.167 HD
ENDBRANCH  18  20
ENDBRANCH  17  18
ENDBRANCH  16  17
ENDBRANCH  15  16
ENDBRANCH  12  15
ENDBRANCH   8  11
ENDBRANCH   1   5
BRANCH   2  22
HETATM   22  C   UNK N   1      23.423  17.621   3.622  0.00  0.00     0.415 C 
BRANCH  22  23
HETATM   23  N   UNK N   1      24.554  17.750   4.567  0.00  0.00     0.027 N 
HETATM   24  C   UNK N   1      24.541  16.455   5.279  0.00  0.00     0.313 C 
HETATM   25  C   UNK N   1      25.904  15.777   5.411  0.00  0.00     0.037 C 
HETATM   26  C   UNK N   1      26.890  16.811   5.901  0.00  0.00     0.017 C 
HETATM   27  C   UNK N   1      27.114  17.917   4.866  0.00  0.00     0.022 C 
HETATM   28  C   UNK N   1      28.328  17.508   4.029  0.00  0.00     0.020 C 
HETATM   29  C   UNK N   1      25.876  18.057   3.911  0.00  0.00     0.266 C 
HETATM   30  C   UNK N   1      27.478  19.203   5.662  0.00  0.00     0.167 A 
HETATM   31  C   UNK N   1      25.952  19.436   3.216  0.00  0.00     0.046 C 
HETATM   32  C   UNK N   1      25.805  20.594   4.195  0.00  0.00     0.043 C 
HETATM   33  C   UNK N   1      26.853  20.513   5.293  0.00  0.00     0.085 A 
HETATM   34  C   UNK N   1      26.997  21.668   6.263  0.00  0.00     0.049 C 
HETATM   35  O   UNK N   1      28.089  20.141   4.779  0.00  0.00    -0.369 OA
HETATM   36  O   UNK N   1      24.237  18.699   5.483  0.00  0.00    -0.064 OA
ENDBRANCH  22  23
ENDBRANCH   2  22
TORSDOF 9
ENDMDL
