MODEL 1
REMARK VINA RESULT:      -7.1      0.000      0.000
REMARK  4 active torsions:
REMARK  status: ('A' for Active; 'I' for Inactive)
REMARK    1  A    between atoms: C_1  and  C_15 
REMARK    2  A    between atoms: C_12  and  C_18 
REMARK    3  A    between atoms: C_13  and  N_14 
REMARK    4  A    between atoms: C_13  and  C_15 
ROOT
HETATM    1  C   UNK N   1      35.343  10.229  13.654  0.00  0.00     0.022 C 
HETATM    2  C   UNK N   1      35.319   9.352  14.914  0.00  0.00     0.008 C 
HETATM    3  C   UNK N   1      34.598  10.225  15.941  0.00  0.00     0.006 C 
HETATM    4  C   UNK N   1      34.097  11.385  15.086  0.00  0.00    -0.003 C 
HETATM    5  C   UNK N   1      33.923  10.731  13.726  0.00  0.00     0.013 C 
HETATM    6  C   UNK N   1      35.210  12.380  14.726  0.00  0.00     0.058 C 
HETATM    7  C   UNK N   1      36.228  11.489  13.937  0.00  0.00     0.101 C 
ENDROOT
BRANCH   7   8
HETATM    8  N   UNK N   1      37.366  11.081  14.763  0.00  0.00    -0.414 N 
HETATM    9  H   UNK N   1      38.126  10.546  15.181  0.00  0.00     0.151 HD
HETATM   10  H   UNK N   1      37.473  11.939  15.304  0.00  0.00     0.151 HD
ENDBRANCH   7   8
BRANCH   7  11
HETATM   11  C   UNK N   1      36.795  12.221  12.718  0.00  0.00     0.188 C 
HETATM   12  O   UNK N   1      37.911  11.938  12.305  0.00  0.00    -0.290 OA
BRANCH  11  13
HETATM   13  C   UNK N   1      35.981  13.195  11.946  0.00  0.00     0.012 A 
HETATM   14  C   UNK N   1      35.102  12.727  10.955  0.00  0.00     0.015 A 
HETATM   15  C   UNK N   1      34.291  13.619  10.248  0.00  0.00     0.001 A 
HETATM   16  C   UNK N   1      34.356  14.987  10.521  0.00  0.00     0.000 A 
HETATM   17  C   UNK N   1      35.229  15.463  11.502  0.00  0.00     0.001 A 
HETATM   18  C   UNK N   1      36.032  14.571  12.218  0.00  0.00     0.015 A 
ENDBRANCH  11  13
ENDBRANCH   7  11
BRANCH   6  19
HETATM   19  C   UNK N   1      35.735  13.344  15.773  0.00  0.00    -0.051 A 
HETATM   20  C   UNK N   1      36.760  14.260  15.484  0.00  0.00     0.007 A 
HETATM   21  C   UNK N   1      37.155  15.212  16.427  0.00  0.00     0.001 A 
HETATM   22  C   UNK N   1      36.521  15.263  17.670  0.00  0.00     0.000 A 
HETATM   23  C   UNK N   1      35.497  14.361  17.969  0.00  0.00     0.001 A 
HETATM   24  C   UNK N   1      35.099  13.412  17.022  0.00  0.00     0.007 A 
ENDBRANCH   6  19
TORSDOF 4
ENDMDL
MODEL 2
REMARK VINA RESULT:      -6.9      1.521      2.016
REMARK  4 active torsions:
REMARK  status: ('A' for Active; 'I' for Inactive)
REMARK    1  A    between atoms: C_1  and  C_15 
REMARK    2  A    between atoms: C_12  and  C_18 
REMARK    3  A    between atoms: C_13  and  N_14 
REMARK    4  A    between atoms: C_13  and  C_15 
ROOT
HETATM    1  C   UNK N   1      35.667  10.829  13.274  0.00  0.00     0.022 C 
HETATM    2  C   UNK N   1      36.018   9.438  13.820  0.00  0.00     0.008 C 
HETATM    3  C   UNK N   1      35.112   9.299  15.044  0.00  0.00     0.006 C 
HETATM    4  C   UNK N   1      34.199  10.513  14.912  0.00  0.00    -0.003 C 
HETATM    5  C   UNK N   1      34.169  10.732  13.409  0.00  0.00     0.013 C 
HETATM    6  C   UNK N   1      34.890  11.822  15.324  0.00  0.00     0.058 C 
HETATM    7  C   UNK N   1      36.094  11.905  14.328  0.00  0.00     0.101 C 
ENDROOT
BRANCH   7   8
HETATM    8  N   UNK N   1      37.354  11.477  14.942  0.00  0.00    -0.414 N 
HETATM    9  H   UNK N   1      38.104  10.912  15.338  0.00  0.00     0.151 HD
HETATM   10  H   UNK N   1      37.783  12.395  15.055  0.00  0.00     0.151 HD
ENDBRANCH   7   8
BRANCH   7  11
HETATM   11  C   UNK N   1      36.306  13.331  13.812  0.00  0.00     0.188 C 
HETATM   12  O   UNK N   1      36.758  14.187  14.560  0.00  0.00    -0.290 OA
BRANCH  11  13
HETATM   13  C   UNK N   1      36.082  13.683  12.386  0.00  0.00     0.012 A 
HETATM   14  C   UNK N   1      37.108  13.461  11.452  0.00  0.00     0.015 A 
HETATM   15  C   UNK N   1      36.906  13.740  10.098  0.00  0.00     0.001 A 
HETATM   16  C   UNK N   1      35.679  14.250   9.666  0.00  0.00     0.000 A 
HETATM   17  C   UNK N   1      34.654  14.478  10.587  0.00  0.00     0.001 A 
HETATM   18  C   UNK N   1      34.851  14.188  11.941  0.00  0.00     0.015 A 
ENDBRANCH  11  13
ENDBRANCH   7  11
BRANCH   6  19
HETATM   19  C   UNK N   1      35.127  12.126  16.791  0.00  0.00    -0.051 A 
HETATM   20  C   UNK N   1      35.017  13.431  17.301  0.00  0.00     0.007 A 
HETATM   21  C   UNK N   1      35.132  13.675  18.671  0.00  0.00     0.001 A 
HETATM   22  C   UNK N   1      35.349  12.613  19.551  0.00  0.00     0.000 A 
HETATM   23  C   UNK N   1      35.454  11.310  19.058  0.00  0.00     0.001 A 
HETATM   24  C   UNK N   1      35.335  11.066  17.686  0.00  0.00     0.007 A 
ENDBRANCH   6  19
TORSDOF 4
ENDMDL
MODEL 3
REMARK VINA RESULT:      -6.9     20.720     24.971
REMARK  4 active torsions:
REMARK  status: ('A' for Active; 'I' for Inactive)
REMARK    1  A    between atoms: C_1  and  C_15 
REMARK    2  A    between atoms: C_12  and  C_18 
REMARK    3  A    between atoms: C_13  and  N_14 
REMARK    4  A    between atoms: C_13  and  C_15 
ROOT
HETATM    1  C   UNK N   1      27.275  27.226  -3.503  0.00  0.00     0.022 C 
HETATM    2  C   UNK N   1      27.743  28.418  -4.349  0.00  0.00     0.008 C 
HETATM    3  C   UNK N   1      26.685  28.509  -5.449  0.00  0.00     0.006 C 
HETATM    4  C   UNK N   1      25.629  27.520  -4.967  0.00  0.00    -0.003 C 
HETATM    5  C   UNK N   1      25.807  27.569  -3.459  0.00  0.00     0.013 C 
HETATM    6  C   UNK N   1      26.035  26.058  -5.202  0.00  0.00     0.058 C 
HETATM    7  C   UNK N   1      27.357  25.928  -4.374  0.00  0.00     0.101 C 
ENDROOT
BRANCH   7   8
HETATM    8  N   UNK N   1      28.552  26.010  -5.218  0.00  0.00    -0.414 N 
HETATM    9  H   UNK N   1      29.306  26.355  -5.810  0.00  0.00     0.151 HD
HETATM   10  H   UNK N   1      28.813  25.025  -5.202  0.00  0.00     0.151 HD
ENDBRANCH   7   8
BRANCH   7  11
HETATM   11  C   UNK N   1      27.426  24.596  -3.622  0.00  0.00     0.188 C 
HETATM   12  O   UNK N   1      26.454  24.203  -2.992  0.00  0.00    -0.290 OA
BRANCH  11  13
HETATM   13  C   UNK N   1      28.610  23.704  -3.727  0.00  0.00     0.012 A 
HETATM   14  C   UNK N   1      29.459  23.552  -2.619  0.00  0.00     0.015 A 
HETATM   15  C   UNK N   1      30.551  22.683  -2.677  0.00  0.00     0.001 A 
HETATM   16  C   UNK N   1      30.809  21.963  -3.845  0.00  0.00     0.000 A 
HETATM   17  C   UNK N   1      29.973  22.110  -4.955  0.00  0.00     0.001 A 
HETATM   18  C   UNK N   1      28.873  22.970  -4.894  0.00  0.00     0.015 A 
ENDBRANCH  11  13
ENDBRANCH   7  11
BRANCH   6  19
HETATM   19  C   UNK N   1      25.983  25.471  -6.600  0.00  0.00    -0.051 A 
HETATM   20  C   UNK N   1      25.862  24.088  -6.816  0.00  0.00     0.007 A 
HETATM   21  C   UNK N   1      25.707  23.577  -8.107  0.00  0.00     0.001 A 
HETATM   22  C   UNK N   1      25.662  24.446  -9.198  0.00  0.00     0.000 A 
HETATM   23  C   UNK N   1      25.775  25.824  -8.998  0.00  0.00     0.001 A 
HETATM   24  C   UNK N   1      25.926  26.335  -7.704  0.00  0.00     0.007 A 
ENDBRANCH   6  19
TORSDOF 4
ENDMDL
MODEL 4
REMARK VINA RESULT:      -6.8     22.095     24.130
REMARK  4 active torsions:
REMARK  status: ('A' for Active; 'I' for Inactive)
REMARK    1  A    between atoms: C_1  and  C_15 
REMARK    2  A    between atoms: C_12  and  C_18 
REMARK    3  A    between atoms: C_13  and  N_14 
REMARK    4  A    between atoms: C_13  and  C_15 
ROOT
HETATM    1  C   UNK N   1      29.800  25.326  -3.673  0.00  0.00     0.022 C 
HETATM    2  C   UNK N   1      31.219  24.743  -3.734  0.00  0.00     0.008 C 
HETATM    3  C   UNK N   1      31.382  24.359  -5.205  0.00  0.00     0.006 C 
HETATM    4  C   UNK N   1      30.142  24.979  -5.841  0.00  0.00    -0.003 C 
HETATM    5  C   UNK N   1      29.867  26.161  -4.927  0.00  0.00     0.013 C 
HETATM    6  C   UNK N   1      28.866  24.169  -5.565  0.00  0.00     0.058 C 
HETATM    7  C   UNK N   1      28.775  24.190  -4.003  0.00  0.00     0.101 C 
ENDROOT
BRANCH   7   8
HETATM    8  N   UNK N   1      29.255  22.944  -3.401  0.00  0.00    -0.414 N 
HETATM    9  H   UNK N   1      29.590  21.990  -3.268  0.00  0.00     0.151 HD
HETATM   10  H   UNK N   1      29.250  23.238  -2.425  0.00  0.00     0.151 HD
ENDBRANCH   7   8
BRANCH   7  11
HETATM   11  C   UNK N   1      27.337  24.398  -3.522  0.00  0.00     0.188 C 
HETATM   12  O   UNK N   1      26.895  23.709  -2.613  0.00  0.00    -0.290 OA
BRANCH  11  13
HETATM   13  C   UNK N   1      26.489  25.497  -4.054  0.00  0.00     0.012 A 
HETATM   14  C   UNK N   1      26.456  26.729  -3.380  0.00  0.00     0.015 A 
HETATM   15  C   UNK N   1      25.705  27.793  -3.885  0.00  0.00     0.001 A 
HETATM   16  C   UNK N   1      24.974  27.632  -5.065  0.00  0.00     0.000 A 
HETATM   17  C   UNK N   1      24.997  26.410  -5.741  0.00  0.00     0.001 A 
HETATM   18  C   UNK N   1      25.758  25.349  -5.241  0.00  0.00     0.015 A 
ENDBRANCH  11  13
ENDBRANCH   7  11
BRANCH   6  19
HETATM   19  C   UNK N   1      28.622  22.864  -6.299  0.00  0.00    -0.051 A 
HETATM   20  C   UNK N   1      27.447  22.640  -7.035  0.00  0.00     0.007 A 
HETATM   21  C   UNK N   1      27.288  21.476  -7.791  0.00  0.00     0.001 A 
HETATM   22  C   UNK N   1      28.309  20.526  -7.827  0.00  0.00     0.000 A 
HETATM   23  C   UNK N   1      29.486  20.738  -7.104  0.00  0.00     0.001 A 
HETATM   24  C   UNK N   1      29.646  21.906  -6.350  0.00  0.00     0.007 A 
ENDBRANCH   6  19
TORSDOF 4
ENDMDL
MODEL 5
REMARK VINA RESULT:      -6.7     23.930     26.005
REMARK  4 active torsions:
REMARK  status: ('A' for Active; 'I' for Inactive)
REMARK    1  A    between atoms: C_1  and  C_15 
REMARK    2  A    between atoms: C_12  and  C_18 
REMARK    3  A    between atoms: C_13  and  N_14 
REMARK    4  A    between atoms: C_13  and  C_15 
ROOT
HETATM    1  C   UNK N   1      26.901  27.289  -3.312  0.00  0.00     0.022 C 
HETATM    2  C   UNK N   1      27.769  28.545  -3.472  0.00  0.00     0.008 C 
HETATM    3  C   UNK N   1      27.196  29.215  -4.721  0.00  0.00     0.006 C 
HETATM    4  C   UNK N   1      25.937  28.395  -4.982  0.00  0.00    -0.003 C 
HETATM    5  C   UNK N   1      25.562  27.928  -3.585  0.00  0.00     0.013 C 
HETATM    6  C   UNK N   1      26.240  27.027  -5.611  0.00  0.00     0.058 C 
HETATM    7  C   UNK N   1      27.151  26.346  -4.536  0.00  0.00     0.101 C 
ENDROOT
BRANCH   7   8
HETATM    8  N   UNK N   1      28.572  26.411  -4.889  0.00  0.00    -0.414 N 
HETATM    9  H   UNK N   1      29.590  26.374  -4.850  0.00  0.00     0.151 HD
HETATM   10  H   UNK N   1      28.470  26.700  -5.862  0.00  0.00     0.151 HD
ENDBRANCH   7   8
BRANCH   7  11
HETATM   11  C   UNK N   1      26.800  24.867  -4.351  0.00  0.00     0.188 C 
HETATM   12  O   UNK N   1      26.449  24.460  -3.252  0.00  0.00    -0.290 OA
BRANCH  11  13
HETATM   13  C   UNK N   1      26.765  23.926  -5.500  0.00  0.00     0.012 A 
HETATM   14  C   UNK N   1      27.967  23.565  -6.132  0.00  0.00     0.015 A 
HETATM   15  C   UNK N   1      27.966  22.646  -7.184  0.00  0.00     0.001 A 
HETATM   16  C   UNK N   1      26.763  22.083  -7.617  0.00  0.00     0.000 A 
HETATM   17  C   UNK N   1      25.562  22.437  -6.998  0.00  0.00     0.001 A 
HETATM   18  C   UNK N   1      25.564  23.349  -5.938  0.00  0.00     0.015 A 
ENDBRANCH  11  13
ENDBRANCH   7  11
BRANCH   6  19
HETATM   19  C   UNK N   1      26.635  26.935  -7.074  0.00  0.00    -0.051 A 
HETATM   20  C   UNK N   1      27.828  27.501  -7.553  0.00  0.00     0.007 A 
HETATM   21  C   UNK N   1      28.226  27.313  -8.878  0.00  0.00     0.001 A 
HETATM   22  C   UNK N   1      27.438  26.547  -9.739  0.00  0.00     0.000 A 
HETATM   23  C   UNK N   1      26.251  25.975  -9.275  0.00  0.00     0.001 A 
HETATM   24  C   UNK N   1      25.856  26.160  -7.946  0.00  0.00     0.007 A 
ENDBRANCH   6  19
TORSDOF 4
ENDMDL
MODEL 6
REMARK VINA RESULT:      -6.6     20.922     23.856
REMARK  4 active torsions:
REMARK  status: ('A' for Active; 'I' for Inactive)
REMARK    1  A    between atoms: C_1  and  C_15 
REMARK    2  A    between atoms: C_12  and  C_18 
REMARK    3  A    between atoms: C_13  and  N_14 
REMARK    4  A    between atoms: C_13  and  C_15 
ROOT
HETATM    1  C   UNK N   1      26.075  25.418  -5.384  0.00  0.00     0.022 C 
HETATM    2  C   UNK N   1      25.330  26.738  -5.628  0.00  0.00     0.008 C 
HETATM    3  C   UNK N   1      26.443  27.704  -6.035  0.00  0.00     0.006 C 
HETATM    4  C   UNK N   1      27.638  26.771  -6.202  0.00  0.00    -0.003 C 
HETATM    5  C   UNK N   1      26.972  25.462  -6.595  0.00  0.00     0.013 C 
HETATM    6  C   UNK N   1      28.238  26.331  -4.858  0.00  0.00     0.058 C 
HETATM    7  C   UNK N   1      27.039  25.603  -4.165  0.00  0.00     0.101 C 
ENDROOT
BRANCH   7   8
HETATM    8  N   UNK N   1      26.373  26.449  -3.172  0.00  0.00    -0.414 N 
HETATM    9  H   UNK N   1      25.757  27.124  -2.721  0.00  0.00     0.151 HD
HETATM   10  H   UNK N   1      26.901  26.157  -2.350  0.00  0.00     0.151 HD
ENDBRANCH   7   8
BRANCH   7  11
HETATM   11  C   UNK N   1      27.490  24.330  -3.443  0.00  0.00     0.188 C 
HETATM   12  O   UNK N   1      26.728  23.771  -2.666  0.00  0.00    -0.290 OA
BRANCH  11  13
HETATM   13  C   UNK N   1      28.794  23.685  -3.744  0.00  0.00     0.012 A 
HETATM   14  C   UNK N   1      29.776  23.615  -2.741  0.00  0.00     0.015 A 
HETATM   15  C   UNK N   1      30.992  22.972  -2.984  0.00  0.00     0.001 A 
HETATM   16  C   UNK N   1      31.241  22.400  -4.234  0.00  0.00     0.000 A 
HETATM   17  C   UNK N   1      30.273  22.468  -5.239  0.00  0.00     0.001 A 
HETATM   18  C   UNK N   1      29.051  23.100  -4.993  0.00  0.00     0.015 A 
ENDBRANCH  11  13
ENDBRANCH   7  11
BRANCH   6  19
HETATM   19  C   UNK N   1      29.076  27.303  -4.048  0.00  0.00    -0.051 A 
HETATM   20  C   UNK N   1      28.530  28.482  -3.516  0.00  0.00     0.007 A 
HETATM   21  C   UNK N   1      29.287  29.309  -2.683  0.00  0.00     0.001 A 
HETATM   22  C   UNK N   1      30.600  28.958  -2.364  0.00  0.00     0.000 A 
HETATM   23  C   UNK N   1      31.155  27.785  -2.881  0.00  0.00     0.001 A 
HETATM   24  C   UNK N   1      30.393  26.956  -3.712  0.00  0.00     0.007 A 
ENDBRANCH   6  19
TORSDOF 4
ENDMDL
MODEL 7
REMARK VINA RESULT:      -6.6     20.629     24.383
REMARK  4 active torsions:
REMARK  status: ('A' for Active; 'I' for Inactive)
REMARK    1  A    between atoms: C_1  and  C_15 
REMARK    2  A    between atoms: C_12  and  C_18 
REMARK    3  A    between atoms: C_13  and  N_14 
REMARK    4  A    between atoms: C_13  and  C_15 
ROOT
HETATM    1  C   UNK N   1      27.525  26.100  -4.892  0.00  0.00     0.022 C 
HETATM    2  C   UNK N   1      26.253  26.769  -5.433  0.00  0.00     0.008 C 
HETATM    3  C   UNK N   1      25.223  25.640  -5.415  0.00  0.00     0.006 C 
HETATM    4  C   UNK N   1      25.957  24.541  -4.654  0.00  0.00    -0.003 C 
HETATM    5  C   UNK N   1      26.888  25.339  -3.756  0.00  0.00     0.013 C 
HETATM    6  C   UNK N   1      27.015  23.831  -5.512  0.00  0.00     0.058 C 
HETATM    7  C   UNK N   1      27.983  24.997  -5.904  0.00  0.00     0.101 C 
ENDROOT
BRANCH   7   8
HETATM    8  N   UNK N   1      27.741  25.487  -7.263  0.00  0.00    -0.414 N 
HETATM    9  H   UNK N   1      27.663  25.553  -8.278  0.00  0.00     0.151 HD
HETATM   10  H   UNK N   1      27.433  26.431  -7.028  0.00  0.00     0.151 HD
ENDBRANCH   7   8
BRANCH   7  11
HETATM   11  C   UNK N   1      29.449  24.564  -5.835  0.00  0.00     0.188 C 
HETATM   12  O   UNK N   1      30.281  25.124  -6.535  0.00  0.00    -0.290 OA
BRANCH  11  13
HETATM   13  C   UNK N   1      29.916  23.551  -4.854  0.00  0.00     0.012 A 
HETATM   14  C   UNK N   1      30.173  23.942  -3.529  0.00  0.00     0.015 A 
HETATM   15  C   UNK N   1      30.567  23.000  -2.576  0.00  0.00     0.001 A 
HETATM   16  C   UNK N   1      30.716  21.659  -2.940  0.00  0.00     0.000 A 
HETATM   17  C   UNK N   1      30.468  21.261  -4.256  0.00  0.00     0.001 A 
HETATM   18  C   UNK N   1      30.062  22.201  -5.207  0.00  0.00     0.015 A 
ENDBRANCH  11  13
ENDBRANCH   7  11
BRANCH   6  19
HETATM   19  C   UNK N   1      26.586  22.841  -6.579  0.00  0.00    -0.051 A 
HETATM   20  C   UNK N   1      27.518  22.226  -7.432  0.00  0.00     0.007 A 
HETATM   21  C   UNK N   1      27.118  21.239  -8.335  0.00  0.00     0.001 A 
HETATM   22  C   UNK N   1      25.779  20.847  -8.388  0.00  0.00     0.000 A 
HETATM   23  C   UNK N   1      24.842  21.446  -7.542  0.00  0.00     0.001 A 
HETATM   24  C   UNK N   1      25.245  22.433  -6.636  0.00  0.00     0.007 A 
ENDBRANCH   6  19
TORSDOF 4
ENDMDL
MODEL 8
REMARK VINA RESULT:      -6.5      2.004      5.165
REMARK  4 active torsions:
REMARK  status: ('A' for Active; 'I' for Inactive)
REMARK    1  A    between atoms: C_1  and  C_15 
REMARK    2  A    between atoms: C_12  and  C_18 
REMARK    3  A    between atoms: C_13  and  N_14 
REMARK    4  A    between atoms: C_13  and  C_15 
ROOT
HETATM    1  C   UNK N   1      36.357   9.293  14.484  0.00  0.00     0.022 C 
HETATM    2  C   UNK N   1      36.982   8.621  13.252  0.00  0.00     0.008 C 
HETATM    3  C   UNK N   1      37.958   9.676  12.730  0.00  0.00     0.006 C 
HETATM    4  C   UNK N   1      37.945  10.713  13.848  0.00  0.00    -0.003 C 
HETATM    5  C   UNK N   1      37.623   9.866  15.069  0.00  0.00     0.013 C 
HETATM    6  C   UNK N   1      36.682  11.586  13.832  0.00  0.00     0.058 C 
HETATM    7  C   UNK N   1      35.534  10.538  14.014  0.00  0.00     0.101 C 
ENDROOT
BRANCH   7   8
HETATM    8  N   UNK N   1      34.877  10.208  12.747  0.00  0.00    -0.414 N 
HETATM    9  H   UNK N   1      34.313  10.254  11.899  0.00  0.00     0.151 HD
HETATM   10  H   UNK N   1      35.238   9.261  12.634  0.00  0.00     0.151 HD
ENDBRANCH   7   8
BRANCH   7  11
HETATM   11  C   UNK N   1      34.448  11.046  14.966  0.00  0.00     0.188 C 
HETATM   12  O   UNK N   1      33.269  10.879  14.687  0.00  0.00    -0.290 OA
BRANCH  11  13
HETATM   13  C   UNK N   1      34.786  11.643  16.284  0.00  0.00     0.012 A 
HETATM   14  C   UNK N   1      34.773  13.040  16.432  0.00  0.00     0.015 A 
HETATM   15  C   UNK N   1      35.041  13.624  17.673  0.00  0.00     0.001 A 
HETATM   16  C   UNK N   1      35.331  12.817  18.775  0.00  0.00     0.000 A 
HETATM   17  C   UNK N   1      35.351  11.427  18.638  0.00  0.00     0.001 A 
HETATM   18  C   UNK N   1      35.072  10.842  17.399  0.00  0.00     0.015 A 
ENDBRANCH  11  13
ENDBRANCH   7  11
BRANCH   6  19
HETATM   19  C   UNK N   1      36.525  12.674  12.786  0.00  0.00    -0.051 A 
HETATM   20  C   UNK N   1      35.679  13.777  12.989  0.00  0.00     0.007 A 
HETATM   21  C   UNK N   1      35.631  14.821  12.063  0.00  0.00     0.001 A 
HETATM   22  C   UNK N   1      36.437  14.778  10.924  0.00  0.00     0.000 A 
HETATM   23  C   UNK N   1      37.287  13.690  10.711  0.00  0.00     0.001 A 
HETATM   24  C   UNK N   1      37.337  12.647  11.642  0.00  0.00     0.007 A 
ENDBRANCH   6  19
TORSDOF 4
ENDMDL
MODEL 9
REMARK VINA RESULT:      -6.5      9.313     11.972
REMARK  4 active torsions:
REMARK  status: ('A' for Active; 'I' for Inactive)
REMARK    1  A    between atoms: C_1  and  C_15 
REMARK    2  A    between atoms: C_12  and  C_18 
REMARK    3  A    between atoms: C_13  and  N_14 
REMARK    4  A    between atoms: C_13  and  C_15 
ROOT
HETATM    1  C   UNK N   1      28.650  15.854   4.120  0.00  0.00     0.022 C 
HETATM    2  C   UNK N   1      29.608  15.862   2.920  0.00  0.00     0.008 C 
HETATM    3  C   UNK N   1      30.925  15.360   3.513  0.00  0.00     0.006 C 
HETATM    4  C   UNK N   1      30.502  14.908   4.907  0.00  0.00    -0.003 C 
HETATM    5  C   UNK N   1      29.049  14.517   4.691  0.00  0.00     0.013 C 
HETATM    6  C   UNK N   1      30.285  16.084   5.871  0.00  0.00     0.058 C 
HETATM    7  C   UNK N   1      29.151  16.902   5.169  0.00  0.00     0.101 C 
ENDROOT
BRANCH   7   8
HETATM    8  N   UNK N   1      29.670  18.068   4.449  0.00  0.00    -0.414 N 
HETATM    9  H   UNK N   1      30.026  18.995   4.221  0.00  0.00     0.151 HD
HETATM   10  H   UNK N   1      29.682  17.668   3.510  0.00  0.00     0.151 HD
ENDBRANCH   7   8
BRANCH   7  11
HETATM   11  C   UNK N   1      28.118  17.418   6.175  0.00  0.00     0.188 C 
HETATM   12  O   UNK N   1      27.893  16.780   7.195  0.00  0.00    -0.290 OA
BRANCH  11  13
HETATM   13  C   UNK N   1      27.456  18.736   6.004  0.00  0.00     0.012 A 
HETATM   14  C   UNK N   1      27.827  19.807   6.835  0.00  0.00     0.015 A 
HETATM   15  C   UNK N   1      27.253  21.069   6.663  0.00  0.00     0.001 A 
HETATM   16  C   UNK N   1      26.298  21.271   5.664  0.00  0.00     0.000 A 
HETATM   17  C   UNK N   1      25.918  20.212   4.836  0.00  0.00     0.001 A 
HETATM   18  C   UNK N   1      26.501  18.952   4.999  0.00  0.00     0.015 A 
ENDBRANCH  11  13
ENDBRANCH   7  11
BRANCH   6  19
HETATM   19  C   UNK N   1      31.479  16.825   6.445  0.00  0.00    -0.051 A 
HETATM   20  C   UNK N   1      31.448  17.388   7.731  0.00  0.00     0.007 A 
HETATM   21  C   UNK N   1      32.591  17.971   8.284  0.00  0.00     0.001 A 
HETATM   22  C   UNK N   1      33.783  17.989   7.557  0.00  0.00     0.000 A 
HETATM   23  C   UNK N   1      33.829  17.428   6.278  0.00  0.00     0.001 A 
HETATM   24  C   UNK N   1      32.684  16.840   5.728  0.00  0.00     0.007 A 
ENDBRANCH   6  19
TORSDOF 4
ENDMDL
