REMARK  4 active torsions:
REMARK  status: ('A' for Active; 'I' for Inactive)
REMARK    1  A    between atoms: C_1  and  C_15 
REMARK    2  A    between atoms: C_12  and  C_18 
REMARK    3  A    between atoms: C_13  and  N_14 
REMARK    4  A    between atoms: C_13  and  C_15 
ROOT
HETATM    1  C   UNK N   1      -2.224   0.312   0.074  0.00  0.00     0.022 C 
HETATM    2  C   UNK N   1      -2.735   1.066   1.310  0.00  0.00     0.008 C 
HETATM    3  C   UNK N   1      -2.125   2.459   1.153  0.00  0.00     0.006 C 
HETATM    4  C   UNK N   1      -1.542   2.402  -0.255  0.00  0.00    -0.003 C 
HETATM    5  C   UNK N   1      -2.457   1.402  -0.942  0.00  0.00     0.013 C 
HETATM    6  C   UNK N   1      -0.232   1.603  -0.322  0.00  0.00     0.058 C 
HETATM    7  C   UNK N   1      -0.667   0.183   0.172  0.00  0.00     0.101 C 
ENDROOT
BRANCH   7   8
HETATM    8  N   UNK N   1      -0.309  -0.052   1.573  0.00  0.00    -0.414 N 
HETATM    9  H   UNK N   1      -0.326  -0.349   2.548  0.00  0.00     0.151 HD
HETATM   10  H   UNK N   1       0.601   0.408   1.573  0.00  0.00     0.151 HD
ENDBRANCH   7   8
BRANCH   7  11
HETATM   11  C   UNK N   1      -0.014  -0.929  -0.653  0.00  0.00     0.188 C 
HETATM   12  O   UNK N   1       0.797  -0.643  -1.523  0.00  0.00    -0.290 OA
BRANCH  11  13
HETATM   13  C   UNK N   1      -0.253  -2.364  -0.352  0.00  0.00     0.012 A 
HETATM   14  C   UNK N   1       0.526  -3.342  -0.993  0.00  0.00     0.015 A 
HETATM   15  C   UNK N   1       0.353  -4.695  -0.692  0.00  0.00     0.001 A 
HETATM   16  C   UNK N   1      -0.605  -5.084   0.247  0.00  0.00     0.000 A 
HETATM   17  C   UNK N   1      -1.388  -4.120   0.887  0.00  0.00     0.001 A 
HETATM   18  C   UNK N   1      -1.207  -2.765   0.595  0.00  0.00     0.015 A 
ENDBRANCH  11  13
ENDBRANCH   7  11
BRANCH   6  19
HETATM   19  C   UNK N   1       1.053   2.206   0.214  0.00  0.00    -0.051 A 
HETATM   20  C   UNK N   1       1.919   1.477   1.046  0.00  0.00     0.007 A 
HETATM   21  C   UNK N   1       3.148   2.010   1.441  0.00  0.00     0.001 A 
HETATM   22  C   UNK N   1       3.530   3.278   0.999  0.00  0.00     0.000 A 
HETATM   23  C   UNK N   1       2.681   4.012   0.167  0.00  0.00     0.001 A 
HETATM   24  C   UNK N   1       1.452   3.475  -0.231  0.00  0.00     0.007 A 
ENDBRANCH   6  19
TORSDOF 4
