MODEL 1
REMARK VINA RESULT:      -6.3      0.000      0.000
REMARK  3 active torsions:
REMARK  status: ('A' for Active; 'I' for Inactive)
REMARK    1  A    between atoms: C_2  and  C_9 
REMARK       I    between atoms: C_11  and  N_16 
REMARK    2  A    between atoms: C_11  and  O_19 
REMARK    3  A    between atoms: C_12  and  O_19 
ROOT
HETATM    1  C   UNK N   1      28.429  17.999   9.083  0.00  0.00     0.245 A 
HETATM    2  C   UNK N   1      29.192  17.054   8.168  0.00  0.00     0.187 A 
HETATM    3  C   UNK N   1      28.429  18.585   6.296  0.00  0.00     0.070 A 
HETATM    4  C   UNK N   1      27.754  19.395   7.229  0.00  0.00     0.062 A 
HETATM    5  C   UNK N   1      27.015  20.505   6.803  0.00  0.00     0.035 A 
HETATM    6  C   UNK N   1      26.930  20.821   5.446  0.00  0.00     0.044 A 
HETATM    7  C   UNK N   1      27.588  20.028   4.510  0.00  0.00     0.118 A 
HETATM    8  C   UNK N   1      28.328  18.925   4.932  0.00  0.00     0.074 A 
HETATM    9  C   UNK N   1      29.778  16.566   5.837  0.00  0.00     0.368 C 
HETATM   10  F   UNK N   1      27.499  20.314   3.189  0.00  0.00    -0.206 F 
HETATM   11  N   UNK N   1      29.155  17.411   6.739  0.00  0.00    -0.278 N 
HETATM   12  N   UNK N   1      27.782  19.082   8.601  0.00  0.00    -0.323 N 
HETATM   13  O   UNK N   1      28.386  17.771  10.281  0.00  0.00    -0.271 OA
HETATM   14  O   UNK N   1      30.299  15.529   6.235  0.00  0.00    -0.238 OA
HETATM   15  H   UNK N   1      27.315  19.674   9.233  0.00  0.00     0.169 HD
ENDROOT
BRANCH   2  16
HETATM   16  C   UNK N   1      30.656  16.984   8.635  0.00  0.00     0.031 C 
HETATM   17  C   UNK N   1      31.329  18.348   8.610  0.00  0.00     0.007 C 
ENDBRANCH   2  16
BRANCH   9  18
HETATM   18  O   UNK N   1      29.818  16.862   4.511  0.00  0.00    -0.299 OA
BRANCH  18  19
HETATM   19  C   UNK N   1      30.426  16.102   3.532  0.00  0.00     0.125 C 
HETATM   20  C   UNK N   1      31.624  16.799   2.910  0.00  0.00     0.040 C 
HETATM   21  C   UNK N   1      29.410  15.823   2.444  0.00  0.00     0.040 C 
ENDBRANCH  18  19
ENDBRANCH   9  18
TORSDOF 3
ENDMDL
MODEL 2
REMARK VINA RESULT:      -5.9     12.059     14.314
REMARK  3 active torsions:
REMARK  status: ('A' for Active; 'I' for Inactive)
REMARK    1  A    between atoms: C_2  and  C_9 
REMARK       I    between atoms: C_11  and  N_16 
REMARK    2  A    between atoms: C_11  and  O_19 
REMARK    3  A    between atoms: C_12  and  O_19 
ROOT
HETATM    1  C   UNK N   1      25.961  24.420  -8.281  0.00  0.00     0.245 A 
HETATM    2  C   UNK N   1      26.997  23.598  -7.530  0.00  0.00     0.187 A 
HETATM    3  C   UNK N   1      26.573  25.204  -5.614  0.00  0.00     0.070 A 
HETATM    4  C   UNK N   1      25.631  25.896  -6.397  0.00  0.00     0.062 A 
HETATM    5  C   UNK N   1      24.988  27.035  -5.895  0.00  0.00     0.035 A 
HETATM    6  C   UNK N   1      25.279  27.504  -4.614  0.00  0.00     0.044 A 
HETATM    7  C   UNK N   1      26.212  26.835  -3.828  0.00  0.00     0.118 A 
HETATM    8  C   UNK N   1      26.849  25.699  -4.323  0.00  0.00     0.074 A 
HETATM    9  C   UNK N   1      28.243  23.392  -5.428  0.00  0.00     0.368 C 
HETATM   10  F   UNK N   1      26.515  27.292  -2.589  0.00  0.00    -0.206 F 
HETATM   11  N   UNK N   1      27.269  24.054  -6.155  0.00  0.00    -0.278 N 
HETATM   12  N   UNK N   1      25.344  25.475  -7.710  0.00  0.00    -0.323 N 
HETATM   13  O   UNK N   1      25.687  24.130  -9.435  0.00  0.00    -0.271 OA
HETATM   14  O   UNK N   1      28.881  22.483  -5.951  0.00  0.00    -0.238 OA
HETATM   15  H   UNK N   1      24.669  25.968  -8.229  0.00  0.00     0.169 HD
ENDROOT
BRANCH   2  16
HETATM   16  C   UNK N   1      26.538  22.131  -7.495  0.00  0.00     0.031 C 
HETATM   17  C   UNK N   1      25.144  21.982  -6.904  0.00  0.00     0.007 C 
ENDBRANCH   2  16
BRANCH   9  18
HETATM   18  O   UNK N   1      28.510  23.734  -4.139  0.00  0.00    -0.299 OA
BRANCH  18  19
HETATM   19  C   UNK N   1      29.670  23.442  -3.450  0.00  0.00     0.125 C 
HETATM   20  C   UNK N   1      29.406  22.997  -2.022  0.00  0.00     0.040 C 
HETATM   21  C   UNK N   1      30.532  24.687  -3.417  0.00  0.00     0.040 C 
ENDBRANCH  18  19
ENDBRANCH   9  18
TORSDOF 3
ENDMDL
MODEL 3
REMARK VINA RESULT:      -5.8      2.611      4.815
REMARK  3 active torsions:
REMARK  status: ('A' for Active; 'I' for Inactive)
REMARK    1  A    between atoms: C_2  and  C_9 
REMARK       I    between atoms: C_11  and  N_16 
REMARK    2  A    between atoms: C_11  and  O_19 
REMARK    3  A    between atoms: C_12  and  O_19 
ROOT
HETATM    1  C   UNK N   1      33.726  17.804   6.980  0.00  0.00     0.245 A 
HETATM    2  C   UNK N   1      32.425  17.586   7.736  0.00  0.00     0.187 A 
HETATM    3  C   UNK N   1      31.449  17.006   5.469  0.00  0.00     0.070 A 
HETATM    4  C   UNK N   1      32.701  17.234   4.868  0.00  0.00     0.062 A 
HETATM    5  C   UNK N   1      32.855  17.116   3.480  0.00  0.00     0.035 A 
HETATM    6  C   UNK N   1      31.768  16.778   2.674  0.00  0.00     0.044 A 
HETATM    7  C   UNK N   1      30.522  16.554   3.251  0.00  0.00     0.118 A 
HETATM    8  C   UNK N   1      30.367  16.666   4.632  0.00  0.00     0.074 A 
HETATM    9  C   UNK N   1      30.051  17.013   7.507  0.00  0.00     0.368 C 
HETATM   10  F   UNK N   1      29.456  16.241   2.476  0.00  0.00    -0.206 F 
HETATM   11  N   UNK N   1      31.284  17.174   6.899  0.00  0.00    -0.278 N 
HETATM   12  N   UNK N   1      33.809  17.619   5.645  0.00  0.00    -0.323 N 
HETATM   13  O   UNK N   1      34.720  18.168   7.588  0.00  0.00    -0.271 OA
HETATM   14  O   UNK N   1      29.926  17.259   8.703  0.00  0.00    -0.238 OA
HETATM   15  H   UNK N   1      34.676  17.756   5.201  0.00  0.00     0.169 HD
ENDROOT
BRANCH   2  16
HETATM   16  C   UNK N   1      32.656  16.532   8.831  0.00  0.00     0.031 C 
HETATM   17  C   UNK N   1      33.071  15.187   8.251  0.00  0.00     0.007 C 
ENDBRANCH   2  16
BRANCH   9  18
HETATM   18  O   UNK N   1      28.970  16.591   6.799  0.00  0.00    -0.299 OA
BRANCH  18  19
HETATM   19  C   UNK N   1      27.679  17.059   6.941  0.00  0.00     0.125 C 
HETATM   20  C   UNK N   1      26.648  16.129   6.325  0.00  0.00     0.040 C 
HETATM   21  C   UNK N   1      27.582  18.409   6.260  0.00  0.00     0.040 C 
ENDBRANCH  18  19
ENDBRANCH   9  18
TORSDOF 3
ENDMDL
MODEL 4
REMARK VINA RESULT:      -5.7     13.321     14.656
REMARK  3 active torsions:
REMARK  status: ('A' for Active; 'I' for Inactive)
REMARK    1  A    between atoms: C_2  and  C_9 
REMARK       I    between atoms: C_11  and  N_16 
REMARK    2  A    between atoms: C_11  and  O_19 
REMARK    3  A    between atoms: C_12  and  O_19 
ROOT
HETATM    1  C   UNK N   1      26.135  24.364  -5.349  0.00  0.00     0.245 A 
HETATM    2  C   UNK N   1      25.703  25.647  -4.657  0.00  0.00     0.187 A 
HETATM    3  C   UNK N   1      28.178  26.006  -4.237  0.00  0.00     0.070 A 
HETATM    4  C   UNK N   1      28.469  24.798  -4.898  0.00  0.00     0.062 A 
HETATM    5  C   UNK N   1      29.789  24.339  -4.991  0.00  0.00     0.035 A 
HETATM    6  C   UNK N   1      30.833  25.070  -4.424  0.00  0.00     0.044 A 
HETATM    7  C   UNK N   1      30.563  26.264  -3.762  0.00  0.00     0.118 A 
HETATM    8  C   UNK N   1      29.251  26.725  -3.672  0.00  0.00     0.074 A 
HETATM    9  C   UNK N   1      26.487  27.606  -3.407  0.00  0.00     0.368 C 
HETATM   10  F   UNK N   1      31.567  26.973  -3.192  0.00  0.00    -0.206 F 
HETATM   11  N   UNK N   1      26.805  26.453  -4.103  0.00  0.00    -0.278 N 
HETATM   12  N   UNK N   1      27.436  24.015  -5.445  0.00  0.00    -0.323 N 
HETATM   13  O   UNK N   1      25.288  23.621  -5.819  0.00  0.00    -0.271 OA
HETATM   14  O   UNK N   1      25.310  27.904  -3.229  0.00  0.00    -0.238 OA
HETATM   15  H   UNK N   1      27.669  23.183  -5.916  0.00  0.00     0.169 HD
ENDROOT
BRANCH   2  16
HETATM   16  C   UNK N   1      24.900  26.503  -5.652  0.00  0.00     0.031 C 
HETATM   17  C   UNK N   1      25.703  26.828  -6.903  0.00  0.00     0.007 C 
ENDBRANCH   2  16
BRANCH   9  18
HETATM   18  O   UNK N   1      27.459  28.417  -2.911  0.00  0.00    -0.299 OA
BRANCH  18  19
HETATM   19  C   UNK N   1      27.420  29.797  -2.876  0.00  0.00     0.125 C 
HETATM   20  C   UNK N   1      27.507  30.419  -4.258  0.00  0.00     0.040 C 
HETATM   21  C   UNK N   1      28.591  30.287  -2.049  0.00  0.00     0.040 C 
ENDBRANCH  18  19
ENDBRANCH   9  18
TORSDOF 3
ENDMDL
MODEL 5
REMARK VINA RESULT:      -5.7      7.766      9.263
REMARK  3 active torsions:
REMARK  status: ('A' for Active; 'I' for Inactive)
REMARK    1  A    between atoms: C_2  and  C_9 
REMARK       I    between atoms: C_11  and  N_16 
REMARK    2  A    between atoms: C_11  and  O_19 
REMARK    3  A    between atoms: C_12  and  O_19 
ROOT
HETATM    1  C   UNK N   1      23.552  13.632   7.698  0.00  0.00     0.245 A 
HETATM    2  C   UNK N   1      22.191  13.723   8.369  0.00  0.00     0.187 A 
HETATM    3  C   UNK N   1      21.903  15.853   7.024  0.00  0.00     0.070 A 
HETATM    4  C   UNK N   1      23.181  15.674   6.461  0.00  0.00     0.062 A 
HETATM    5  C   UNK N   1      23.705  16.621   5.572  0.00  0.00     0.035 A 
HETATM    6  C   UNK N   1      22.972  17.759   5.238  0.00  0.00     0.044 A 
HETATM    7  C   UNK N   1      21.708  17.955   5.789  0.00  0.00     0.118 A 
HETATM    8  C   UNK N   1      21.183  17.012   6.670  0.00  0.00     0.074 A 
HETATM    9  C   UNK N   1      20.157  15.076   8.591  0.00  0.00     0.368 C 
HETATM   10  F   UNK N   1      20.994  19.065   5.484  0.00  0.00    -0.206 F 
HETATM   11  N   UNK N   1      21.385  14.893   7.978  0.00  0.00    -0.278 N 
HETATM   12  N   UNK N   1      23.966  14.559   6.809  0.00  0.00    -0.323 N 
HETATM   13  O   UNK N   1      24.298  12.707   7.977  0.00  0.00    -0.271 OA
HETATM   14  O   UNK N   1      19.792  14.298   9.466  0.00  0.00    -0.238 OA
HETATM   15  H   UNK N   1      24.849  14.450   6.388  0.00  0.00     0.169 HD
ENDROOT
BRANCH   2  16
HETATM   16  C   UNK N   1      21.399  12.440   8.064  0.00  0.00     0.031 C 
HETATM   17  C   UNK N   1      21.168  12.252   6.572  0.00  0.00     0.007 C 
ENDBRANCH   2  16
BRANCH   9  18
HETATM   18  O   UNK N   1      19.348  16.111   8.242  0.00  0.00    -0.299 OA
BRANCH  18  19
HETATM   19  C   UNK N   1      18.557  16.844   9.106  0.00  0.00     0.125 C 
HETATM   20  C   UNK N   1      17.153  17.064   8.570  0.00  0.00     0.040 C 
HETATM   21  C   UNK N   1      19.210  18.194   9.321  0.00  0.00     0.040 C 
ENDBRANCH  18  19
ENDBRANCH   9  18
TORSDOF 3
ENDMDL
MODEL 6
REMARK VINA RESULT:      -5.6      2.954      4.511
REMARK  3 active torsions:
REMARK  status: ('A' for Active; 'I' for Inactive)
REMARK    1  A    between atoms: C_2  and  C_9 
REMARK       I    between atoms: C_11  and  N_16 
REMARK    2  A    between atoms: C_11  and  O_19 
REMARK    3  A    between atoms: C_12  and  O_19 
ROOT
HETATM    1  C   UNK N   1      33.110  17.360   6.327  0.00  0.00     0.245 A 
HETATM    2  C   UNK N   1      32.159  16.631   5.391  0.00  0.00     0.187 A 
HETATM    3  C   UNK N   1      30.369  17.221   7.088  0.00  0.00     0.070 A 
HETATM    4  C   UNK N   1      31.332  17.870   7.882  0.00  0.00     0.062 A 
HETATM    5  C   UNK N   1      30.974  18.439   9.111  0.00  0.00     0.035 A 
HETATM    6  C   UNK N   1      29.658  18.363   9.569  0.00  0.00     0.044 A 
HETATM    7  C   UNK N   1      28.694  17.719   8.798  0.00  0.00     0.118 A 
HETATM    8  C   UNK N   1      29.048  17.157   7.573  0.00  0.00     0.074 A 
HETATM    9  C   UNK N   1      29.841  15.898   5.068  0.00  0.00     0.368 C 
HETATM   10  F   UNK N   1      27.417  17.624   9.240  0.00  0.00    -0.206 F 
HETATM   11  N   UNK N   1      30.756  16.594   5.839  0.00  0.00    -0.278 N 
HETATM   12  N   UNK N   1      32.677  17.930   7.472  0.00  0.00    -0.323 N 
HETATM   13  O   UNK N   1      34.297  17.423   6.048  0.00  0.00    -0.271 OA
HETATM   14  O   UNK N   1      30.220  15.297   4.068  0.00  0.00    -0.238 OA
HETATM   15  H   UNK N   1      33.327  18.404   8.039  0.00  0.00     0.169 HD
ENDROOT
BRANCH   2  16
HETATM   16  C   UNK N   1      32.229  17.287   4.001  0.00  0.00     0.031 C 
HETATM   17  C   UNK N   1      33.100  16.493   3.038  0.00  0.00     0.007 C 
ENDBRANCH   2  16
BRANCH   9  18
HETATM   18  O   UNK N   1      28.524  15.864   5.404  0.00  0.00    -0.299 OA
BRANCH  18  19
HETATM   19  C   UNK N   1      27.465  15.835   4.517  0.00  0.00     0.125 C 
HETATM   20  C   UNK N   1      27.182  17.194   3.901  0.00  0.00     0.040 C 
HETATM   21  C   UNK N   1      26.230  15.375   5.263  0.00  0.00     0.040 C 
ENDBRANCH  18  19
ENDBRANCH   9  18
TORSDOF 3
ENDMDL
MODEL 7
REMARK VINA RESULT:      -5.6      2.881      4.993
REMARK  3 active torsions:
REMARK  status: ('A' for Active; 'I' for Inactive)
REMARK    1  A    between atoms: C_2  and  C_9 
REMARK       I    between atoms: C_11  and  N_16 
REMARK    2  A    between atoms: C_11  and  O_19 
REMARK    3  A    between atoms: C_12  and  O_19 
ROOT
HETATM    1  C   UNK N   1      29.518  16.808   4.136  0.00  0.00     0.245 A 
HETATM    2  C   UNK N   1      30.916  16.395   4.568  0.00  0.00     0.187 A 
HETATM    3  C   UNK N   1      30.279  17.367   6.822  0.00  0.00     0.070 A 
HETATM    4  C   UNK N   1      29.009  17.708   6.319  0.00  0.00     0.062 A 
HETATM    5  C   UNK N   1      28.083  18.382   7.126  0.00  0.00     0.035 A 
HETATM    6  C   UNK N   1      28.410  18.732   8.437  0.00  0.00     0.044 A 
HETATM    7  C   UNK N   1      29.663  18.407   8.948  0.00  0.00     0.118 A 
HETATM    8  C   UNK N   1      30.584  17.732   8.148  0.00  0.00     0.074 A 
HETATM    9  C   UNK N   1      32.525  16.418   6.418  0.00  0.00     0.368 C 
HETATM   10  F   UNK N   1      29.997  18.756  10.213  0.00  0.00    -0.206 F 
HETATM   11  N   UNK N   1      31.249  16.710   5.968  0.00  0.00    -0.278 N 
HETATM   12  N   UNK N   1      28.661  17.408   4.989  0.00  0.00    -0.323 N 
HETATM   13  O   UNK N   1      29.161  16.606   2.986  0.00  0.00    -0.271 OA
HETATM   14  O   UNK N   1      33.353  15.952   5.642  0.00  0.00    -0.238 OA
HETATM   15  H   UNK N   1      27.761  17.643   4.669  0.00  0.00     0.169 HD
ENDROOT
BRANCH   2  16
HETATM   16  C   UNK N   1      31.082  14.883   4.336  0.00  0.00     0.031 C 
HETATM   17  C   UNK N   1      30.054  14.071   5.109  0.00  0.00     0.007 C 
ENDBRANCH   2  16
BRANCH   9  18
HETATM   18  O   UNK N   1      32.881  16.643   7.711  0.00  0.00    -0.299 OA
BRANCH  18  19
HETATM   19  C   UNK N   1      34.159  16.906   8.162  0.00  0.00     0.125 C 
HETATM   20  C   UNK N   1      34.396  16.402   9.575  0.00  0.00     0.040 C 
HETATM   21  C   UNK N   1      34.374  18.406   8.141  0.00  0.00     0.040 C 
ENDBRANCH  18  19
ENDBRANCH   9  18
TORSDOF 3
ENDMDL
MODEL 8
REMARK VINA RESULT:      -5.6      5.820      7.873
REMARK  3 active torsions:
REMARK  status: ('A' for Active; 'I' for Inactive)
REMARK    1  A    between atoms: C_2  and  C_9 
REMARK       I    between atoms: C_11  and  N_16 
REMARK    2  A    between atoms: C_11  and  O_19 
REMARK    3  A    between atoms: C_12  and  O_19 
ROOT
HETATM    1  C   UNK N   1      34.809  18.005   8.592  0.00  0.00     0.245 A 
HETATM    2  C   UNK N   1      34.327  17.055   7.508  0.00  0.00     0.187 A 
HETATM    3  C   UNK N   1      34.548  15.254   9.280  0.00  0.00     0.070 A 
HETATM    4  C   UNK N   1      34.986  16.217  10.208  0.00  0.00     0.062 A 
HETATM    5  C   UNK N   1      35.355  15.838  11.505  0.00  0.00     0.035 A 
HETATM    6  C   UNK N   1      35.300  14.499  11.893  0.00  0.00     0.044 A 
HETATM    7  C   UNK N   1      34.873  13.533  10.986  0.00  0.00     0.118 A 
HETATM    8  C   UNK N   1      34.502  13.909   9.697  0.00  0.00     0.074 A 
HETATM    9  C   UNK N   1      33.835  14.711   6.976  0.00  0.00     0.368 C 
HETATM   10  F   UNK N   1      34.832  12.228  11.346  0.00  0.00    -0.206 F 
HETATM   11  N   UNK N   1      34.212  15.646   7.925  0.00  0.00    -0.278 N 
HETATM   12  N   UNK N   1      35.095  17.571   9.838  0.00  0.00    -0.323 N 
HETATM   13  O   UNK N   1      34.955  19.189   8.332  0.00  0.00    -0.271 OA
HETATM   14  O   UNK N   1      33.652  15.062   5.815  0.00  0.00    -0.238 OA
HETATM   15  H   UNK N   1      35.388  18.225  10.512  0.00  0.00     0.169 HD
ENDROOT
BRANCH   2  16
HETATM   16  C   UNK N   1      32.963  17.541   6.989  0.00  0.00     0.031 C 
HETATM   17  C   UNK N   1      31.920  17.602   8.096  0.00  0.00     0.007 C 
ENDBRANCH   2  16
BRANCH   9  18
HETATM   18  O   UNK N   1      33.668  13.404   7.309  0.00  0.00    -0.299 OA
BRANCH  18  19
HETATM   19  C   UNK N   1      33.991  12.321   6.515  0.00  0.00     0.125 C 
HETATM   20  C   UNK N   1      33.318  11.039   6.972  0.00  0.00     0.040 C 
HETATM   21  C   UNK N   1      35.492  12.124   6.564  0.00  0.00     0.040 C 
ENDBRANCH  18  19
ENDBRANCH   9  18
TORSDOF 3
ENDMDL
MODEL 9
REMARK VINA RESULT:      -5.6     10.786     12.571
REMARK  3 active torsions:
REMARK  status: ('A' for Active; 'I' for Inactive)
REMARK    1  A    between atoms: C_2  and  C_9 
REMARK       I    between atoms: C_11  and  N_16 
REMARK    2  A    between atoms: C_11  and  O_19 
REMARK    3  A    between atoms: C_12  and  O_19 
ROOT
HETATM    1  C   UNK N   1      29.897  23.088  -2.551  0.00  0.00     0.245 A 
HETATM    2  C   UNK N   1      30.470  22.384  -3.770  0.00  0.00     0.187 A 
HETATM    3  C   UNK N   1      28.409  23.240  -4.974  0.00  0.00     0.070 A 
HETATM    4  C   UNK N   1      27.968  23.855  -3.788  0.00  0.00     0.062 A 
HETATM    5  C   UNK N   1      26.743  24.534  -3.753  0.00  0.00     0.035 A 
HETATM    6  C   UNK N   1      25.940  24.603  -4.891  0.00  0.00     0.044 A 
HETATM    7  C   UNK N   1      26.359  23.996  -6.071  0.00  0.00     0.118 A 
HETATM    8  C   UNK N   1      27.579  23.324  -6.110  0.00  0.00     0.074 A 
HETATM    9  C   UNK N   1      30.084  21.836  -6.129  0.00  0.00     0.368 C 
HETATM   10  F   UNK N   1      25.579  24.042  -7.178  0.00  0.00    -0.206 F 
HETATM   11  N   UNK N   1      29.656  22.500  -4.992  0.00  0.00    -0.278 N 
HETATM   12  N   UNK N   1      28.732  23.769  -2.609  0.00  0.00    -0.323 N 
HETATM   13  O   UNK N   1      30.492  23.029  -1.487  0.00  0.00    -0.271 OA
HETATM   14  O   UNK N   1      31.092  21.138  -6.083  0.00  0.00    -0.238 OA
HETATM   15  H   UNK N   1      28.408  24.223  -1.798  0.00  0.00     0.169 HD
ENDROOT
BRANCH   2  16
HETATM   16  C   UNK N   1      31.879  22.937  -4.047  0.00  0.00     0.031 C 
HETATM   17  C   UNK N   1      31.851  24.414  -4.412  0.00  0.00     0.007 C 
ENDBRANCH   2  16
BRANCH   9  18
HETATM   18  O   UNK N   1      29.401  21.939  -7.300  0.00  0.00    -0.299 OA
BRANCH  18  19
HETATM   19  C   UNK N   1      29.478  21.057  -8.360  0.00  0.00     0.125 C 
HETATM   20  C   UNK N   1      28.925  21.641  -9.648  0.00  0.00     0.040 C 
HETATM   21  C   UNK N   1      28.681  19.817  -8.009  0.00  0.00     0.040 C 
ENDBRANCH  18  19
ENDBRANCH   9  18
TORSDOF 3
ENDMDL
