REMARK  5 active torsions:
REMARK  status: ('A' for Active; 'I' for Inactive)
REMARK    1  A    between atoms: C_1  and  C_7 
REMARK    2  A    between atoms: C_4  and  B_8 
REMARK    3  A    between atoms: C_7  and  N_9 
REMARK       I    between atoms: N_9  and  C_10 
REMARK       I    between atoms: C_10  and  N_11 
REMARK    4  A    between atoms: C_16  and  C_18 
REMARK    5  A    between atoms: C_18  and  O_19 
ROOT
HETATM    1  C   UNK N   1       1.134  -1.673   0.003  0.00  0.00    -0.040 A 
HETATM    2  C   UNK N   1      -0.253  -1.762  -0.136  0.00  0.00     0.008 A 
HETATM    3  C   UNK N   1      -1.030  -0.607  -0.218  0.00  0.00     0.001 A 
HETATM    4  C   UNK N   1      -0.431   0.652  -0.150  0.00  0.00    -0.032 A 
HETATM    5  C   UNK N   1       0.959   0.754   0.004  0.00  0.00     0.001 A 
HETATM    6  C   UNK N   1       1.743  -0.407   0.074  0.00  0.00     0.008 A 
ENDROOT
BRANCH   1   7
HETATM    7  C   UNK N   1       1.916  -2.951   0.053  0.00  0.00     0.176 C 
BRANCH   7   8
HETATM    8  N   UNK N   1       3.344  -2.745   0.054  0.00  0.00    -0.223 N 
HETATM    9  C   UNK N   1       4.240  -3.847   0.024  0.00  0.00     0.665 C 
HETATM   10  N   UNK N   1       5.633  -3.614   0.000  0.00  0.00    -0.235 N 
HETATM   11  N   UNK N   1       3.798  -5.049   0.002  0.00  0.00    -0.235 N 
HETATM   12  H   UNK N   1       6.259  -4.373  -0.016  0.00  0.00     0.174 HD
HETATM   13  H   UNK N   1       5.978  -2.692   0.000  0.00  0.00     0.174 HD
HETATM   14  H   UNK N   1       2.828  -5.217  -0.015  0.00  0.00     0.174 HD
ATOM     15  HN  UNK N   1       4.451  -5.833   0.002  1.00  0.00     0.174 HD
HETATM   16  H   UNK N   1       3.703  -1.828   0.076  0.00  0.00     0.178 HD
ENDBRANCH   7   8
ENDBRANCH   1   7
BRANCH   4  17
HETATM   17  B   UNK N   1      -1.333   1.926  -0.245  0.00  0.00     0.534 B 
HETATM   18  O   UNK N   1      -2.779   1.808  -0.378  0.00  0.00    -0.414 OA
HETATM   19  C   UNK N   1      -3.175   3.001   0.230  0.00  0.00     0.148 C 
HETATM   20  C   UNK N   1      -2.014   3.983   0.081  0.00  0.00     0.178 C 
HETATM   21  O   UNK N   1      -0.820   3.252   0.063  0.00  0.00    -0.420 OA
BRANCH  19  22
HETATM   22  C   UNK N   1      -4.407   3.574  -0.452  0.00  0.00     0.196 C 
BRANCH  22  23
HETATM   23  O   UNK N   1      -5.487   2.700  -0.316  0.00  0.00    -0.398 OA
HETATM   24  H   UNK N   1      -6.388   3.046  -0.221  0.00  0.00     0.209 HD
ENDBRANCH  22  23
ENDBRANCH  19  22
ENDBRANCH   4  17
TORSDOF 5
