MODEL 1
REMARK VINA RESULT:      -6.0      0.000      0.000
REMARK  5 active torsions:
REMARK  status: ('A' for Active; 'I' for Inactive)
REMARK    1  A    between atoms: C_2  and  O_4 
REMARK    2  A    between atoms: C_2  and  C_5 
REMARK    3  A    between atoms: C_9  and  C_5 
REMARK    4  A    between atoms: C_11  and  C_14 
REMARK    5  A    between atoms: O_12  and  C_17 
ROOT
HETATM    1  N   UNK N   1      34.593  12.600  14.313  0.00  0.00    -0.270 N 
ATOM      2  HN  UNK N   1      33.769  12.049  14.552  1.00  0.00     0.194 HD
HETATM    3  O   UNK N   1      34.876  13.017  13.103  0.00  0.00    -0.274 OA
HETATM    4  C   UNK N   1      36.067  13.721  13.045  0.00  0.00     0.167 A 
HETATM    5  C   UNK N   1      36.554  13.755  14.505  0.00  0.00     0.095 A 
HETATM    6  C   UNK N   1      35.474  12.966  15.150  0.00  0.00     0.045 A 
ENDROOT
BRANCH   6   7
HETATM    7  C   UNK N   1      35.435  12.641  16.589  0.00  0.00    -0.011 A 
HETATM    8  C   UNK N   1      35.200  13.633  17.552  0.00  0.00     0.016 A 
HETATM    9  C   UNK N   1      35.153  13.295  18.909  0.00  0.00     0.037 A 
HETATM   10  C   UNK N   1      35.344  11.967  19.309  0.00  0.00     0.065 A 
HETATM   11  C   UNK N   1      35.583  10.979  18.353  0.00  0.00     0.037 A 
HETATM   12  C   UNK N   1      35.624  11.313  16.999  0.00  0.00     0.016 A 
BRANCH  10  13
HETATM   13  O   UNK N   1      35.299  11.642  20.610  0.00  0.00    -0.361 OA
HETATM   14  H   UNK N   1      35.548  10.783  20.888  0.00  0.00     0.217 HD
ENDBRANCH  10  13
ENDBRANCH   6   7
BRANCH   4  15
HETATM   15  C   UNK N   1      35.846  15.152  12.570  0.00  0.00     0.146 C 
BRANCH  15  16
HETATM   16  C   UNK N   1      36.300  15.368  11.162  0.00  0.00     0.260 C 
HETATM   17  O   UNK N   1      36.406  16.503  10.717  0.00  0.00    -0.265 OA
BRANCH  16  18
HETATM   18  O   UNK N   1      36.592  14.289  10.397  0.00  0.00    -0.326 OA
HETATM   19  C   UNK N   1      37.762  14.179   9.684  0.00  0.00     0.213 C 
ENDBRANCH  16  18
ENDBRANCH  15  16
ENDBRANCH   4  15
TORSDOF 5
ENDMDL
MODEL 2
REMARK VINA RESULT:      -6.0      0.688      1.715
REMARK  5 active torsions:
REMARK  status: ('A' for Active; 'I' for Inactive)
REMARK    1  A    between atoms: C_2  and  O_4 
REMARK    2  A    between atoms: C_2  and  C_5 
REMARK    3  A    between atoms: C_9  and  C_5 
REMARK    4  A    between atoms: C_11  and  C_14 
REMARK    5  A    between atoms: O_12  and  C_17 
ROOT
HETATM    1  N   UNK N   1      34.715  12.602  14.116  0.00  0.00    -0.270 N 
ATOM      2  HN  UNK N   1      33.939  11.970  14.312  1.00  0.00     0.194 HD
HETATM    3  O   UNK N   1      35.000  13.073  12.926  0.00  0.00    -0.274 OA
HETATM    4  C   UNK N   1      36.119  13.888  12.928  0.00  0.00     0.167 A 
HETATM    5  C   UNK N   1      36.548  13.933  14.407  0.00  0.00     0.095 A 
HETATM    6  C   UNK N   1      35.526  13.030  14.994  0.00  0.00     0.045 A 
ENDROOT
BRANCH   6   7
HETATM    7  C   UNK N   1      35.467  12.667  16.423  0.00  0.00    -0.011 A 
HETATM    8  C   UNK N   1      35.671  11.346  16.847  0.00  0.00     0.016 A 
HETATM    9  C   UNK N   1      35.624  11.033  18.210  0.00  0.00     0.037 A 
HETATM   10  C   UNK N   1      35.369  12.035  19.152  0.00  0.00     0.065 A 
HETATM   11  C   UNK N   1      35.159  13.349  18.733  0.00  0.00     0.037 A 
HETATM   12  C   UNK N   1      35.212  13.665  17.375  0.00  0.00     0.016 A 
BRANCH  10  13
HETATM   13  O   UNK N   1      35.324  11.734  20.460  0.00  0.00    -0.361 OA
HETATM   14  H   UNK N   1      35.892  11.077  20.809  0.00  0.00     0.217 HD
ENDBRANCH  10  13
ENDBRANCH   6   7
BRANCH   4  15
HETATM   15  C   UNK N   1      35.780  15.303  12.475  0.00  0.00     0.146 C 
BRANCH  15  16
HETATM   16  C   UNK N   1      36.200  15.573  11.066  0.00  0.00     0.260 C 
HETATM   17  O   UNK N   1      36.816  14.725  10.435  0.00  0.00    -0.265 OA
BRANCH  16  18
HETATM   18  O   UNK N   1      35.886  16.767  10.508  0.00  0.00    -0.326 OA
HETATM   19  C   UNK N   1      34.852  16.919   9.615  0.00  0.00     0.213 C 
ENDBRANCH  16  18
ENDBRANCH  15  16
ENDBRANCH   4  15
TORSDOF 5
ENDMDL
MODEL 3
REMARK VINA RESULT:      -5.7      5.156      9.883
REMARK  5 active torsions:
REMARK  status: ('A' for Active; 'I' for Inactive)
REMARK    1  A    between atoms: C_2  and  O_4 
REMARK    2  A    between atoms: C_2  and  C_5 
REMARK    3  A    between atoms: C_9  and  C_5 
REMARK    4  A    between atoms: C_11  and  C_14 
REMARK    5  A    between atoms: O_12  and  C_17 
ROOT
HETATM    1  N   UNK N   1      34.602  17.888   9.021  0.00  0.00    -0.270 N 
ATOM      2  HN  UNK N   1      34.391  18.869   8.833  1.00  0.00     0.194 HD
HETATM    3  O   UNK N   1      35.380  17.474   9.992  0.00  0.00    -0.274 OA
HETATM    4  C   UNK N   1      35.522  16.097  10.012  0.00  0.00     0.167 A 
HETATM    5  C   UNK N   1      34.626  15.611   8.858  0.00  0.00     0.095 A 
HETATM    6  C   UNK N   1      34.143  16.918   8.344  0.00  0.00     0.045 A 
ENDROOT
BRANCH   6   7
HETATM    7  C   UNK N   1      33.246  17.069   7.183  0.00  0.00    -0.011 A 
HETATM    8  C   UNK N   1      31.853  16.974   7.323  0.00  0.00     0.016 A 
HETATM    9  C   UNK N   1      31.024  17.136   6.208  0.00  0.00     0.037 A 
HETATM   10  C   UNK N   1      31.582  17.389   4.949  0.00  0.00     0.065 A 
HETATM   11  C   UNK N   1      32.967  17.479   4.806  0.00  0.00     0.037 A 
HETATM   12  C   UNK N   1      33.795  17.324   5.918  0.00  0.00     0.016 A 
BRANCH  10  13
HETATM   13  O   UNK N   1      30.787  17.545   3.879  0.00  0.00    -0.361 OA
HETATM   14  H   UNK N   1      30.832  18.332   3.372  0.00  0.00     0.217 HD
ENDBRANCH  10  13
ENDBRANCH   6   7
BRANCH   4  15
HETATM   15  C   UNK N   1      35.004  15.502  11.316  0.00  0.00     0.146 C 
BRANCH  15  16
HETATM   16  C   UNK N   1      36.044  14.709  12.039  0.00  0.00     0.260 C 
HETATM   17  O   UNK N   1      36.705  13.872  11.441  0.00  0.00    -0.265 OA
BRANCH  16  18
HETATM   18  O   UNK N   1      36.237  14.936  13.361  0.00  0.00    -0.326 OA
HETATM   19  C   UNK N   1      36.275  13.923  14.290  0.00  0.00     0.213 C 
ENDBRANCH  16  18
ENDBRANCH  15  16
ENDBRANCH   4  15
TORSDOF 5
ENDMDL
MODEL 4
REMARK VINA RESULT:      -5.5     17.007     19.544
REMARK  5 active torsions:
REMARK  status: ('A' for Active; 'I' for Inactive)
REMARK    1  A    between atoms: C_2  and  O_4 
REMARK    2  A    between atoms: C_2  and  C_5 
REMARK    3  A    between atoms: C_9  and  C_5 
REMARK    4  A    between atoms: C_11  and  C_14 
REMARK    5  A    between atoms: O_12  and  C_17 
ROOT
HETATM    1  N   UNK N   1      22.415  16.703   5.815  0.00  0.00    -0.270 N 
ATOM      2  HN  UNK N   1      23.308  17.011   5.430  1.00  0.00     0.194 HD
HETATM    3  O   UNK N   1      22.292  15.960   6.888  0.00  0.00    -0.274 OA
HETATM    4  C   UNK N   1      20.974  15.660   7.183  0.00  0.00     0.167 A 
HETATM    5  C   UNK N   1      20.170  16.399   6.097  0.00  0.00     0.095 A 
HETATM    6  C   UNK N   1      21.285  16.990   5.315  0.00  0.00     0.045 A 
ENDROOT
BRANCH   6   7
HETATM    7  C   UNK N   1      21.100  17.805   4.099  0.00  0.00    -0.011 A 
HETATM    8  C   UNK N   1      21.651  19.091   3.996  0.00  0.00     0.016 A 
HETATM    9  C   UNK N   1      21.474  19.837   2.825  0.00  0.00     0.037 A 
HETATM   10  C   UNK N   1      20.743  19.304   1.757  0.00  0.00     0.065 A 
HETATM   11  C   UNK N   1      20.189  18.027   1.859  0.00  0.00     0.037 A 
HETATM   12  C   UNK N   1      20.370  17.280   3.023  0.00  0.00     0.016 A 
BRANCH  10  13
HETATM   13  O   UNK N   1      20.573  20.020   0.634  0.00  0.00    -0.361 OA
HETATM   14  H   UNK N   1      21.217  20.650   0.378  0.00  0.00     0.217 HD
ENDBRANCH  10  13
ENDBRANCH   6   7
BRANCH   4  15
HETATM   15  C   UNK N   1      20.568  16.204   8.547  0.00  0.00     0.146 C 
BRANCH  15  16
HETATM   16  C   UNK N   1      19.439  15.441   9.160  0.00  0.00     0.260 C 
HETATM   17  O   UNK N   1      19.611  14.293   9.546  0.00  0.00    -0.265 OA
BRANCH  16  18
HETATM   18  O   UNK N   1      18.232  16.043   9.278  0.00  0.00    -0.326 OA
HETATM   19  C   UNK N   1      18.083  17.410   9.297  0.00  0.00     0.213 C 
ENDBRANCH  16  18
ENDBRANCH  15  16
ENDBRANCH   4  15
TORSDOF 5
ENDMDL
MODEL 5
REMARK VINA RESULT:      -5.5     11.598     14.133
REMARK  5 active torsions:
REMARK  status: ('A' for Active; 'I' for Inactive)
REMARK    1  A    between atoms: C_2  and  O_4 
REMARK    2  A    between atoms: C_2  and  C_5 
REMARK    3  A    between atoms: C_9  and  C_5 
REMARK    4  A    between atoms: C_11  and  C_14 
REMARK    5  A    between atoms: O_12  and  C_17 
ROOT
HETATM    1  N   UNK N   1      27.374  17.678   4.442  0.00  0.00    -0.270 N 
ATOM      2  HN  UNK N   1      27.416  16.659   4.448  1.00  0.00     0.194 HD
HETATM    3  O   UNK N   1      26.638  18.381   3.614  0.00  0.00    -0.274 OA
HETATM    4  C   UNK N   1      26.783  19.745   3.798  0.00  0.00     0.167 A 
HETATM    5  C   UNK N   1      27.759  19.863   4.983  0.00  0.00     0.095 A 
HETATM    6  C   UNK N   1      28.027  18.424   5.234  0.00  0.00     0.045 A 
ENDROOT
BRANCH   6   7
HETATM    7  C   UNK N   1      28.948  17.924   6.272  0.00  0.00    -0.011 A 
HETATM    8  C   UNK N   1      29.992  17.042   5.955  0.00  0.00     0.016 A 
HETATM    9  C   UNK N   1      30.860  16.595   6.957  0.00  0.00     0.037 A 
HETATM   10  C   UNK N   1      30.687  17.022   8.278  0.00  0.00     0.065 A 
HETATM   11  C   UNK N   1      29.646  17.895   8.598  0.00  0.00     0.037 A 
HETATM   12  C   UNK N   1      28.783  18.347   7.599  0.00  0.00     0.016 A 
BRANCH  10  13
HETATM   13  O   UNK N   1      31.520  16.593   9.239  0.00  0.00    -0.361 OA
HETATM   14  H   UNK N   1      31.475  16.965  10.098  0.00  0.00     0.217 HD
ENDBRANCH  10  13
ENDBRANCH   6   7
BRANCH   4  15
HETATM   15  C   UNK N   1      25.462  20.399   4.186  0.00  0.00     0.146 C 
BRANCH  15  16
HETATM   16  C   UNK N   1      24.504  20.484   3.042  0.00  0.00     0.260 C 
HETATM   17  O   UNK N   1      24.906  20.770   1.923  0.00  0.00    -0.265 OA
BRANCH  16  18
HETATM   18  O   UNK N   1      23.191  20.238   3.270  0.00  0.00    -0.326 OA
HETATM   19  C   UNK N   1      22.736  19.039   3.767  0.00  0.00     0.213 C 
ENDBRANCH  16  18
ENDBRANCH  15  16
ENDBRANCH   4  15
TORSDOF 5
ENDMDL
MODEL 6
REMARK VINA RESULT:      -5.4     25.048     26.246
REMARK  5 active torsions:
REMARK  status: ('A' for Active; 'I' for Inactive)
REMARK    1  A    between atoms: C_2  and  O_4 
REMARK    2  A    between atoms: C_2  and  C_5 
REMARK    3  A    between atoms: C_9  and  C_5 
REMARK    4  A    between atoms: C_11  and  C_14 
REMARK    5  A    between atoms: O_12  and  C_17 
ROOT
HETATM    1  N   UNK N   1      26.373  25.764  -3.870  0.00  0.00    -0.270 N 
ATOM      2  HN  UNK N   1      26.806  24.875  -3.620  1.00  0.00     0.194 HD
HETATM    3  O   UNK N   1      26.293  26.797  -3.067  0.00  0.00    -0.274 OA
HETATM    4  C   UNK N   1      25.635  27.871  -3.641  0.00  0.00     0.167 A 
HETATM    5  C   UNK N   1      25.300  27.388  -5.064  0.00  0.00     0.095 A 
HETATM    6  C   UNK N   1      25.845  26.008  -4.998  0.00  0.00     0.045 A 
ENDROOT
BRANCH   6   7
HETATM    7  C   UNK N   1      25.774  25.037  -6.106  0.00  0.00    -0.011 A 
HETATM    8  C   UNK N   1      25.767  23.656  -5.863  0.00  0.00     0.016 A 
HETATM    9  C   UNK N   1      25.683  22.757  -6.933  0.00  0.00     0.037 A 
HETATM   10  C   UNK N   1      25.612  23.234  -8.246  0.00  0.00     0.065 A 
HETATM   11  C   UNK N   1      25.624  24.607  -8.492  0.00  0.00     0.037 A 
HETATM   12  C   UNK N   1      25.701  25.505  -7.427  0.00  0.00     0.016 A 
BRANCH  10  13
HETATM   13  O   UNK N   1      25.531  22.371  -9.272  0.00  0.00    -0.361 OA
HETATM   14  H   UNK N   1      25.459  22.692 -10.149  0.00  0.00     0.217 HD
ENDBRANCH  10  13
ENDBRANCH   6   7
BRANCH   4  15
HETATM   15  C   UNK N   1      26.541  29.093  -3.740  0.00  0.00     0.146 C 
BRANCH  15  16
HETATM   16  C   UNK N   1      27.712  29.018  -2.815  0.00  0.00     0.260 C 
HETATM   17  O   UNK N   1      27.592  29.345  -1.642  0.00  0.00    -0.265 OA
BRANCH  16  18
HETATM   18  O   UNK N   1      28.900  28.582  -3.299  0.00  0.00    -0.326 OA
HETATM   19  C   UNK N   1      29.115  28.346  -4.636  0.00  0.00     0.213 C 
ENDBRANCH  16  18
ENDBRANCH  15  16
ENDBRANCH   4  15
TORSDOF 5
ENDMDL
MODEL 7
REMARK VINA RESULT:      -5.3     20.991     24.081
REMARK  5 active torsions:
REMARK  status: ('A' for Active; 'I' for Inactive)
REMARK    1  A    between atoms: C_2  and  O_4 
REMARK    2  A    between atoms: C_2  and  C_5 
REMARK    3  A    between atoms: C_9  and  C_5 
REMARK    4  A    between atoms: C_11  and  C_14 
REMARK    5  A    between atoms: O_12  and  C_17 
ROOT
HETATM    1  N   UNK N   1      26.868  25.492  -4.907  0.00  0.00    -0.270 N 
ATOM      2  HN  UNK N   1      26.431  24.577  -4.797  1.00  0.00     0.194 HD
HETATM    3  O   UNK N   1      26.286  26.525  -5.468  0.00  0.00    -0.274 OA
HETATM    4  C   UNK N   1      27.106  27.639  -5.518  0.00  0.00     0.167 A 
HETATM    5  C   UNK N   1      28.400  27.183  -4.818  0.00  0.00     0.095 A 
HETATM    6  C   UNK N   1      28.043  25.773  -4.520  0.00  0.00     0.045 A 
ENDROOT
BRANCH   6   7
HETATM    7  C   UNK N   1      28.949  24.814  -3.860  0.00  0.00    -0.011 A 
HETATM    8  C   UNK N   1      28.456  23.822  -3.000  0.00  0.00     0.016 A 
HETATM    9  C   UNK N   1      29.336  22.914  -2.399  0.00  0.00     0.037 A 
HETATM   10  C   UNK N   1      30.710  22.998  -2.651  0.00  0.00     0.065 A 
HETATM   11  C   UNK N   1      31.205  23.987  -3.502  0.00  0.00     0.037 A 
HETATM   12  C   UNK N   1      30.328  24.889  -4.107  0.00  0.00     0.016 A 
BRANCH  10  13
HETATM   13  O   UNK N   1      31.554  22.128  -2.075  0.00  0.00    -0.361 OA
HETATM   14  H   UNK N   1      31.219  21.428  -1.549  0.00  0.00     0.217 HD
ENDBRANCH  10  13
ENDBRANCH   6   7
BRANCH   4  15
HETATM   15  C   UNK N   1      26.511  28.804  -4.735  0.00  0.00     0.146 C 
BRANCH  15  16
HETATM   16  C   UNK N   1      26.363  28.503  -3.279  0.00  0.00     0.260 C 
HETATM   17  O   UNK N   1      25.479  27.751  -2.893  0.00  0.00    -0.265 OA
BRANCH  16  18
HETATM   18  O   UNK N   1      27.223  29.076  -2.403  0.00  0.00    -0.326 OA
HETATM   19  C   UNK N   1      27.603  30.395  -2.491  0.00  0.00     0.213 C 
ENDBRANCH  16  18
ENDBRANCH  15  16
ENDBRANCH   4  15
TORSDOF 5
ENDMDL
MODEL 8
REMARK VINA RESULT:      -5.3      2.085      7.120
REMARK  5 active torsions:
REMARK  status: ('A' for Active; 'I' for Inactive)
REMARK    1  A    between atoms: C_2  and  O_4 
REMARK    2  A    between atoms: C_2  and  C_5 
REMARK    3  A    between atoms: C_9  and  C_5 
REMARK    4  A    between atoms: C_11  and  C_14 
REMARK    5  A    between atoms: O_12  and  C_17 
ROOT
HETATM    1  N   UNK N   1      36.654  14.646  14.119  0.00  0.00    -0.270 N 
ATOM      2  HN  UNK N   1      36.585  15.663  14.159  1.00  0.00     0.194 HD
HETATM    3  O   UNK N   1      37.017  13.891  15.129  0.00  0.00    -0.274 OA
HETATM    4  C   UNK N   1      37.056  12.547  14.804  0.00  0.00     0.167 A 
HETATM    5  C   UNK N   1      36.590  12.502  13.337  0.00  0.00     0.095 A 
HETATM    6  C   UNK N   1      36.401  13.953  13.087  0.00  0.00     0.045 A 
ENDROOT
BRANCH   6   7
HETATM    7  C   UNK N   1      35.976  14.520  11.793  0.00  0.00    -0.011 A 
HETATM    8  C   UNK N   1      35.748  13.698  10.679  0.00  0.00     0.016 A 
HETATM    9  C   UNK N   1      35.331  14.261   9.467  0.00  0.00     0.037 A 
HETATM   10  C   UNK N   1      35.146  15.644   9.362  0.00  0.00     0.065 A 
HETATM   11  C   UNK N   1      35.378  16.464  10.467  0.00  0.00     0.037 A 
HETATM   12  C   UNK N   1      35.787  15.905  11.677  0.00  0.00     0.016 A 
BRANCH  10  13
HETATM   13  O   UNK N   1      34.746  16.183   8.200  0.00  0.00    -0.361 OA
HETATM   14  H   UNK N   1      33.868  16.054   7.901  0.00  0.00     0.217 HD
ENDBRANCH  10  13
ENDBRANCH   6   7
BRANCH   4  15
HETATM   15  C   UNK N   1      36.079  11.740  15.652  0.00  0.00     0.146 C 
BRANCH  15  16
HETATM   16  C   UNK N   1      35.070  12.599  16.342  0.00  0.00     0.260 C 
HETATM   17  O   UNK N   1      34.164  13.117  15.705  0.00  0.00    -0.265 OA
BRANCH  16  18
HETATM   18  O   UNK N   1      35.180  12.789  17.679  0.00  0.00    -0.326 OA
HETATM   19  C   UNK N   1      35.205  14.039  18.252  0.00  0.00     0.213 C 
ENDBRANCH  16  18
ENDBRANCH  15  16
ENDBRANCH   4  15
TORSDOF 5
ENDMDL
MODEL 9
REMARK VINA RESULT:      -5.3     10.037     13.535
REMARK  5 active torsions:
REMARK  status: ('A' for Active; 'I' for Inactive)
REMARK    1  A    between atoms: C_2  and  O_4 
REMARK    2  A    between atoms: C_2  and  C_5 
REMARK    3  A    between atoms: C_9  and  C_5 
REMARK    4  A    between atoms: C_11  and  C_14 
REMARK    5  A    between atoms: O_12  and  C_17 
ROOT
HETATM    1  N   UNK N   1      30.523  17.889   4.107  0.00  0.00    -0.270 N 
ATOM      2  HN  UNK N   1      30.548  18.321   3.183  1.00  0.00     0.194 HD
HETATM    3  O   UNK N   1      31.532  17.253   4.652  0.00  0.00    -0.274 OA
HETATM    4  C   UNK N   1      31.228  16.738   5.900  0.00  0.00     0.167 A 
HETATM    5  C   UNK N   1      29.778  17.191   6.149  0.00  0.00     0.095 A 
HETATM    6  C   UNK N   1      29.511  17.900   4.872  0.00  0.00     0.045 A 
ENDROOT
BRANCH   6   7
HETATM    7  C   UNK N   1      28.222  18.532   4.532  0.00  0.00    -0.011 A 
HETATM    8  C   UNK N   1      28.011  19.905   4.731  0.00  0.00     0.016 A 
HETATM    9  C   UNK N   1      26.784  20.482   4.385  0.00  0.00     0.037 A 
HETATM   10  C   UNK N   1      25.764  19.691   3.845  0.00  0.00     0.065 A 
HETATM   11  C   UNK N   1      25.969  18.325   3.650  0.00  0.00     0.037 A 
HETATM   12  C   UNK N   1      27.193  17.748   3.988  0.00  0.00     0.016 A 
BRANCH  10  13
HETATM   13  O   UNK N   1      24.587  20.245   3.513  0.00  0.00    -0.361 OA
HETATM   14  H   UNK N   1      23.988  20.510   4.183  0.00  0.00     0.217 HD
ENDBRANCH  10  13
ENDBRANCH   6   7
BRANCH   4  15
HETATM   15  C   UNK N   1      32.120  17.334   6.982  0.00  0.00     0.146 C 
BRANCH  15  16
HETATM   16  C   UNK N   1      33.573  17.101   6.724  0.00  0.00     0.260 C 
HETATM   17  O   UNK N   1      34.331  18.049   6.569  0.00  0.00    -0.265 OA
BRANCH  16  18
HETATM   18  O   UNK N   1      34.030  15.827   6.668  0.00  0.00    -0.326 OA
HETATM   19  C   UNK N   1      34.889  15.389   5.687  0.00  0.00     0.213 C 
ENDBRANCH  16  18
ENDBRANCH  15  16
ENDBRANCH   4  15
TORSDOF 5
ENDMDL
