REMARK  5 active torsions:
REMARK  status: ('A' for Active; 'I' for Inactive)
REMARK    1  A    between atoms: C_2  and  O_4 
REMARK    2  A    between atoms: C_2  and  C_5 
REMARK    3  A    between atoms: C_9  and  C_5 
REMARK    4  A    between atoms: C_11  and  C_14 
REMARK    5  A    between atoms: O_12  and  C_17 
ROOT
HETATM    1  N   UNK N   1       0.360  -1.461   0.259  0.00  0.00    -0.270 N 
ATOM      2  HN  UNK N   1       0.990  -2.200   0.571  1.00  0.00     0.194 HD
HETATM    3  O   UNK N   1      -0.935  -1.608   0.115  0.00  0.00    -0.274 OA
HETATM    4  C   UNK N   1      -1.555  -0.460  -0.347  0.00  0.00     0.167 A 
HETATM    5  C   UNK N   1      -0.411   0.565  -0.458  0.00  0.00     0.095 A 
HETATM    6  C   UNK N   1       0.732  -0.285  -0.039  0.00  0.00     0.045 A 
ENDROOT
BRANCH   6   7
HETATM    7  C   UNK N   1       2.131   0.180   0.016  0.00  0.00    -0.011 A 
HETATM    8  C   UNK N   1       3.177  -0.699   0.334  0.00  0.00     0.016 A 
HETATM    9  C   UNK N   1       4.497  -0.235   0.364  0.00  0.00     0.037 A 
HETATM   10  C   UNK N   1       4.776   1.107   0.082  0.00  0.00     0.065 A 
HETATM   11  C   UNK N   1       3.737   1.985  -0.229  0.00  0.00     0.037 A 
HETATM   12  C   UNK N   1       2.421   1.523  -0.266  0.00  0.00     0.016 A 
BRANCH  10  13
HETATM   13  O   UNK N   1       6.042   1.552   0.111  0.00  0.00    -0.361 OA
HETATM   14  H   UNK N   1       6.753   0.942   0.130  0.00  0.00     0.217 HD
ENDBRANCH  10  13
ENDBRANCH   6   7
BRANCH   4  15
HETATM   15  C   UNK N   1      -2.582   0.060   0.652  0.00  0.00     0.146 C 
BRANCH  15  16
HETATM   16  C   UNK N   1      -3.958  -0.459   0.386  0.00  0.00     0.260 C 
HETATM   17  O   UNK N   1      -4.181  -1.661   0.428  0.00  0.00    -0.265 OA
BRANCH  16  18
HETATM   18  O   UNK N   1      -4.945   0.424   0.101  0.00  0.00    -0.326 OA
HETATM   19  C   UNK N   1      -6.238   0.034  -0.157  0.00  0.00     0.213 C 
ENDBRANCH  16  18
ENDBRANCH  15  16
ENDBRANCH   4  15
TORSDOF 5
