MODEL 1
REMARK VINA RESULT:      -7.4      0.000      0.000
REMARK  8 active torsions:
REMARK  status: ('A' for Active; 'I' for Inactive)
REMARK    1  A    between atoms: C_11  and  C_12 
REMARK       I    between atoms: C_19  and  N_20 
REMARK    2  A    between atoms: N_20  and  C_21 
REMARK    3  A    between atoms: C_26  and  O_27 
REMARK    4  A    between atoms: O_27  and  C_28 
REMARK    5  A    between atoms: C_28  and  C_29 
REMARK    6  A    between atoms: C_29  and  O_30 
REMARK    7  A    between atoms: C_29  and  C_31 
REMARK    8  A    between atoms: C_31  and  N_32 
ROOT
HETATM    1  C   UNK N   1      22.787  18.347   4.409  0.00  0.00     0.079 A 
HETATM    2  C   UNK N   1      21.743  18.756   3.574  0.00  0.00     0.050 A 
HETATM    3  C   UNK N   1      21.932  19.879   2.764  0.00  0.00     0.108 A 
HETATM    4  N   UNK N   1      23.128  20.531   2.764  0.00  0.00    -0.202 N 
ATOM      5  HN  UNK N   1      23.265  21.337   2.153  1.00  0.00     0.183 HD
HETATM    6  N   UNK N   1      23.949  19.040   4.385  0.00  0.00    -0.189 N 
ATOM      7  HN  UNK N   1      24.712  18.745   4.996  1.00  0.00     0.184 HD
HETATM    8  C   UNK N   1      24.136  20.116   3.573  0.00  0.00     0.683 A 
HETATM    9  N   UNK N   1      25.423  20.711   3.484  0.00  0.00    -0.192 N 
HETATM   10  H   UNK N   1      25.593  21.447   2.853  0.00  0.00     0.184 HD
ENDROOT
BRANCH   9  11
HETATM   11  C   UNK N   1      26.456  20.224   4.320  0.00  0.00     0.049 A 
HETATM   12  C   UNK N   1      27.178  19.085   3.944  0.00  0.00     0.033 A 
HETATM   13  C   UNK N   1      28.022  18.453   4.867  0.00  0.00     0.039 A 
HETATM   14  C   UNK N   1      28.141  18.956   6.170  0.00  0.00     0.069 A 
HETATM   15  C   UNK N   1      27.445  20.123   6.522  0.00  0.00     0.039 A 
HETATM   16  C   UNK N   1      26.599  20.742   5.610  0.00  0.00     0.033 A 
BRANCH  14  17
HETATM   17  O   UNK N   1      28.904  18.303   7.079  0.00  0.00    -0.349 OA
BRANCH  17  18
HETATM   18  C   UNK N   1      28.585  18.315   8.423  0.00  0.00     0.209 C 
BRANCH  18  19
HETATM   19  C   UNK N   1      29.740  17.886   9.314  0.00  0.00     0.170 C 
BRANCH  19  20
HETATM   20  O   UNK N   1      29.798  18.769  10.390  0.00  0.00    -0.392 OA
HETATM   21  H   UNK N   1      30.086  18.930  11.302  0.00  0.00     0.210 HD
ENDBRANCH  19  20
BRANCH  19  22
HETATM   22  C   UNK N   1      31.070  17.947   8.566  0.00  0.00     0.305 C 
BRANCH  22  23
HETATM   23  N   UNK N   1      31.785  16.684   8.675  0.00  0.00     0.082 N 
HETATM   24  C   UNK N   1      31.518  15.930   7.465  0.00  0.00     0.309 C 
HETATM   25  C   UNK N   1      33.205  16.996   8.671  0.00  0.00     0.309 C 
ENDBRANCH  22  23
ENDBRANCH  19  22
ENDBRANCH  18  19
ENDBRANCH  17  18
ENDBRANCH  14  17
ENDBRANCH   9  11
BRANCH   1  26
HETATM   26  C   UNK N   1      22.683  17.140   5.269  0.00  0.00     0.090 A 
HETATM   27  C   UNK N   1      23.367  15.935   5.107  0.00  0.00     0.036 A 
HETATM   28  C   UNK N   1      24.379  15.601   4.071  0.00  0.00     0.070 C 
HETATM   29  N   UNK N   1      22.983  15.064   6.067  0.00  0.00    -0.344 N 
HETATM   30  C   UNK N   1      22.072  15.743   6.790  0.00  0.00     0.112 A 
ATOM     31  HN  UNK N   1      23.311  14.109   6.211  1.00  0.00     0.167 HD
HETATM   32  C   UNK N   1      21.367  15.247   7.881  0.00  0.00     0.049 A 
HETATM   33  N   UNK N   1      21.876  16.994   6.336  0.00  0.00    -0.304 N 
HETATM   34  C   UNK N   1      20.436  16.099   8.492  0.00  0.00     0.005 A 
HETATM   35  C   UNK N   1      20.240  17.406   8.002  0.00  0.00     0.018 A 
HETATM   36  C   UNK N   1      20.983  17.850   6.899  0.00  0.00     0.099 A 
ENDBRANCH   1  26
TORSDOF 8
ENDMDL
MODEL 2
REMARK VINA RESULT:      -7.3      3.421      7.003
REMARK  8 active torsions:
REMARK  status: ('A' for Active; 'I' for Inactive)
REMARK    1  A    between atoms: C_11  and  C_12 
REMARK       I    between atoms: C_19  and  N_20 
REMARK    2  A    between atoms: N_20  and  C_21 
REMARK    3  A    between atoms: C_26  and  O_27 
REMARK    4  A    between atoms: O_27  and  C_28 
REMARK    5  A    between atoms: C_28  and  C_29 
REMARK    6  A    between atoms: C_29  and  O_30 
REMARK    7  A    between atoms: C_29  and  C_31 
REMARK    8  A    between atoms: C_31  and  N_32 
ROOT
HETATM    1  C   UNK N   1      25.276  18.744   3.841  0.00  0.00     0.079 A 
HETATM    2  C   UNK N   1      25.573  19.866   3.063  0.00  0.00     0.050 A 
HETATM    3  C   UNK N   1      24.521  20.663   2.604  0.00  0.00     0.108 A 
HETATM    4  N   UNK N   1      23.237  20.367   2.949  0.00  0.00    -0.202 N 
ATOM      5  HN  UNK N   1      22.476  20.967   2.628  1.00  0.00     0.183 HD
HETATM    6  N   UNK N   1      23.982  18.483   4.140  0.00  0.00    -0.189 N 
ATOM      7  HN  UNK N   1      23.762  17.662   4.705  1.00  0.00     0.184 HD
HETATM    8  C   UNK N   1      22.965  19.279   3.714  0.00  0.00     0.683 A 
HETATM    9  N   UNK N   1      21.644  19.039   4.181  0.00  0.00    -0.192 N 
HETATM   10  H   UNK N   1      20.908  19.643   3.935  0.00  0.00     0.184 HD
ENDROOT
BRANCH   9  11
HETATM   11  C   UNK N   1      21.410  17.913   5.006  0.00  0.00     0.049 A 
HETATM   12  C   UNK N   1      20.998  16.704   4.433  0.00  0.00     0.033 A 
HETATM   13  C   UNK N   1      20.526  15.666   5.250  0.00  0.00     0.039 A 
HETATM   14  C   UNK N   1      20.460  15.839   6.639  0.00  0.00     0.069 A 
HETATM   15  C   UNK N   1      20.915  17.041   7.204  0.00  0.00     0.039 A 
HETATM   16  C   UNK N   1      21.372  18.072   6.394  0.00  0.00     0.033 A 
BRANCH  14  17
HETATM   17  O   UNK N   1      19.939  14.860   7.418  0.00  0.00    -0.349 OA
BRANCH  17  18
HETATM   18  C   UNK N   1      20.412  14.633   8.695  0.00  0.00     0.209 C 
BRANCH  18  19
HETATM   19  C   UNK N   1      21.461  13.533   8.756  0.00  0.00     0.170 C 
BRANCH  19  20
HETATM   20  O   UNK N   1      20.981  12.449   8.024  0.00  0.00    -0.392 OA
HETATM   21  H   UNK N   1      21.101  11.523   7.760  0.00  0.00     0.210 HD
ENDBRANCH  19  20
BRANCH  19  22
HETATM   22  C   UNK N   1      21.704  13.078  10.193  0.00  0.00     0.305 C 
BRANCH  22  23
HETATM   23  N   UNK N   1      22.879  12.223  10.274  0.00  0.00     0.082 N 
HETATM   24  C   UNK N   1      24.011  12.998   9.805  0.00  0.00     0.309 C 
HETATM   25  C   UNK N   1      23.111  11.950  11.683  0.00  0.00     0.309 C 
ENDBRANCH  22  23
ENDBRANCH  19  22
ENDBRANCH  18  19
ENDBRANCH  17  18
ENDBRANCH  14  17
ENDBRANCH   9  11
BRANCH   1  26
HETATM   26  C   UNK N   1      26.338  17.869   4.403  0.00  0.00     0.090 A 
HETATM   27  C   UNK N   1      26.682  16.588   3.971  0.00  0.00     0.036 A 
HETATM   28  C   UNK N   1      26.101  15.829   2.833  0.00  0.00     0.070 C 
HETATM   29  N   UNK N   1      27.672  16.098   4.750  0.00  0.00    -0.344 N 
HETATM   30  C   UNK N   1      27.910  17.078   5.645  0.00  0.00     0.112 A 
ATOM     31  HN  UNK N   1      28.135  15.193   4.677  1.00  0.00     0.167 HD
HETATM   32  C   UNK N   1      28.835  17.025   6.680  0.00  0.00     0.049 A 
HETATM   33  N   UNK N   1      27.125  18.155   5.455  0.00  0.00    -0.304 N 
HETATM   34  C   UNK N   1      28.921  18.138   7.529  0.00  0.00     0.005 A 
HETATM   35  C   UNK N   1      28.090  19.257   7.320  0.00  0.00     0.018 A 
HETATM   36  C   UNK N   1      27.176  19.251   6.257  0.00  0.00     0.099 A 
ENDBRANCH   1  26
TORSDOF 8
ENDMDL
MODEL 3
REMARK VINA RESULT:      -7.2      3.413      7.157
REMARK  8 active torsions:
REMARK  status: ('A' for Active; 'I' for Inactive)
REMARK    1  A    between atoms: C_11  and  C_12 
REMARK       I    between atoms: C_19  and  N_20 
REMARK    2  A    between atoms: N_20  and  C_21 
REMARK    3  A    between atoms: C_26  and  O_27 
REMARK    4  A    between atoms: O_27  and  C_28 
REMARK    5  A    between atoms: C_28  and  C_29 
REMARK    6  A    between atoms: C_29  and  O_30 
REMARK    7  A    between atoms: C_29  and  C_31 
REMARK    8  A    between atoms: C_31  and  N_32 
ROOT
HETATM    1  C   UNK N   1      25.838  19.479   4.578  0.00  0.00     0.079 A 
HETATM    2  C   UNK N   1      26.075  20.371   3.529  0.00  0.00     0.050 A 
HETATM    3  C   UNK N   1      25.050  20.616   2.611  0.00  0.00     0.108 A 
HETATM    4  N   UNK N   1      23.833  20.025   2.770  0.00  0.00    -0.202 N 
ATOM      5  HN  UNK N   1      23.082  20.226   2.108  1.00  0.00     0.183 HD
HETATM    6  N   UNK N   1      24.618  18.903   4.681  0.00  0.00    -0.189 N 
ATOM      7  HN  UNK N   1      24.444  18.248   5.444  1.00  0.00     0.184 HD
HETATM    8  C   UNK N   1      23.615  19.169   3.800  0.00  0.00     0.683 A 
HETATM    9  N   UNK N   1      22.315  18.649   4.043  0.00  0.00    -0.192 N 
HETATM   10  H   UNK N   1      21.563  18.885   3.453  0.00  0.00     0.184 HD
ENDROOT
BRANCH   9  11
HETATM   11  C   UNK N   1      22.122  17.788   5.149  0.00  0.00     0.049 A 
HETATM   12  C   UNK N   1      22.535  16.453   5.072  0.00  0.00     0.033 A 
HETATM   13  C   UNK N   1      22.130  15.536   6.052  0.00  0.00     0.039 A 
HETATM   14  C   UNK N   1      21.307  15.951   7.107  0.00  0.00     0.069 A 
HETATM   15  C   UNK N   1      20.934  17.302   7.196  0.00  0.00     0.039 A 
HETATM   16  C   UNK N   1      21.326  18.208   6.219  0.00  0.00     0.033 A 
BRANCH  14  17
HETATM   17  O   UNK N   1      20.861  15.049   8.014  0.00  0.00    -0.349 OA
BRANCH  17  18
HETATM   18  C   UNK N   1      21.739  14.340   8.811  0.00  0.00     0.209 C 
BRANCH  18  19
HETATM   19  C   UNK N   1      21.257  12.932   9.123  0.00  0.00     0.170 C 
BRANCH  19  20
HETATM   20  O   UNK N   1      20.326  13.022  10.156  0.00  0.00    -0.392 OA
HETATM   21  H   UNK N   1      19.582  12.612  10.624  0.00  0.00     0.210 HD
ENDBRANCH  19  20
BRANCH  19  22
HETATM   22  C   UNK N   1      22.408  12.042   9.585  0.00  0.00     0.305 C 
BRANCH  22  23
HETATM   23  N   UNK N   1      23.237  12.731  10.563  0.00  0.00     0.082 N 
HETATM   24  C   UNK N   1      23.141  11.991  11.807  0.00  0.00     0.309 C 
HETATM   25  C   UNK N   1      24.613  12.618  10.111  0.00  0.00     0.309 C 
ENDBRANCH  22  23
ENDBRANCH  19  22
ENDBRANCH  18  19
ENDBRANCH  17  18
ENDBRANCH  14  17
ENDBRANCH   9  11
BRANCH   1  26
HETATM   26  C   UNK N   1      26.860  19.195   5.620  0.00  0.00     0.090 A 
HETATM   27  C   UNK N   1      27.188  19.998   6.712  0.00  0.00     0.036 A 
HETATM   28  C   UNK N   1      26.564  21.289   7.106  0.00  0.00     0.070 C 
HETATM   29  N   UNK N   1      28.188  19.422   7.414  0.00  0.00    -0.344 N 
HETATM   30  C   UNK N   1      28.461  18.288   6.740  0.00  0.00     0.112 A 
ATOM     31  HN  UNK N   1      28.636  19.767   8.263  1.00  0.00     0.167 HD
HETATM   32  C   UNK N   1      29.447  17.365   7.067  0.00  0.00     0.049 A 
HETATM   33  N   UNK N   1      27.674  18.125   5.660  0.00  0.00    -0.304 N 
HETATM   34  C   UNK N   1      29.598  16.253   6.225  0.00  0.00     0.005 A 
HETATM   35  C   UNK N   1      28.769  16.098   5.097  0.00  0.00     0.018 A 
HETATM   36  C   UNK N   1      27.790  17.063   4.820  0.00  0.00     0.099 A 
ENDBRANCH   1  26
TORSDOF 8
ENDMDL
MODEL 4
REMARK VINA RESULT:      -7.1      4.878     12.461
REMARK  8 active torsions:
REMARK  status: ('A' for Active; 'I' for Inactive)
REMARK    1  A    between atoms: C_11  and  C_12 
REMARK       I    between atoms: C_19  and  N_20 
REMARK    2  A    between atoms: N_20  and  C_21 
REMARK    3  A    between atoms: C_26  and  O_27 
REMARK    4  A    between atoms: O_27  and  C_28 
REMARK    5  A    between atoms: C_28  and  C_29 
REMARK    6  A    between atoms: C_29  and  O_30 
REMARK    7  A    between atoms: C_29  and  C_31 
REMARK    8  A    between atoms: C_31  and  N_32 
ROOT
HETATM    1  C   UNK N   1      36.689  13.685   9.841  0.00  0.00     0.079 A 
HETATM    2  C   UNK N   1      37.697  12.918   9.250  0.00  0.00     0.050 A 
HETATM    3  C   UNK N   1      37.762  12.855   7.855  0.00  0.00     0.108 A 
HETATM    4  N   UNK N   1      36.881  13.564   7.096  0.00  0.00    -0.202 N 
ATOM      5  HN  UNK N   1      36.949  13.531   6.078  1.00  0.00     0.183 HD
HETATM    6  N   UNK N   1      35.828  14.356   9.042  0.00  0.00    -0.189 N 
ATOM      7  HN  UNK N   1      35.089  14.914   9.472  1.00  0.00     0.184 HD
HETATM    8  C   UNK N   1      35.914  14.313   7.685  0.00  0.00     0.683 A 
HETATM    9  N   UNK N   1      35.076  15.153   6.903  0.00  0.00    -0.192 N 
HETATM   10  H   UNK N   1      35.170  15.184   5.924  0.00  0.00     0.184 HD
ENDROOT
BRANCH   9  11
HETATM   11  C   UNK N   1      34.105  15.945   7.560  0.00  0.00     0.049 A 
HETATM   12  C   UNK N   1      32.860  15.392   7.885  0.00  0.00     0.033 A 
HETATM   13  C   UNK N   1      31.812  16.223   8.304  0.00  0.00     0.039 A 
HETATM   14  C   UNK N   1      32.004  17.609   8.391  0.00  0.00     0.069 A 
HETATM   15  C   UNK N   1      33.269  18.146   8.102  0.00  0.00     0.039 A 
HETATM   16  C   UNK N   1      34.304  17.323   7.676  0.00  0.00     0.033 A 
BRANCH  14  17
HETATM   17  O   UNK N   1      30.970  18.415   8.729  0.00  0.00    -0.349 OA
BRANCH  17  18
HETATM   18  C   UNK N   1      29.799  17.900   9.250  0.00  0.00     0.209 C 
BRANCH  18  19
HETATM   19  C   UNK N   1      28.560  18.649   8.788  0.00  0.00     0.170 C 
BRANCH  19  20
HETATM   20  O   UNK N   1      27.455  18.061   9.400  0.00  0.00    -0.392 OA
HETATM   21  H   UNK N   1      26.615  18.188   9.867  0.00  0.00     0.210 HD
ENDBRANCH  19  20
BRANCH  19  22
HETATM   22  C   UNK N   1      28.384  18.550   7.275  0.00  0.00     0.305 C 
BRANCH  22  23
HETATM   23  N   UNK N   1      28.551  17.176   6.822  0.00  0.00     0.082 N 
HETATM   24  C   UNK N   1      27.260  16.720   6.343  0.00  0.00     0.309 C 
HETATM   25  C   UNK N   1      29.438  17.212   5.671  0.00  0.00     0.309 C 
ENDBRANCH  22  23
ENDBRANCH  19  22
ENDBRANCH  18  19
ENDBRANCH  17  18
ENDBRANCH  14  17
ENDBRANCH   9  11
BRANCH   1  26
HETATM   26  C   UNK N   1      36.576  13.838  11.315  0.00  0.00     0.090 A 
HETATM   27  C   UNK N   1      36.150  14.971  12.008  0.00  0.00     0.036 A 
HETATM   28  C   UNK N   1      35.675  16.258  11.436  0.00  0.00     0.070 C 
HETATM   29  N   UNK N   1      36.215  14.739  13.339  0.00  0.00    -0.344 N 
HETATM   30  C   UNK N   1      36.684  13.480  13.436  0.00  0.00     0.112 A 
ATOM     31  HN  UNK N   1      35.965  15.374  14.097  1.00  0.00     0.167 HD
HETATM   32  C   UNK N   1      36.949  12.801  14.620  0.00  0.00     0.049 A 
HETATM   33  N   UNK N   1      36.905  12.914  12.235  0.00  0.00    -0.304 N 
HETATM   34  C   UNK N   1      37.461  11.499  14.518  0.00  0.00     0.005 A 
HETATM   35  C   UNK N   1      37.690  10.922  13.254  0.00  0.00     0.018 A 
HETATM   36  C   UNK N   1      37.401  11.656  12.095  0.00  0.00     0.099 A 
ENDBRANCH   1  26
TORSDOF 8
ENDMDL
MODEL 5
REMARK VINA RESULT:      -6.8      4.998      7.840
REMARK  8 active torsions:
REMARK  status: ('A' for Active; 'I' for Inactive)
REMARK    1  A    between atoms: C_11  and  C_12 
REMARK       I    between atoms: C_19  and  N_20 
REMARK    2  A    between atoms: N_20  and  C_21 
REMARK    3  A    between atoms: C_26  and  O_27 
REMARK    4  A    between atoms: O_27  and  C_28 
REMARK    5  A    between atoms: C_28  and  C_29 
REMARK    6  A    between atoms: C_29  and  O_30 
REMARK    7  A    between atoms: C_29  and  C_31 
REMARK    8  A    between atoms: C_31  and  N_32 
ROOT
HETATM    1  C   UNK N   1      29.206  17.537   6.029  0.00  0.00     0.079 A 
HETATM    2  C   UNK N   1      28.125  18.370   6.333  0.00  0.00     0.050 A 
HETATM    3  C   UNK N   1      28.046  18.929   7.612  0.00  0.00     0.108 A 
HETATM    4  N   UNK N   1      29.031  18.694   8.523  0.00  0.00    -0.202 N 
ATOM      5  HN  UNK N   1      28.978  19.124   9.447  1.00  0.00     0.183 HD
HETATM    6  N   UNK N   1      30.148  17.321   6.976  0.00  0.00    -0.189 N 
ATOM      7  HN  UNK N   1      30.936  16.710   6.758  1.00  0.00     0.184 HD
HETATM    8  C   UNK N   1      30.080  17.891   8.210  0.00  0.00     0.683 A 
HETATM    9  N   UNK N   1      31.170  17.746   9.109  0.00  0.00    -0.192 N 
HETATM   10  H   UNK N   1      31.167  18.206   9.979  0.00  0.00     0.184 HD
ENDROOT
BRANCH   9  11
HETATM   11  C   UNK N   1      32.261  16.928   8.729  0.00  0.00     0.049 A 
HETATM   12  C   UNK N   1      32.260  15.568   9.060  0.00  0.00     0.033 A 
HETATM   13  C   UNK N   1      33.429  14.809   8.912  0.00  0.00     0.039 A 
HETATM   14  C   UNK N   1      34.603  15.411   8.440  0.00  0.00     0.069 A 
HETATM   15  C   UNK N   1      34.580  16.766   8.072  0.00  0.00     0.039 A 
HETATM   16  C   UNK N   1      33.424  17.520   8.229  0.00  0.00     0.033 A 
BRANCH  14  17
HETATM   17  O   UNK N   1      35.749  14.692   8.365  0.00  0.00    -0.349 OA
BRANCH  17  18
HETATM   18  C   UNK N   1      36.092  13.785   9.348  0.00  0.00     0.209 C 
BRANCH  18  19
HETATM   19  C   UNK N   1      36.645  14.445  10.601  0.00  0.00     0.170 C 
BRANCH  19  20
HETATM   20  O   UNK N   1      37.847  15.063  10.260  0.00  0.00    -0.392 OA
HETATM   21  H   UNK N   1      38.431  15.830  10.367  0.00  0.00     0.210 HD
ENDBRANCH  19  20
BRANCH  19  22
HETATM   22  C   UNK N   1      36.924  13.415  11.693  0.00  0.00     0.305 C 
BRANCH  22  23
HETATM   23  N   UNK N   1      35.905  13.471  12.732  0.00  0.00     0.082 N 
HETATM   24  C   UNK N   1      35.888  12.178  13.389  0.00  0.00     0.309 C 
HETATM   25  C   UNK N   1      36.355  14.439  13.718  0.00  0.00     0.309 C 
ENDBRANCH  22  23
ENDBRANCH  19  22
ENDBRANCH  18  19
ENDBRANCH  17  18
ENDBRANCH  14  17
ENDBRANCH   9  11
BRANCH   1  26
HETATM   26  C   UNK N   1      29.385  16.937   4.681  0.00  0.00     0.090 A 
HETATM   27  C   UNK N   1      30.506  17.047   3.859  0.00  0.00     0.036 A 
HETATM   28  C   UNK N   1      31.783  17.748   4.158  0.00  0.00     0.070 C 
HETATM   29  N   UNK N   1      30.282  16.394   2.697  0.00  0.00    -0.344 N 
HETATM   30  C   UNK N   1      29.033  15.905   2.824  0.00  0.00     0.112 A 
ATOM     31  HN  UNK N   1      30.915  16.293   1.904  1.00  0.00     0.167 HD
HETATM   32  C   UNK N   1      28.344  15.177   1.861  0.00  0.00     0.049 A 
HETATM   33  N   UNK N   1      28.473  16.213   4.009  0.00  0.00    -0.304 N 
HETATM   34  C   UNK N   1      27.036  14.774   2.168  0.00  0.00     0.005 A 
HETATM   35  C   UNK N   1      26.462  15.107   3.411  0.00  0.00     0.018 A 
HETATM   36  C   UNK N   1      27.208  15.843   4.342  0.00  0.00     0.099 A 
ENDBRANCH   1  26
TORSDOF 8
ENDMDL
MODEL 6
REMARK VINA RESULT:      -6.7     12.617     14.740
REMARK  8 active torsions:
REMARK  status: ('A' for Active; 'I' for Inactive)
REMARK    1  A    between atoms: C_11  and  C_12 
REMARK       I    between atoms: C_19  and  N_20 
REMARK    2  A    between atoms: N_20  and  C_21 
REMARK    3  A    between atoms: C_26  and  O_27 
REMARK    4  A    between atoms: O_27  and  C_28 
REMARK    5  A    between atoms: C_28  and  C_29 
REMARK    6  A    between atoms: C_29  and  O_30 
REMARK    7  A    between atoms: C_29  and  C_31 
REMARK    8  A    between atoms: C_31  and  N_32 
ROOT
HETATM    1  C   UNK N   1      28.502  22.539  -6.854  0.00  0.00     0.079 A 
HETATM    2  C   UNK N   1      28.176  21.460  -7.681  0.00  0.00     0.050 A 
HETATM    3  C   UNK N   1      26.835  21.258  -8.025  0.00  0.00     0.108 A 
HETATM    4  N   UNK N   1      25.880  22.126  -7.591  0.00  0.00    -0.202 N 
ATOM      5  HN  UNK N   1      24.906  21.985  -7.865  1.00  0.00     0.183 HD
HETATM    6  N   UNK N   1      27.512  23.361  -6.435  0.00  0.00    -0.189 N 
ATOM      7  HN  UNK N   1      27.748  24.146  -5.828  1.00  0.00     0.184 HD
HETATM    8  C   UNK N   1      26.213  23.175  -6.797  0.00  0.00     0.683 A 
HETATM    9  N   UNK N   1      25.243  24.152  -6.447  0.00  0.00    -0.192 N 
HETATM   10  H   UNK N   1      24.312  24.068  -6.756  0.00  0.00     0.184 HD
ENDROOT
BRANCH   9  11
HETATM   11  C   UNK N   1      25.641  25.249  -5.647  0.00  0.00     0.049 A 
HETATM   12  C   UNK N   1      26.199  25.023  -4.383  0.00  0.00     0.033 A 
HETATM   13  C   UNK N   1      26.364  26.089  -3.488  0.00  0.00     0.039 A 
HETATM   14  C   UNK N   1      25.965  27.382  -3.853  0.00  0.00     0.069 A 
HETATM   15  C   UNK N   1      25.445  27.603  -5.139  0.00  0.00     0.039 A 
HETATM   16  C   UNK N   1      25.272  26.545  -6.021  0.00  0.00     0.033 A 
BRANCH  14  17
HETATM   17  O   UNK N   1      26.062  28.397  -2.961  0.00  0.00    -0.349 OA
BRANCH  17  18
HETATM   18  C   UNK N   1      26.992  29.405  -3.120  0.00  0.00     0.209 C 
BRANCH  18  19
HETATM   19  C   UNK N   1      28.228  29.218  -2.254  0.00  0.00     0.170 C 
BRANCH  19  20
HETATM   20  O   UNK N   1      27.901  29.606  -0.957  0.00  0.00    -0.392 OA
HETATM   21  H   UNK N   1      27.283  29.534  -0.213  0.00  0.00     0.210 HD
ENDBRANCH  19  20
BRANCH  19  22
HETATM   22  C   UNK N   1      29.384  30.087  -2.743  0.00  0.00     0.305 C 
BRANCH  22  23
HETATM   23  N   UNK N   1      30.577  29.285  -2.970  0.00  0.00     0.082 N 
HETATM   24  C   UNK N   1      31.310  29.237  -1.718  0.00  0.00     0.309 C 
HETATM   25  C   UNK N   1      30.133  27.930  -3.250  0.00  0.00     0.309 C 
ENDBRANCH  22  23
ENDBRANCH  19  22
ENDBRANCH  18  19
ENDBRANCH  17  18
ENDBRANCH  14  17
ENDBRANCH   9  11
BRANCH   1  26
HETATM   26  C   UNK N   1      29.906  22.847  -6.476  0.00  0.00     0.090 A 
HETATM   27  C   UNK N   1      30.824  23.598  -7.209  0.00  0.00     0.036 A 
HETATM   28  C   UNK N   1      30.597  24.294  -8.504  0.00  0.00     0.070 C 
HETATM   29  N   UNK N   1      32.007  23.629  -6.558  0.00  0.00    -0.344 N 
HETATM   30  C   UNK N   1      31.798  22.894  -5.448  0.00  0.00     0.112 A 
ATOM     31  HN  UNK N   1      32.865  24.103  -6.841  1.00  0.00     0.167 HD
HETATM   32  C   UNK N   1      32.744  22.611  -4.470  0.00  0.00     0.049 A 
HETATM   33  N   UNK N   1      30.542  22.416  -5.372  0.00  0.00    -0.304 N 
HETATM   34  C   UNK N   1      32.343  21.803  -3.397  0.00  0.00     0.005 A 
HETATM   35  C   UNK N   1      31.026  21.307  -3.333  0.00  0.00     0.018 A 
HETATM   36  C   UNK N   1      30.116  21.628  -4.350  0.00  0.00     0.099 A 
ENDBRANCH   1  26
TORSDOF 8
ENDMDL
MODEL 7
REMARK VINA RESULT:      -6.7      4.195      7.137
REMARK  8 active torsions:
REMARK  status: ('A' for Active; 'I' for Inactive)
REMARK    1  A    between atoms: C_11  and  C_12 
REMARK       I    between atoms: C_19  and  N_20 
REMARK    2  A    between atoms: N_20  and  C_21 
REMARK    3  A    between atoms: C_26  and  O_27 
REMARK    4  A    between atoms: O_27  and  C_28 
REMARK    5  A    between atoms: C_28  and  C_29 
REMARK    6  A    between atoms: C_29  and  O_30 
REMARK    7  A    between atoms: C_29  and  C_31 
REMARK    8  A    between atoms: C_31  and  N_32 
ROOT
HETATM    1  C   UNK N   1      21.699  18.483   3.457  0.00  0.00     0.079 A 
HETATM    2  C   UNK N   1      20.898  19.628   3.491  0.00  0.00     0.050 A 
HETATM    3  C   UNK N   1      19.634  19.582   2.895  0.00  0.00     0.108 A 
HETATM    4  N   UNK N   1      19.184  18.426   2.333  0.00  0.00    -0.202 N 
ATOM      5  HN  UNK N   1      18.251  18.393   1.920  1.00  0.00     0.183 HD
HETATM    6  N   UNK N   1      21.212  17.365   2.870  0.00  0.00    -0.189 N 
ATOM      7  HN  UNK N   1      21.797  16.529   2.841  1.00  0.00     0.184 HD
HETATM    8  C   UNK N   1      19.969  17.319   2.317  0.00  0.00     0.683 A 
HETATM    9  N   UNK N   1      19.458  16.079   1.848  0.00  0.00    -0.192 N 
HETATM   10  H   UNK N   1      18.538  16.013   1.506  0.00  0.00     0.184 HD
ENDROOT
BRANCH   9  11
HETATM   11  C   UNK N   1      20.298  14.940   1.882  0.00  0.00     0.049 A 
HETATM   12  C   UNK N   1      20.432  14.208   3.068  0.00  0.00     0.033 A 
HETATM   13  C   UNK N   1      21.439  13.241   3.185  0.00  0.00     0.039 A 
HETATM   14  C   UNK N   1      22.319  13.009   2.120  0.00  0.00     0.069 A 
HETATM   15  C   UNK N   1      22.149  13.720   0.921  0.00  0.00     0.039 A 
HETATM   16  C   UNK N   1      21.157  14.686   0.809  0.00  0.00     0.033 A 
BRANCH  14  17
HETATM   17  O   UNK N   1      23.334  12.123   2.261  0.00  0.00    -0.349 OA
BRANCH  17  18
HETATM   18  C   UNK N   1      24.624  12.444   1.885  0.00  0.00     0.209 C 
BRANCH  18  19
HETATM   19  C   UNK N   1      25.605  12.430   3.047  0.00  0.00     0.170 C 
BRANCH  19  20
HETATM   20  O   UNK N   1      24.944  11.901   4.154  0.00  0.00    -0.392 OA
HETATM   21  H   UNK N   1      24.302  12.041   4.867  0.00  0.00     0.210 HD
ENDBRANCH  19  20
BRANCH  19  22
HETATM   22  C   UNK N   1      26.074  13.841   3.393  0.00  0.00     0.305 C 
BRANCH  22  23
HETATM   23  N   UNK N   1      26.344  14.609   2.185  0.00  0.00     0.082 N 
HETATM   24  C   UNK N   1      25.918  15.973   2.437  0.00  0.00     0.309 C 
HETATM   25  C   UNK N   1      27.787  14.643   2.015  0.00  0.00     0.309 C 
ENDBRANCH  22  23
ENDBRANCH  19  22
ENDBRANCH  18  19
ENDBRANCH  17  18
ENDBRANCH  14  17
ENDBRANCH   9  11
BRANCH   1  26
HETATM   26  C   UNK N   1      23.037  18.436   4.102  0.00  0.00     0.090 A 
HETATM   27  C   UNK N   1      23.410  17.659   5.198  0.00  0.00     0.036 A 
HETATM   28  C   UNK N   1      22.576  16.676   5.938  0.00  0.00     0.070 C 
HETATM   29  N   UNK N   1      24.699  17.914   5.517  0.00  0.00    -0.344 N 
HETATM   30  C   UNK N   1      25.087  18.843   4.621  0.00  0.00     0.112 A 
ATOM     31  HN  UNK N   1      25.252  17.498   6.265  1.00  0.00     0.167 HD
HETATM   32  C   UNK N   1      26.339  19.444   4.565  0.00  0.00     0.049 A 
HETATM   33  N   UNK N   1      24.109  19.171   3.756  0.00  0.00    -0.304 N 
HETATM   34  C   UNK N   1      26.548  20.413   3.572  0.00  0.00     0.005 A 
HETATM   35  C   UNK N   1      25.513  20.748   2.677  0.00  0.00     0.018 A 
HETATM   36  C   UNK N   1      24.271  20.105   2.783  0.00  0.00     0.099 A 
ENDBRANCH   1  26
TORSDOF 8
ENDMDL
MODEL 8
REMARK VINA RESULT:      -6.7      2.067      2.652
REMARK  8 active torsions:
REMARK  status: ('A' for Active; 'I' for Inactive)
REMARK    1  A    between atoms: C_11  and  C_12 
REMARK       I    between atoms: C_19  and  N_20 
REMARK    2  A    between atoms: N_20  and  C_21 
REMARK    3  A    between atoms: C_26  and  O_27 
REMARK    4  A    between atoms: O_27  and  C_28 
REMARK    5  A    between atoms: C_28  and  C_29 
REMARK    6  A    between atoms: C_29  and  O_30 
REMARK    7  A    between atoms: C_29  and  C_31 
REMARK    8  A    between atoms: C_31  and  N_32 
ROOT
HETATM    1  C   UNK N   1      21.813  18.038   4.201  0.00  0.00     0.079 A 
HETATM    2  C   UNK N   1      20.760  18.609   3.480  0.00  0.00     0.050 A 
HETATM    3  C   UNK N   1      20.989  19.802   2.788  0.00  0.00     0.108 A 
HETATM    4  N   UNK N   1      22.229  20.366   2.788  0.00  0.00    -0.202 N 
ATOM      5  HN  UNK N   1      22.394  21.225   2.263  1.00  0.00     0.183 HD
HETATM    6  N   UNK N   1      23.021  18.648   4.183  0.00  0.00    -0.189 N 
ATOM      7  HN  UNK N   1      23.790  18.235   4.712  1.00  0.00     0.184 HD
HETATM    8  C   UNK N   1      23.244  19.794   3.484  0.00  0.00     0.683 A 
HETATM    9  N   UNK N   1      24.566  20.306   3.384  0.00  0.00    -0.192 N 
HETATM   10  H   UNK N   1      24.757  21.096   2.829  0.00  0.00     0.184 HD
ENDROOT
BRANCH   9  11
HETATM   11  C   UNK N   1      25.602  19.658   4.098  0.00  0.00     0.049 A 
HETATM   12  C   UNK N   1      26.094  20.225   5.280  0.00  0.00     0.033 A 
HETATM   13  C   UNK N   1      27.273  19.734   5.856  0.00  0.00     0.039 A 
HETATM   14  C   UNK N   1      27.967  18.679   5.247  0.00  0.00     0.069 A 
HETATM   15  C   UNK N   1      27.441  18.091   4.085  0.00  0.00     0.039 A 
HETATM   16  C   UNK N   1      26.278  18.586   3.509  0.00  0.00     0.033 A 
BRANCH  14  17
HETATM   17  O   UNK N   1      29.142  18.252   5.768  0.00  0.00    -0.349 OA
BRANCH  17  18
HETATM   18  C   UNK N   1      29.777  17.128   5.278  0.00  0.00     0.209 C 
BRANCH  18  19
HETATM   19  C   UNK N   1      31.249  17.360   4.973  0.00  0.00     0.170 C 
BRANCH  19  20
HETATM   20  O   UNK N   1      31.328  18.044   3.761  0.00  0.00    -0.392 OA
HETATM   21  H   UNK N   1      31.013  18.129   2.848  0.00  0.00     0.210 HD
ENDBRANCH  19  20
BRANCH  19  22
HETATM   22  C   UNK N   1      32.001  16.039   4.833  0.00  0.00     0.305 C 
BRANCH  22  23
HETATM   23  N   UNK N   1      33.343  16.258   4.312  0.00  0.00     0.082 N 
HETATM   24  C   UNK N   1      34.277  15.745   5.297  0.00  0.00     0.309 C 
HETATM   25  C   UNK N   1      33.481  15.428   3.127  0.00  0.00     0.309 C 
ENDBRANCH  22  23
ENDBRANCH  19  22
ENDBRANCH  18  19
ENDBRANCH  17  18
ENDBRANCH  14  17
ENDBRANCH   9  11
BRANCH   1  26
HETATM   26  C   UNK N   1      21.664  16.750   4.928  0.00  0.00     0.090 A 
HETATM   27  C   UNK N   1      21.967  15.477   4.447  0.00  0.00     0.036 A 
HETATM   28  C   UNK N   1      22.544  15.123   3.123  0.00  0.00     0.070 C 
HETATM   29  N   UNK N   1      21.666  14.554   5.387  0.00  0.00    -0.344 N 
HETATM   30  C   UNK N   1      21.180  15.272   6.418  0.00  0.00     0.112 A 
ATOM     31  HN  UNK N   1      21.782  13.542   5.329  1.00  0.00     0.167 HD
HETATM   32  C   UNK N   1      20.705  14.753   7.617  0.00  0.00     0.049 A 
HETATM   33  N   UNK N   1      21.172  16.595   6.171  0.00  0.00    -0.304 N 
HETATM   34  C   UNK N   1      20.212  15.662   8.564  0.00  0.00     0.005 A 
HETATM   35  C   UNK N   1      20.207  17.043   8.290  0.00  0.00     0.018 A 
HETATM   36  C   UNK N   1      20.701  17.506   7.062  0.00  0.00     0.099 A 
ENDBRANCH   1  26
TORSDOF 8
ENDMDL
MODEL 9
REMARK VINA RESULT:      -6.6      6.127      9.575
REMARK  8 active torsions:
REMARK  status: ('A' for Active; 'I' for Inactive)
REMARK    1  A    between atoms: C_11  and  C_12 
REMARK       I    between atoms: C_19  and  N_20 
REMARK    2  A    between atoms: N_20  and  C_21 
REMARK    3  A    between atoms: C_26  and  O_27 
REMARK    4  A    between atoms: O_27  and  C_28 
REMARK    5  A    between atoms: C_28  and  C_29 
REMARK    6  A    between atoms: C_29  and  O_30 
REMARK    7  A    between atoms: C_29  and  C_31 
REMARK    8  A    between atoms: C_31  and  N_32 
ROOT
HETATM    1  C   UNK N   1      32.377  16.924   5.644  0.00  0.00     0.079 A 
HETATM    2  C   UNK N   1      31.865  17.396   4.432  0.00  0.00     0.050 A 
HETATM    3  C   UNK N   1      32.350  16.850   3.240  0.00  0.00     0.108 A 
HETATM    4  N   UNK N   1      33.272  15.849   3.271  0.00  0.00    -0.202 N 
ATOM      5  HN  UNK N   1      33.605  15.440   2.397  1.00  0.00     0.183 HD
HETATM    6  N   UNK N   1      33.306  15.941   5.620  0.00  0.00    -0.189 N 
ATOM      7  HN  UNK N   1      33.684  15.598   6.503  1.00  0.00     0.184 HD
HETATM    8  C   UNK N   1      33.753  15.394   4.456  0.00  0.00     0.683 A 
HETATM    9  N   UNK N   1      34.617  14.267   4.499  0.00  0.00    -0.192 N 
HETATM   10  H   UNK N   1      34.897  13.818   3.669  0.00  0.00     0.184 HD
ENDROOT
BRANCH   9  11
HETATM   11  C   UNK N   1      35.066  13.803   5.758  0.00  0.00     0.049 A 
HETATM   12  C   UNK N   1      34.240  12.980   6.533  0.00  0.00     0.033 A 
HETATM   13  C   UNK N   1      34.564  12.721   7.872  0.00  0.00     0.039 A 
HETATM   14  C   UNK N   1      35.712  13.290   8.440  0.00  0.00     0.069 A 
HETATM   15  C   UNK N   1      36.556  14.079   7.641  0.00  0.00     0.039 A 
HETATM   16  C   UNK N   1      36.227  14.344   6.318  0.00  0.00     0.033 A 
BRANCH  14  17
HETATM   17  O   UNK N   1      35.986  13.094   9.752  0.00  0.00    -0.349 OA
BRANCH  17  18
HETATM   18  C   UNK N   1      35.015  13.260  10.720  0.00  0.00     0.209 C 
BRANCH  18  19
HETATM   19  C   UNK N   1      35.367  12.592  12.039  0.00  0.00     0.170 C 
BRANCH  19  20
HETATM   20  O   UNK N   1      34.207  12.535  12.809  0.00  0.00    -0.392 OA
HETATM   21  H   UNK N   1      33.237  12.556  12.830  0.00  0.00     0.210 HD
ENDBRANCH  19  20
BRANCH  19  22
HETATM   22  C   UNK N   1      36.416  13.395  12.804  0.00  0.00     0.305 C 
BRANCH  22  23
HETATM   23  N   UNK N   1      36.310  13.156  14.237  0.00  0.00     0.082 N 
HETATM   24  C   UNK N   1      37.267  12.119  14.574  0.00  0.00     0.309 C 
HETATM   25  C   UNK N   1      36.751  14.369  14.905  0.00  0.00     0.309 C 
ENDBRANCH  22  23
ENDBRANCH  19  22
ENDBRANCH  18  19
ENDBRANCH  17  18
ENDBRANCH  14  17
ENDBRANCH   9  11
BRANCH   1  26
HETATM   26  C   UNK N   1      31.886  17.422   6.956  0.00  0.00     0.090 A 
HETATM   27  C   UNK N   1      32.656  17.947   7.993  0.00  0.00     0.036 A 
HETATM   28  C   UNK N   1      34.126  18.169   8.007  0.00  0.00     0.070 C 
HETATM   29  N   UNK N   1      31.856  18.259   9.038  0.00  0.00    -0.344 N 
HETATM   30  C   UNK N   1      30.620  17.913   8.628  0.00  0.00     0.112 A 
ATOM     31  HN  UNK N   1      32.127  18.664   9.933  1.00  0.00     0.167 HD
HETATM   32  C   UNK N   1      29.455  18.021   9.378  0.00  0.00     0.049 A 
HETATM   33  N   UNK N   1      30.609  17.412   7.379  0.00  0.00    -0.304 N 
HETATM   34  C   UNK N   1      28.262  17.583   8.787  0.00  0.00     0.005 A 
HETATM   35  C   UNK N   1      28.266  17.058   7.480  0.00  0.00     0.018 A 
HETATM   36  C   UNK N   1      29.474  16.976   6.772  0.00  0.00     0.099 A 
ENDBRANCH   1  26
TORSDOF 8
ENDMDL
