MODEL 1
REMARK VINA RESULT:      -5.5      0.000      0.000
REMARK  8 active torsions:
REMARK  status: ('A' for Active; 'I' for Inactive)
REMARK    1  A    between atoms: P_1  and  O_2 
REMARK    2  A    between atoms: P_1  and  O_3 
REMARK    3  A    between atoms: P_1  and  C_5 
REMARK    4  A    between atoms: C_6  and  C_8 
REMARK    5  A    between atoms: C_7  and  C_8 
REMARK    6  A    between atoms: C_7  and  S_9 
REMARK    7  A    between atoms: S_9  and  C_14 
REMARK    8  A    between atoms: O_10  and  C_13 
ROOT
HETATM    1  C   UNK N   1      27.096  25.215  -5.554  0.00  0.00     0.083 C 
ENDROOT
BRANCH   1   2
HETATM    2  C   UNK N   1      27.771  25.097  -4.196  0.00  0.00     0.038 C 
BRANCH   2   3
HETATM    3  C   UNK N   1      28.611  23.867  -4.128  0.00  0.00    -0.018 C 
HETATM    4  C   UNK N   1      29.404  23.668  -3.077  0.00  0.00     0.091 C 
BRANCH   4   5
HETATM    5  P   UNK N   1      30.471  22.183  -2.989  0.00  0.00     0.260 P 
HETATM    6  O   UNK N   1      31.282  23.167  -3.875  0.00  0.00    -0.651 OA
BRANCH   5   7
HETATM    7  O   UNK N   1      32.011  22.000  -2.211  0.00  0.00    -0.326 OA
HETATM    8  H   UNK N   1      32.559  21.217  -2.047  0.00  0.00     0.220 HD
ENDBRANCH   5   7
BRANCH   5   9
HETATM    9  O   UNK N   1      30.311  23.020  -1.476  0.00  0.00    -0.326 OA
HETATM   10  H   UNK N   1      30.951  23.342  -0.823  0.00  0.00     0.220 HD
ENDBRANCH   5   9
ENDBRANCH   4   5
ENDBRANCH   2   3
ENDBRANCH   1   2
BRANCH   1  11
HETATM   11  S   UNK N   1      25.547  26.174  -5.437  0.00  0.00    -0.127 SA
BRANCH  11  12
HETATM   12  C   UNK N   1      26.385  27.759  -5.318  0.00  0.00     0.033 A 
HETATM   13  C   UNK N   1      26.179  28.595  -4.207  0.00  0.00     0.082 A 
HETATM   14  C   UNK N   1      26.858  29.813  -4.114  0.00  0.00     0.038 A 
HETATM   15  C   UNK N   1      27.746  30.201  -5.121  0.00  0.00     0.003 A 
HETATM   16  C   UNK N   1      27.955  29.370  -6.226  0.00  0.00     0.002 A 
HETATM   17  C   UNK N   1      27.275  28.151  -6.325  0.00  0.00     0.021 A 
BRANCH  13  18
HETATM   18  O   UNK N   1      25.333  28.231  -3.228  0.00  0.00    -0.359 OA
HETATM   19  H   UNK N   1      24.453  28.553  -3.212  0.00  0.00     0.217 HD
ENDBRANCH  13  18
ENDBRANCH  11  12
ENDBRANCH   1  11
TORSDOF 8
ENDMDL
MODEL 2
REMARK VINA RESULT:      -5.3      2.308      2.764
REMARK  8 active torsions:
REMARK  status: ('A' for Active; 'I' for Inactive)
REMARK    1  A    between atoms: P_1  and  O_2 
REMARK    2  A    between atoms: P_1  and  O_3 
REMARK    3  A    between atoms: P_1  and  C_5 
REMARK    4  A    between atoms: C_6  and  C_8 
REMARK    5  A    between atoms: C_7  and  C_8 
REMARK    6  A    between atoms: C_7  and  S_9 
REMARK    7  A    between atoms: S_9  and  C_14 
REMARK    8  A    between atoms: O_10  and  C_13 
ROOT
HETATM    1  C   UNK N   1      27.931  24.059  -6.530  0.00  0.00     0.083 C 
ENDROOT
BRANCH   1   2
HETATM    2  C   UNK N   1      28.880  22.870  -6.573  0.00  0.00     0.038 C 
BRANCH   2   3
HETATM    3  C   UNK N   1      29.451  22.599  -5.223  0.00  0.00    -0.018 C 
HETATM    4  C   UNK N   1      30.239  23.504  -4.647  0.00  0.00     0.091 C 
BRANCH   4   5
HETATM    5  P   UNK N   1      30.982  23.177  -3.006  0.00  0.00     0.260 P 
HETATM    6  O   UNK N   1      30.516  24.656  -2.911  0.00  0.00    -0.651 OA
BRANCH   5   7
HETATM    7  O   UNK N   1      30.199  23.088  -1.461  0.00  0.00    -0.326 OA
HETATM    8  H   UNK N   1      29.834  23.777  -0.885  0.00  0.00     0.220 HD
ENDBRANCH   5   7
BRANCH   5   9
HETATM    9  O   UNK N   1      29.515  22.296  -3.298  0.00  0.00    -0.326 OA
HETATM   10  H   UNK N   1      28.667  22.531  -3.704  0.00  0.00     0.220 HD
ENDBRANCH   5   9
ENDBRANCH   4   5
ENDBRANCH   2   3
ENDBRANCH   1   2
BRANCH   1  11
HETATM   11  S   UNK N   1      26.315  23.586  -5.826  0.00  0.00    -0.127 SA
BRANCH  11  12
HETATM   12  C   UNK N   1      26.041  25.180  -5.045  0.00  0.00     0.033 A 
HETATM   13  C   UNK N   1      26.579  25.455  -3.776  0.00  0.00     0.082 A 
HETATM   14  C   UNK N   1      26.382  26.709  -3.191  0.00  0.00     0.038 A 
HETATM   15  C   UNK N   1      25.655  27.693  -3.867  0.00  0.00     0.003 A 
HETATM   16  C   UNK N   1      25.121  27.422  -5.130  0.00  0.00     0.002 A 
HETATM   17  C   UNK N   1      25.314  26.167  -5.718  0.00  0.00     0.021 A 
BRANCH  13  18
HETATM   18  O   UNK N   1      27.286  24.520  -3.118  0.00  0.00    -0.359 OA
HETATM   19  H   UNK N   1      27.429  24.590  -2.194  0.00  0.00     0.217 HD
ENDBRANCH  13  18
ENDBRANCH  11  12
ENDBRANCH   1  11
TORSDOF 8
ENDMDL
MODEL 3
REMARK VINA RESULT:      -5.3     18.477     21.837
REMARK  8 active torsions:
REMARK  status: ('A' for Active; 'I' for Inactive)
REMARK    1  A    between atoms: P_1  and  O_2 
REMARK    2  A    between atoms: P_1  and  O_3 
REMARK    3  A    between atoms: P_1  and  C_5 
REMARK    4  A    between atoms: C_6  and  C_8 
REMARK    5  A    between atoms: C_7  and  C_8 
REMARK    6  A    between atoms: C_7  and  S_9 
REMARK    7  A    between atoms: S_9  and  C_14 
REMARK    8  A    between atoms: O_10  and  C_13 
ROOT
HETATM    1  C   UNK N   1      34.928  14.095  11.426  0.00  0.00     0.083 C 
ENDROOT
BRANCH   1   2
HETATM    2  C   UNK N   1      35.177  15.582  11.218  0.00  0.00     0.038 C 
BRANCH   2   3
HETATM    3  C   UNK N   1      34.426  16.084  10.032  0.00  0.00    -0.018 C 
HETATM    4  C   UNK N   1      34.768  17.246   9.480  0.00  0.00     0.091 C 
BRANCH   4   5
HETATM    5  P   UNK N   1      33.837  17.900   8.046  0.00  0.00     0.260 P 
HETATM    6  O   UNK N   1      34.969  18.942   8.255  0.00  0.00    -0.651 OA
BRANCH   5   7
HETATM    7  O   UNK N   1      34.349  18.040   6.394  0.00  0.00    -0.326 OA
HETATM    8  H   UNK N   1      34.093  18.660   5.692  0.00  0.00     0.220 HD
ENDBRANCH   5   7
BRANCH   5   9
HETATM    9  O   UNK N   1      34.686  16.423   7.713  0.00  0.00    -0.326 OA
HETATM   10  H   UNK N   1      35.613  16.217   7.518  0.00  0.00     0.220 HD
ENDBRANCH   5   9
ENDBRANCH   4   5
ENDBRANCH   2   3
ENDBRANCH   1   2
BRANCH   1  11
HETATM   11  S   UNK N   1      36.434  13.253  12.020  0.00  0.00    -0.127 SA
BRANCH  11  12
HETATM   12  C   UNK N   1      35.779  12.963  13.667  0.00  0.00     0.033 A 
HETATM   13  C   UNK N   1      36.239  13.715  14.762  0.00  0.00     0.082 A 
HETATM   14  C   UNK N   1      35.701  13.498  16.034  0.00  0.00     0.038 A 
HETATM   15  C   UNK N   1      34.703  12.537  16.220  0.00  0.00     0.003 A 
HETATM   16  C   UNK N   1      34.242  11.789  15.132  0.00  0.00     0.002 A 
HETATM   17  C   UNK N   1      34.780  12.001  13.858  0.00  0.00     0.021 A 
BRANCH  13  18
HETATM   18  O   UNK N   1      37.193  14.646  14.596  0.00  0.00    -0.359 OA
HETATM   19  H   UNK N   1      38.024  14.562  15.022  0.00  0.00     0.217 HD
ENDBRANCH  13  18
ENDBRANCH  11  12
ENDBRANCH   1  11
TORSDOF 8
ENDMDL
MODEL 4
REMARK VINA RESULT:      -5.2     22.018     24.959
REMARK  8 active torsions:
REMARK  status: ('A' for Active; 'I' for Inactive)
REMARK    1  A    between atoms: P_1  and  O_2 
REMARK    2  A    between atoms: P_1  and  O_3 
REMARK    3  A    between atoms: P_1  and  C_5 
REMARK    4  A    between atoms: C_6  and  C_8 
REMARK    5  A    between atoms: C_7  and  C_8 
REMARK    6  A    between atoms: C_7  and  S_9 
REMARK    7  A    between atoms: S_9  and  C_14 
REMARK    8  A    between atoms: O_10  and  C_13 
ROOT
HETATM    1  C   UNK N   1      37.238  10.863  14.310  0.00  0.00     0.083 C 
ENDROOT
BRANCH   1   2
HETATM    2  C   UNK N   1      37.501  11.572  12.990  0.00  0.00     0.038 C 
BRANCH   2   3
HETATM    3  C   UNK N   1      36.675  12.809  12.879  0.00  0.00    -0.018 C 
HETATM    4  C   UNK N   1      36.172  13.162  11.698  0.00  0.00     0.091 C 
BRANCH   4   5
HETATM    5  P   UNK N   1      35.188  14.696  11.531  0.00  0.00     0.260 P 
HETATM    6  O   UNK N   1      35.121  14.061  10.116  0.00  0.00    -0.651 OA
BRANCH   5   7
HETATM    7  O   UNK N   1      33.482  14.865  11.267  0.00  0.00    -0.326 OA
HETATM    8  H   UNK N   1      32.722  14.694  11.846  0.00  0.00     0.220 HD
ENDBRANCH   5   7
BRANCH   5   9
HETATM    9  O   UNK N   1      34.455  13.503  12.559  0.00  0.00    -0.326 OA
HETATM   10  H   UNK N   1      33.670  13.507  13.128  0.00  0.00     0.220 HD
ENDBRANCH   5   9
ENDBRANCH   4   5
ENDBRANCH   2   3
ENDBRANCH   1   2
BRANCH   1  11
HETATM   11  S   UNK N   1      35.453  10.573  14.557  0.00  0.00    -0.127 SA
BRANCH  11  12
HETATM   12  C   UNK N   1      35.440  11.247  16.221  0.00  0.00     0.033 A 
HETATM   13  C   UNK N   1      34.987  12.556  16.459  0.00  0.00     0.082 A 
HETATM   14  C   UNK N   1      34.956  13.059  17.763  0.00  0.00     0.038 A 
HETATM   15  C   UNK N   1      35.372  12.262  18.833  0.00  0.00     0.003 A 
HETATM   16  C   UNK N   1      35.821  10.959  18.600  0.00  0.00     0.002 A 
HETATM   17  C   UNK N   1      35.856  10.452  17.296  0.00  0.00     0.021 A 
BRANCH  13  18
HETATM   18  O   UNK N   1      34.578  13.331  15.440  0.00  0.00    -0.359 OA
HETATM   19  H   UNK N   1      35.161  13.947  15.043  0.00  0.00     0.217 HD
ENDBRANCH  13  18
ENDBRANCH  11  12
ENDBRANCH   1  11
TORSDOF 8
ENDMDL
MODEL 5
REMARK VINA RESULT:      -5.2     13.804     15.747
REMARK  8 active torsions:
REMARK  status: ('A' for Active; 'I' for Inactive)
REMARK    1  A    between atoms: P_1  and  O_2 
REMARK    2  A    between atoms: P_1  and  O_3 
REMARK    3  A    between atoms: P_1  and  C_5 
REMARK    4  A    between atoms: C_6  and  C_8 
REMARK    5  A    between atoms: C_7  and  C_8 
REMARK    6  A    between atoms: C_7  and  S_9 
REMARK    7  A    between atoms: S_9  and  C_14 
REMARK    8  A    between atoms: O_10  and  C_13 
ROOT
HETATM    1  C   UNK N   1      31.929  16.820   7.803  0.00  0.00     0.083 C 
ENDROOT
BRANCH   1   2
HETATM    2  C   UNK N   1      33.041  17.856   7.888  0.00  0.00     0.038 C 
BRANCH   2   3
HETATM    3  C   UNK N   1      33.991  17.523   8.989  0.00  0.00    -0.018 C 
HETATM    4  C   UNK N   1      34.169  16.253   9.344  0.00  0.00     0.091 C 
BRANCH   4   5
HETATM    5  P   UNK N   1      35.301  15.824  10.717  0.00  0.00     0.260 P 
HETATM    6  O   UNK N   1      35.802  14.945   9.539  0.00  0.00    -0.651 OA
BRANCH   5   7
HETATM    7  O   UNK N   1      36.997  16.158  10.867  0.00  0.00    -0.326 OA
HETATM    8  H   UNK N   1      37.583  16.173  11.640  0.00  0.00     0.220 HD
ENDBRANCH   5   7
BRANCH   5   9
HETATM    9  O   UNK N   1      35.492  17.449  10.135  0.00  0.00    -0.326 OA
HETATM   10  H   UNK N   1      34.904  18.061   9.667  0.00  0.00     0.220 HD
ENDBRANCH   5   9
ENDBRANCH   4   5
ENDBRANCH   2   3
ENDBRANCH   1   2
BRANCH   1  11
HETATM   11  S   UNK N   1      30.469  17.342   8.764  0.00  0.00    -0.127 SA
BRANCH  11  12
HETATM   12  C   UNK N   1      29.507  17.780   7.312  0.00  0.00     0.033 A 
HETATM   13  C   UNK N   1      28.312  18.509   7.439  0.00  0.00     0.082 A 
HETATM   14  C   UNK N   1      27.588  18.868   6.298  0.00  0.00     0.038 A 
HETATM   15  C   UNK N   1      28.050  18.506   5.030  0.00  0.00     0.003 A 
HETATM   16  C   UNK N   1      29.240  17.782   4.901  0.00  0.00     0.002 A 
HETATM   17  C   UNK N   1      29.967  17.419   6.040  0.00  0.00     0.021 A 
BRANCH  13  18
HETATM   18  O   UNK N   1      27.859  18.869   8.652  0.00  0.00    -0.359 OA
HETATM   19  H   UNK N   1      27.812  18.245   9.350  0.00  0.00     0.217 HD
ENDBRANCH  13  18
ENDBRANCH  11  12
ENDBRANCH   1  11
TORSDOF 8
ENDMDL
MODEL 6
REMARK VINA RESULT:      -5.2     21.287     24.550
REMARK  8 active torsions:
REMARK  status: ('A' for Active; 'I' for Inactive)
REMARK    1  A    between atoms: P_1  and  O_2 
REMARK    2  A    between atoms: P_1  and  O_3 
REMARK    3  A    between atoms: P_1  and  C_5 
REMARK    4  A    between atoms: C_6  and  C_8 
REMARK    5  A    between atoms: C_7  and  C_8 
REMARK    6  A    between atoms: C_7  and  S_9 
REMARK    7  A    between atoms: S_9  and  C_14 
REMARK    8  A    between atoms: O_10  and  C_13 
ROOT
HETATM    1  C   UNK N   1      36.271  11.882  13.646  0.00  0.00     0.083 C 
ENDROOT
BRANCH   1   2
HETATM    2  C   UNK N   1      36.818  13.301  13.672  0.00  0.00     0.038 C 
BRANCH   2   3
HETATM    3  C   UNK N   1      36.015  14.194  12.789  0.00  0.00    -0.018 C 
HETATM    4  C   UNK N   1      36.252  14.211  11.479  0.00  0.00     0.091 C 
BRANCH   4   5
HETATM    5  P   UNK N   1      35.304  15.327  10.380  0.00  0.00     0.260 P 
HETATM    6  O   UNK N   1      34.365  15.130  11.601  0.00  0.00    -0.651 OA
BRANCH   5   7
HETATM    7  O   UNK N   1      34.878  16.989  10.631  0.00  0.00    -0.326 OA
HETATM    8  H   UNK N   1      34.026  17.450  10.573  0.00  0.00     0.220 HD
ENDBRANCH   5   7
BRANCH   5   9
HETATM    9  O   UNK N   1      36.726  16.057  11.060  0.00  0.00    -0.326 OA
HETATM   10  H   UNK N   1      36.867  16.808  11.657  0.00  0.00     0.220 HD
ENDBRANCH   5   9
ENDBRANCH   4   5
ENDBRANCH   2   3
ENDBRANCH   1   2
BRANCH   1  11
HETATM   11  S   UNK N   1      34.501  11.851  14.087  0.00  0.00    -0.127 SA
BRANCH  11  12
HETATM   12  C   UNK N   1      34.808  11.819  15.857  0.00  0.00     0.033 A 
HETATM   13  C   UNK N   1      35.067  10.604  16.515  0.00  0.00     0.082 A 
HETATM   14  C   UNK N   1      35.333  10.597  17.888  0.00  0.00     0.038 A 
HETATM   15  C   UNK N   1      35.345  11.795  18.607  0.00  0.00     0.003 A 
HETATM   16  C   UNK N   1      35.089  13.005  17.954  0.00  0.00     0.002 A 
HETATM   17  C   UNK N   1      34.821  13.016  16.581  0.00  0.00     0.021 A 
BRANCH  13  18
HETATM   18  O   UNK N   1      35.065   9.446  15.834  0.00  0.00    -0.359 OA
HETATM   19  H   UNK N   1      34.608   9.371  15.019  0.00  0.00     0.217 HD
ENDBRANCH  13  18
ENDBRANCH  11  12
ENDBRANCH   1  11
TORSDOF 8
ENDMDL
MODEL 7
REMARK VINA RESULT:      -5.1     11.545     13.386
REMARK  8 active torsions:
REMARK  status: ('A' for Active; 'I' for Inactive)
REMARK    1  A    between atoms: P_1  and  O_2 
REMARK    2  A    between atoms: P_1  and  O_3 
REMARK    3  A    between atoms: P_1  and  C_5 
REMARK    4  A    between atoms: C_6  and  C_8 
REMARK    5  A    between atoms: C_7  and  C_8 
REMARK    6  A    between atoms: C_7  and  S_9 
REMARK    7  A    between atoms: S_9  and  C_14 
REMARK    8  A    between atoms: O_10  and  C_13 
ROOT
HETATM    1  C   UNK N   1      30.444  17.554   5.151  0.00  0.00     0.083 C 
ENDROOT
BRANCH   1   2
HETATM    2  C   UNK N   1      31.518  16.488   5.309  0.00  0.00     0.038 C 
BRANCH   2   3
HETATM    3  C   UNK N   1      32.714  17.039   6.008  0.00  0.00    -0.018 C 
HETATM    4  C   UNK N   1      32.858  16.846   7.317  0.00  0.00     0.091 C 
BRANCH   4   5
HETATM    5  P   UNK N   1      34.299  17.546   8.204  0.00  0.00     0.260 P 
HETATM    6  O   UNK N   1      34.654  17.753   6.706  0.00  0.00    -0.651 OA
BRANCH   5   7
HETATM    7  O   UNK N   1      34.814  19.199   8.300  0.00  0.00    -0.326 OA
HETATM    8  H   UNK N   1      35.697  19.595   8.368  0.00  0.00     0.220 HD
ENDBRANCH   5   7
BRANCH   5   9
HETATM    9  O   UNK N   1      32.837  18.458   8.417  0.00  0.00    -0.326 OA
HETATM   10  H   UNK N   1      32.182  18.818   7.800  0.00  0.00     0.220 HD
ENDBRANCH   5   9
ENDBRANCH   4   5
ENDBRANCH   2   3
ENDBRANCH   1   2
BRANCH   1  11
HETATM   11  S   UNK N   1      28.876  17.027   5.921  0.00  0.00    -0.127 SA
BRANCH  11  12
HETATM   12  C   UNK N   1      28.109  18.644   5.773  0.00  0.00     0.033 A 
HETATM   13  C   UNK N   1      27.663  19.113   4.525  0.00  0.00     0.082 A 
HETATM   14  C   UNK N   1      27.043  20.362   4.429  0.00  0.00     0.038 A 
HETATM   15  C   UNK N   1      26.860  21.146   5.571  0.00  0.00     0.003 A 
HETATM   16  C   UNK N   1      27.301  20.681   6.815  0.00  0.00     0.002 A 
HETATM   17  C   UNK N   1      27.924  19.432   6.915  0.00  0.00     0.021 A 
BRANCH  13  18
HETATM   18  O   UNK N   1      27.826  18.367   3.420  0.00  0.00    -0.359 OA
HETATM   19  H   UNK N   1      27.599  18.705   2.576  0.00  0.00     0.217 HD
ENDBRANCH  13  18
ENDBRANCH  11  12
ENDBRANCH   1  11
TORSDOF 8
ENDMDL
MODEL 8
REMARK VINA RESULT:      -5.1     11.361     12.959
REMARK  8 active torsions:
REMARK  status: ('A' for Active; 'I' for Inactive)
REMARK    1  A    between atoms: P_1  and  O_2 
REMARK    2  A    between atoms: P_1  and  O_3 
REMARK    3  A    between atoms: P_1  and  C_5 
REMARK    4  A    between atoms: C_6  and  C_8 
REMARK    5  A    between atoms: C_7  and  C_8 
REMARK    6  A    between atoms: C_7  and  S_9 
REMARK    7  A    between atoms: S_9  and  C_14 
REMARK    8  A    between atoms: O_10  and  C_13 
ROOT
HETATM    1  C   UNK N   1      23.770  17.269   3.769  0.00  0.00     0.083 C 
ENDROOT
BRANCH   1   2
HETATM    2  C   UNK N   1      22.574  18.014   4.345  0.00  0.00     0.038 C 
BRANCH   2   3
HETATM    3  C   UNK N   1      22.227  19.192   3.500  0.00  0.00    -0.018 C 
HETATM    4  C   UNK N   1      21.092  19.191   2.805  0.00  0.00     0.091 C 
BRANCH   4   5
HETATM    5  P   UNK N   1      20.662  20.611   1.731  0.00  0.00     0.260 P 
HETATM    6  O   UNK N   1      22.214  20.610   1.735  0.00  0.00    -0.651 OA
BRANCH   5   7
HETATM    7  O   UNK N   1      20.910  20.793   0.024  0.00  0.00    -0.326 OA
HETATM    8  H   UNK N   1      20.481  20.371  -0.737  0.00  0.00     0.220 HD
ENDBRANCH   5   7
BRANCH   5   9
HETATM    9  O   UNK N   1      20.246  19.068   1.051  0.00  0.00    -0.326 OA
HETATM   10  H   UNK N   1      20.067  18.766   0.147  0.00  0.00     0.220 HD
ENDBRANCH   5   9
ENDBRANCH   4   5
ENDBRANCH   2   3
ENDBRANCH   1   2
BRANCH   1  11
HETATM   11  S   UNK N   1      24.848  16.630   5.095  0.00  0.00    -0.127 SA
BRANCH  11  12
HETATM   12  C   UNK N   1      26.051  17.954   4.934  0.00  0.00     0.033 A 
HETATM   13  C   UNK N   1      27.077  18.108   5.883  0.00  0.00     0.082 A 
HETATM   14  C   UNK N   1      28.023  19.126   5.730  0.00  0.00     0.038 A 
HETATM   15  C   UNK N   1      27.954  19.990   4.634  0.00  0.00     0.003 A 
HETATM   16  C   UNK N   1      26.936  19.838   3.687  0.00  0.00     0.002 A 
HETATM   17  C   UNK N   1      25.986  18.822   3.837  0.00  0.00     0.021 A 
BRANCH  13  18
HETATM   18  O   UNK N   1      27.158  17.280   6.938  0.00  0.00    -0.359 OA
HETATM   19  H   UNK N   1      27.872  16.679   7.020  0.00  0.00     0.217 HD
ENDBRANCH  13  18
ENDBRANCH  11  12
ENDBRANCH   1  11
TORSDOF 8
ENDMDL
MODEL 9
REMARK VINA RESULT:      -5.1     21.467     24.647
REMARK  8 active torsions:
REMARK  status: ('A' for Active; 'I' for Inactive)
REMARK    1  A    between atoms: P_1  and  O_2 
REMARK    2  A    between atoms: P_1  and  O_3 
REMARK    3  A    between atoms: P_1  and  C_5 
REMARK    4  A    between atoms: C_6  and  C_8 
REMARK    5  A    between atoms: C_7  and  C_8 
REMARK    6  A    between atoms: C_7  and  S_9 
REMARK    7  A    between atoms: S_9  and  C_14 
REMARK    8  A    between atoms: O_10  and  C_13 
ROOT
HETATM    1  C   UNK N   1      35.095  12.649  14.272  0.00  0.00     0.083 C 
ENDROOT
BRANCH   1   2
HETATM    2  C   UNK N   1      35.777  12.536  12.917  0.00  0.00     0.038 C 
BRANCH   2   3
HETATM    3  C   UNK N   1      35.292  13.599  11.989  0.00  0.00    -0.018 C 
HETATM    4  C   UNK N   1      36.167  14.270  11.243  0.00  0.00     0.091 C 
BRANCH   4   5
HETATM    5  P   UNK N   1      35.599  15.604  10.125  0.00  0.00     0.260 P 
HETATM    6  O   UNK N   1      34.567  15.633  11.285  0.00  0.00    -0.651 OA
BRANCH   5   7
HETATM    7  O   UNK N   1      35.588  17.317  10.400  0.00  0.00    -0.326 OA
HETATM    8  H   UNK N   1      36.289  17.984  10.329  0.00  0.00     0.220 HD
ENDBRANCH   5   7
BRANCH   5   9
HETATM    9  O   UNK N   1      37.113  15.943  10.905  0.00  0.00    -0.326 OA
HETATM   10  H   UNK N   1      38.005  15.575  10.814  0.00  0.00     0.220 HD
ENDBRANCH   5   9
ENDBRANCH   4   5
ENDBRANCH   2   3
ENDBRANCH   1   2
BRANCH   1  11
HETATM   11  S   UNK N   1      36.045  13.725  15.399  0.00  0.00    -0.127 SA
BRANCH  11  12
HETATM   12  C   UNK N   1      35.711  12.720  16.850  0.00  0.00     0.033 A 
HETATM   13  C   UNK N   1      35.454  13.323  18.093  0.00  0.00     0.082 A 
HETATM   14  C   UNK N   1      35.169  12.529  19.208  0.00  0.00     0.038 A 
HETATM   15  C   UNK N   1      35.135  11.137  19.090  0.00  0.00     0.003 A 
HETATM   16  C   UNK N   1      35.388  10.535  17.853  0.00  0.00     0.002 A 
HETATM   17  C   UNK N   1      35.677  11.326  16.735  0.00  0.00     0.021 A 
BRANCH  13  18
HETATM   18  O   UNK N   1      35.477  14.660  18.219  0.00  0.00    -0.359 OA
HETATM   19  H   UNK N   1      34.971  15.087  18.883  0.00  0.00     0.217 HD
ENDBRANCH  13  18
ENDBRANCH  11  12
ENDBRANCH   1  11
TORSDOF 8
ENDMDL
