REMARK  8 active torsions:
REMARK  status: ('A' for Active; 'I' for Inactive)
REMARK    1  A    between atoms: P_1  and  O_2 
REMARK    2  A    between atoms: P_1  and  O_3 
REMARK    3  A    between atoms: P_1  and  C_5 
REMARK    4  A    between atoms: C_6  and  C_8 
REMARK    5  A    between atoms: C_7  and  C_8 
REMARK    6  A    between atoms: C_7  and  S_9 
REMARK    7  A    between atoms: S_9  and  C_14 
REMARK    8  A    between atoms: O_10  and  C_13 
ROOT
HETATM    1  C   UNK N   1       0.459  -3.797   0.299  0.00  0.00     0.083 C 
ENDROOT
BRANCH   1   2
HETATM    2  C   UNK N   1      -1.035  -3.652   0.547  0.00  0.00     0.038 C 
BRANCH   2   3
HETATM    3  C   UNK N   1      -1.369  -2.262   0.971  0.00  0.00    -0.018 C 
HETATM    4  C   UNK N   1      -1.676  -1.349   0.052  0.00  0.00     0.091 C 
BRANCH   4   5
HETATM    5  P   UNK N   1      -2.053   0.373   0.546  0.00  0.00     0.260 P 
HETATM    6  O   UNK N   1      -0.790   0.515  -0.346  0.00  0.00    -0.651 OA
BRANCH   5   7
HETATM    7  O   UNK N   1      -2.599   1.689  -0.443  0.00  0.00    -0.326 OA
HETATM    8  H   UNK N   1      -2.114   2.322  -0.996  0.00  0.00     0.220 HD
ENDBRANCH   5   7
BRANCH   5   9
HETATM    9  O   UNK N   1      -3.237  -0.325  -0.515  0.00  0.00    -0.326 OA
HETATM   10  H   UNK N   1      -3.905   0.053  -1.107  0.00  0.00     0.220 HD
ENDBRANCH   5   9
ENDBRANCH   4   5
ENDBRANCH   2   3
ENDBRANCH   1   2
BRANCH   1  11
HETATM   11  S   UNK N   1       0.958  -2.938  -1.232  0.00  0.00    -0.127 SA
BRANCH  11  12
HETATM   12  C   UNK N   1       2.398  -2.167  -0.485  0.00  0.00     0.033 A 
HETATM   13  C   UNK N   1       3.521  -2.937  -0.136  0.00  0.00     0.082 A 
HETATM   14  C   UNK N   1       4.646  -2.320   0.419  0.00  0.00     0.038 A 
HETATM   15  C   UNK N   1       4.659  -0.938   0.625  0.00  0.00     0.003 A 
HETATM   16  C   UNK N   1       3.544  -0.169   0.277  0.00  0.00     0.002 A 
HETATM   17  C   UNK N   1       2.415  -0.783  -0.277  0.00  0.00     0.021 A 
BRANCH  13  18
HETATM   18  O   UNK N   1       3.524  -4.266  -0.335  0.00  0.00    -0.359 OA
HETATM   19  H   UNK N   1       2.722  -4.731  -0.473  0.00  0.00     0.217 HD
ENDBRANCH  13  18
ENDBRANCH  11  12
ENDBRANCH   1  11
TORSDOF 8
