REMARK  7 active torsions:
REMARK  status: ('A' for Active; 'I' for Inactive)
REMARK    1  A    between atoms: C_2  and  C_4 
REMARK    2  A    between atoms: C_2  and  O_3 
REMARK    3  A    between atoms: C_4  and  C_5 
REMARK    4  A    between atoms: C_5  and  C_6 
REMARK    5  A    between atoms: C_6  and  O_8 
REMARK    6  A    between atoms: C_9  and  O_8 
REMARK    7  A    between atoms: C_24  and  O_25 
ROOT
HETATM    1  C   UNK N   1      -1.720   1.514  -0.770  0.00  0.00     0.140 C 
HETATM    2  C   UNK N   1      -0.711   0.542  -0.144  0.00  0.00    -0.013 C 
HETATM    3  C   UNK N   1      -1.135   0.091   1.265  0.00  0.00     0.018 C 
HETATM    4  C   UNK N   1      -1.539   2.796   0.065  0.00  0.00     0.034 C 
HETATM    5  C   UNK N   1      -0.082   2.733   0.586  0.00  0.00     0.008 C 
HETATM    6  C   UNK N   1       0.493   1.489  -0.090  0.00  0.00     0.001 C 
HETATM    7  C   UNK N   1       1.755   0.811   0.469  0.00  0.00    -0.001 C 
HETATM    8  C   UNK N   1       2.044  -0.392  -0.483  0.00  0.00     0.023 C 
HETATM    9  C   UNK N   1       0.880  -1.397  -0.480  0.00  0.00     0.010 C 
HETATM   10  C   UNK N   1      -0.400  -0.702  -0.987  0.00  0.00     0.013 C 
HETATM   11  C   UNK N   1       2.941   1.816   0.522  0.00  0.00     0.010 C 
HETATM   12  C   UNK N   1       4.152   1.429  -0.351  0.00  0.00     0.039 C 
HETATM   13  C   UNK N   1       4.468  -0.028  -0.181  0.00  0.00    -0.049 A 
HETATM   14  C   UNK N   1       3.412  -0.950  -0.211  0.00  0.00    -0.047 A 
HETATM   15  C   UNK N   1       5.780  -0.463   0.009  0.00  0.00     0.044 A 
HETATM   16  C   UNK N   1       6.043  -1.827   0.165  0.00  0.00     0.066 A 
HETATM   17  C   UNK N   1       4.990  -2.751   0.155  0.00  0.00     0.037 A 
HETATM   18  C   UNK N   1       3.671  -2.316  -0.030  0.00  0.00     0.011 A 
ENDROOT
BRANCH   1  19
HETATM   19  O   UNK N   1      -3.018   1.050  -0.890  0.00  0.00    -0.315 OA
BRANCH  19  20
HETATM   20  C   UNK N   1      -3.893   0.901   0.127  0.00  0.00     0.259 C 
HETATM   21  O   UNK N   1      -4.520   1.868   0.533  0.00  0.00    -0.265 OA
BRANCH  20  22
HETATM   22  C   UNK N   1      -4.172  -0.478   0.651  0.00  0.00     0.121 C 
BRANCH  22  23
HETATM   23  C   UNK N   1      -5.420  -0.549   1.518  0.00  0.00     0.119 C 
BRANCH  23  24
HETATM   24  C   UNK N   1      -6.623  -0.680   0.644  0.00  0.00     0.139 C 
HETATM   25  O   UNK N   1      -7.486   0.180   0.663  0.00  0.00    -0.650 OA
BRANCH  24  26
HETATM   26  O   UNK N   1      -6.753  -1.746  -0.170  0.00  0.00    -0.776 OA
HETATM   27  H   UNK N   1      -7.441  -2.038  -0.736  0.00  0.00     0.167 HD
ENDBRANCH  24  26
ENDBRANCH  23  24
ENDBRANCH  22  23
ENDBRANCH  20  22
ENDBRANCH  19  20
ENDBRANCH   1  19
BRANCH  16  28
HETATM   28  O   UNK N   1       7.307  -2.250   0.320  0.00  0.00    -0.361 OA
HETATM   29  H   UNK N   1       7.493  -3.162   0.428  0.00  0.00     0.217 HD
ENDBRANCH  16  28
TORSDOF 7
