MODEL 1
REMARK VINA RESULT:      -7.8      0.000      0.000
REMARK  7 active torsions:
REMARK  status: ('A' for Active; 'I' for Inactive)
REMARK    1  A    between atoms: C_2  and  C_4 
REMARK    2  A    between atoms: C_2  and  O_3 
REMARK    3  A    between atoms: C_4  and  C_5 
REMARK    4  A    between atoms: C_5  and  C_6 
REMARK    5  A    between atoms: C_6  and  O_8 
REMARK    6  A    between atoms: C_9  and  O_8 
REMARK    7  A    between atoms: C_24  and  O_25 
ROOT
HETATM    1  C   UNK N   1      22.302  14.069   7.992  0.00  0.00     0.140 C 
HETATM    2  C   UNK N   1      21.789  14.610   6.651  0.00  0.00    -0.013 C 
HETATM    3  C   UNK N   1      21.650  13.502   5.592  0.00  0.00     0.018 C 
HETATM    4  C   UNK N   1      23.768  13.706   7.688  0.00  0.00     0.034 C 
HETATM    5  C   UNK N   1      24.179  14.639   6.522  0.00  0.00     0.008 C 
HETATM    6  C   UNK N   1      22.962  15.544   6.334  0.00  0.00     0.001 C 
HETATM    7  C   UNK N   1      22.763  16.320   5.021  0.00  0.00    -0.001 C 
HETATM    8  C   UNK N   1      21.446  17.136   5.209  0.00  0.00     0.023 C 
HETATM    9  C   UNK N   1      20.243  16.207   5.440  0.00  0.00     0.010 C 
HETATM   10  C   UNK N   1      20.467  15.387   6.727  0.00  0.00     0.013 C 
HETATM   11  C   UNK N   1      23.987  17.237   4.734  0.00  0.00     0.010 C 
HETATM   12  C   UNK N   1      23.663  18.743   4.681  0.00  0.00     0.039 C 
HETATM   13  C   UNK N   1      22.416  18.977   3.879  0.00  0.00    -0.049 A 
HETATM   14  C   UNK N   1      21.307  18.153   4.112  0.00  0.00    -0.047 A 
HETATM   15  C   UNK N   1      22.357  19.987   2.918  0.00  0.00     0.044 A 
HETATM   16  C   UNK N   1      21.182  20.180   2.186  0.00  0.00     0.066 A 
HETATM   17  C   UNK N   1      20.076  19.347   2.401  0.00  0.00     0.037 A 
HETATM   18  C   UNK N   1      20.135  18.329   3.362  0.00  0.00     0.011 A 
ENDROOT
BRANCH   1  19
HETATM   19  O   UNK N   1      21.542  13.072   8.577  0.00  0.00    -0.315 OA
BRANCH  19  20
HETATM   20  C   UNK N   1      20.861  13.186   9.737  0.00  0.00     0.259 C 
HETATM   21  O   UNK N   1      19.798  13.789   9.760  0.00  0.00    -0.265 OA
BRANCH  20  22
HETATM   22  C   UNK N   1      21.362  12.456  10.950  0.00  0.00     0.121 C 
BRANCH  22  23
HETATM   23  C   UNK N   1      22.700  11.768  10.725  0.00  0.00     0.119 C 
BRANCH  23  24
HETATM   24  C   UNK N   1      23.573  11.982  11.917  0.00  0.00     0.139 C 
HETATM   25  O   UNK N   1      23.110  11.870  13.039  0.00  0.00    -0.650 OA
BRANCH  24  26
HETATM   26  O   UNK N   1      24.874  12.293  11.754  0.00  0.00    -0.776 OA
HETATM   27  H   UNK N   1      25.326  13.105  11.632  0.00  0.00     0.167 HD
ENDBRANCH  24  26
ENDBRANCH  23  24
ENDBRANCH  22  23
ENDBRANCH  20  22
ENDBRANCH  19  20
ENDBRANCH   1  19
BRANCH  16  28
HETATM   28  O   UNK N   1      21.114  21.168   1.281  0.00  0.00    -0.361 OA
HETATM   29  H   UNK N   1      20.973  20.974   0.375  0.00  0.00     0.217 HD
ENDBRANCH  16  28
TORSDOF 7
ENDMDL
MODEL 2
REMARK VINA RESULT:      -7.7     13.615     17.332
REMARK  7 active torsions:
REMARK  status: ('A' for Active; 'I' for Inactive)
REMARK    1  A    between atoms: C_2  and  C_4 
REMARK    2  A    between atoms: C_2  and  O_3 
REMARK    3  A    between atoms: C_4  and  C_5 
REMARK    4  A    between atoms: C_5  and  C_6 
REMARK    5  A    between atoms: C_6  and  O_8 
REMARK    6  A    between atoms: C_9  and  O_8 
REMARK    7  A    between atoms: C_24  and  O_25 
ROOT
HETATM    1  C   UNK N   1      35.752  11.478  10.791  0.00  0.00     0.140 C 
HETATM    2  C   UNK N   1      36.137  12.160  12.110  0.00  0.00    -0.013 C 
HETATM    3  C   UNK N   1      37.546  12.777  12.056  0.00  0.00     0.018 C 
HETATM    4  C   UNK N   1      36.664  10.237  10.756  0.00  0.00     0.034 C 
HETATM    5  C   UNK N   1      36.964   9.918  12.241  0.00  0.00     0.008 C 
HETATM    6  C   UNK N   1      36.104  10.920  13.010  0.00  0.00     0.001 C 
HETATM    7  C   UNK N   1      36.414  11.247  14.480  0.00  0.00    -0.001 C 
HETATM    8  C   UNK N   1      35.326  12.276  14.922  0.00  0.00     0.023 C 
HETATM    9  C   UNK N   1      35.405  13.564  14.084  0.00  0.00     0.010 C 
HETATM   10  C   UNK N   1      35.150  13.228  12.601  0.00  0.00     0.013 C 
HETATM   11  C   UNK N   1      36.387   9.956  15.348  0.00  0.00     0.010 C 
HETATM   12  C   UNK N   1      35.318   9.950  16.460  0.00  0.00     0.039 C 
HETATM   13  C   UNK N   1      35.310  11.268  17.176  0.00  0.00    -0.049 A 
HETATM   14  C   UNK N   1      35.348  12.445  16.414  0.00  0.00    -0.047 A 
HETATM   15  C   UNK N   1      35.271  11.331  18.570  0.00  0.00     0.044 A 
HETATM   16  C   UNK N   1      35.264  12.574  19.209  0.00  0.00     0.066 A 
HETATM   17  C   UNK N   1      35.322  13.752  18.453  0.00  0.00     0.037 A 
HETATM   18  C   UNK N   1      35.367  13.692  17.054  0.00  0.00     0.011 A 
ENDROOT
BRANCH   1  19
HETATM   19  O   UNK N   1      35.777  12.278   9.662  0.00  0.00    -0.315 OA
BRANCH  19  20
HETATM   20  C   UNK N   1      34.763  13.059   9.233  0.00  0.00     0.259 C 
HETATM   21  O   UNK N   1      33.636  12.595   9.146  0.00  0.00    -0.265 OA
BRANCH  20  22
HETATM   22  C   UNK N   1      35.020  14.519   8.996  0.00  0.00     0.121 C 
BRANCH  22  23
HETATM   23  C   UNK N   1      34.622  15.397  10.173  0.00  0.00     0.119 C 
BRANCH  23  24
HETATM   24  C   UNK N   1      35.692  16.407  10.421  0.00  0.00     0.139 C 
HETATM   25  O   UNK N   1      35.487  17.583  10.177  0.00  0.00    -0.650 OA
BRANCH  24  26
HETATM   26  O   UNK N   1      36.883  16.021  10.920  0.00  0.00    -0.776 OA
HETATM   27  H   UNK N   1      37.478  15.333  10.693  0.00  0.00     0.167 HD
ENDBRANCH  24  26
ENDBRANCH  23  24
ENDBRANCH  22  23
ENDBRANCH  20  22
ENDBRANCH  19  20
ENDBRANCH   1  19
BRANCH  16  28
HETATM   28  O   UNK N   1      35.198  12.637  20.547  0.00  0.00    -0.361 OA
HETATM   29  H   UNK N   1      34.546  13.162  20.967  0.00  0.00     0.217 HD
ENDBRANCH  16  28
TORSDOF 7
ENDMDL
MODEL 3
REMARK VINA RESULT:      -7.6     14.591     18.710
REMARK  7 active torsions:
REMARK  status: ('A' for Active; 'I' for Inactive)
REMARK    1  A    between atoms: C_2  and  C_4 
REMARK    2  A    between atoms: C_2  and  O_3 
REMARK    3  A    between atoms: C_4  and  C_5 
REMARK    4  A    between atoms: C_5  and  C_6 
REMARK    5  A    between atoms: C_6  and  O_8 
REMARK    6  A    between atoms: C_9  and  O_8 
REMARK    7  A    between atoms: C_24  and  O_25 
ROOT
HETATM    1  C   UNK N   1      36.879  12.234  14.168  0.00  0.00     0.140 C 
HETATM    2  C   UNK N   1      35.749  11.589  14.981  0.00  0.00    -0.013 C 
HETATM    3  C   UNK N   1      34.359  11.922  14.412  0.00  0.00     0.018 C 
HETATM    4  C   UNK N   1      36.732  13.734  14.488  0.00  0.00     0.034 C 
HETATM    5  C   UNK N   1      36.067  13.782  15.885  0.00  0.00     0.008 C 
HETATM    6  C   UNK N   1      35.999  12.315  16.308  0.00  0.00     0.001 C 
HETATM    7  C   UNK N   1      35.035  11.868  17.419  0.00  0.00    -0.001 C 
HETATM    8  C   UNK N   1      35.263  10.332  17.582  0.00  0.00     0.023 C 
HETATM    9  C   UNK N   1      34.931   9.579  16.283  0.00  0.00     0.010 C 
HETATM   10  C   UNK N   1      35.860  10.068  15.153  0.00  0.00     0.013 C 
HETATM   11  C   UNK N   1      35.316  12.646  18.736  0.00  0.00     0.010 C 
HETATM   12  C   UNK N   1      35.746  11.763  19.926  0.00  0.00     0.039 C 
HETATM   13  C   UNK N   1      34.871  10.547  20.011  0.00  0.00    -0.049 A 
HETATM   14  C   UNK N   1      34.593   9.839  18.833  0.00  0.00    -0.047 A 
HETATM   15  C   UNK N   1      34.338  10.127  21.229  0.00  0.00     0.044 A 
HETATM   16  C   UNK N   1      33.525   8.990  21.276  0.00  0.00     0.066 A 
HETATM   17  C   UNK N   1      33.229   8.290  20.100  0.00  0.00     0.037 A 
HETATM   18  C   UNK N   1      33.759   8.713  18.874  0.00  0.00     0.011 A 
ENDROOT
BRANCH   1  19
HETATM   19  O   UNK N   1      36.926  11.905  12.824  0.00  0.00    -0.315 OA
BRANCH  19  20
HETATM   20  C   UNK N   1      36.930  12.787  11.802  0.00  0.00     0.259 C 
HETATM   21  O   UNK N   1      37.992  13.142  11.314  0.00  0.00    -0.265 OA
BRANCH  20  22
HETATM   22  C   UNK N   1      35.621  13.213  11.203  0.00  0.00     0.121 C 
BRANCH  22  23
HETATM   23  C   UNK N   1      35.174  14.594  11.657  0.00  0.00     0.119 C 
BRANCH  23  24
HETATM   24  C   UNK N   1      35.722  15.623  10.725  0.00  0.00     0.139 C 
HETATM   25  O   UNK N   1      35.023  16.068   9.831  0.00  0.00    -0.650 OA
BRANCH  24  26
HETATM   26  O   UNK N   1      36.986  16.064  10.874  0.00  0.00    -0.776 OA
HETATM   27  H   UNK N   1      37.517  16.660  10.383  0.00  0.00     0.167 HD
ENDBRANCH  24  26
ENDBRANCH  23  24
ENDBRANCH  22  23
ENDBRANCH  20  22
ENDBRANCH  19  20
ENDBRANCH   1  19
BRANCH  16  28
HETATM   28  O   UNK N   1      33.034   8.569  22.452  0.00  0.00    -0.361 OA
HETATM   29  H   UNK N   1      33.213   7.702  22.758  0.00  0.00     0.217 HD
ENDBRANCH  16  28
TORSDOF 7
ENDMDL
MODEL 4
REMARK VINA RESULT:      -7.4      1.770      8.641
REMARK  7 active torsions:
REMARK  status: ('A' for Active; 'I' for Inactive)
REMARK    1  A    between atoms: C_2  and  C_4 
REMARK    2  A    between atoms: C_2  and  O_3 
REMARK    3  A    between atoms: C_4  and  C_5 
REMARK    4  A    between atoms: C_5  and  C_6 
REMARK    5  A    between atoms: C_6  and  O_8 
REMARK    6  A    between atoms: C_9  and  O_8 
REMARK    7  A    between atoms: C_24  and  O_25 
ROOT
HETATM    1  C   UNK N   1      21.460  16.242   4.008  0.00  0.00     0.140 C 
HETATM    2  C   UNK N   1      21.372  16.058   5.529  0.00  0.00    -0.013 C 
HETATM    3  C   UNK N   1      21.346  17.402   6.277  0.00  0.00     0.018 C 
HETATM    4  C   UNK N   1      22.891  16.774   3.800  0.00  0.00     0.034 C 
HETATM    5  C   UNK N   1      23.701  16.228   5.002  0.00  0.00     0.008 C 
HETATM    6  C   UNK N   1      22.705  15.329   5.734  0.00  0.00     0.001 C 
HETATM    7  C   UNK N   1      22.944  14.933   7.201  0.00  0.00    -0.001 C 
HETATM    8  C   UNK N   1      21.747  14.009   7.588  0.00  0.00     0.023 C 
HETATM    9  C   UNK N   1      20.407  14.754   7.472  0.00  0.00     0.010 C 
HETATM   10  C   UNK N   1      20.193  15.202   6.012  0.00  0.00     0.013 C 
HETATM   11  C   UNK N   1      24.315  14.216   7.359  0.00  0.00     0.010 C 
HETATM   12  C   UNK N   1      24.226  12.763   7.870  0.00  0.00     0.039 C 
HETATM   13  C   UNK N   1      23.259  12.675   9.014  0.00  0.00    -0.049 A 
HETATM   14  C   UNK N   1      22.023  13.326   8.898  0.00  0.00    -0.047 A 
HETATM   15  C   UNK N   1      23.578  11.967  10.173  0.00  0.00     0.044 A 
HETATM   16  C   UNK N   1      22.657  11.903  11.223  0.00  0.00     0.066 A 
HETATM   17  C   UNK N   1      21.428  12.568  11.120  0.00  0.00     0.037 A 
HETATM   18  C   UNK N   1      21.108  13.284   9.959  0.00  0.00     0.011 A 
ENDROOT
BRANCH   1  19
HETATM   19  O   UNK N   1      20.449  16.985   3.426  0.00  0.00    -0.315 OA
BRANCH  19  20
HETATM   20  C   UNK N   1      20.299  17.200   2.102  0.00  0.00     0.259 C 
HETATM   21  O   UNK N   1      19.982  16.273   1.371  0.00  0.00    -0.265 OA
BRANCH  20  22
HETATM   22  C   UNK N   1      20.397  18.602   1.575  0.00  0.00     0.121 C 
BRANCH  22  23
HETATM   23  C   UNK N   1      20.498  19.649   2.674  0.00  0.00     0.119 C 
BRANCH  23  24
HETATM   24  C   UNK N   1      21.063  20.909   2.107  0.00  0.00     0.139 C 
HETATM   25  O   UNK N   1      20.770  21.253   0.975  0.00  0.00    -0.650 OA
BRANCH  24  26
HETATM   26  O   UNK N   1      21.893  21.670   2.848  0.00  0.00    -0.776 OA
HETATM   27  H   UNK N   1      22.787  21.932   2.740  0.00  0.00     0.167 HD
ENDBRANCH  24  26
ENDBRANCH  23  24
ENDBRANCH  22  23
ENDBRANCH  20  22
ENDBRANCH  19  20
ENDBRANCH   1  19
BRANCH  16  28
HETATM   28  O   UNK N   1      22.950  11.200  12.327  0.00  0.00    -0.361 OA
HETATM   29  H   UNK N   1      22.532  10.378  12.493  0.00  0.00     0.217 HD
ENDBRANCH  16  28
TORSDOF 7
ENDMDL
MODEL 5
REMARK VINA RESULT:      -7.3     12.657     16.795
REMARK  7 active torsions:
REMARK  status: ('A' for Active; 'I' for Inactive)
REMARK    1  A    between atoms: C_2  and  C_4 
REMARK    2  A    between atoms: C_2  and  O_3 
REMARK    3  A    between atoms: C_4  and  C_5 
REMARK    4  A    between atoms: C_5  and  C_6 
REMARK    5  A    between atoms: C_6  and  O_8 
REMARK    6  A    between atoms: C_9  and  O_8 
REMARK    7  A    between atoms: C_24  and  O_25 
ROOT
HETATM    1  C   UNK N   1      35.228  13.041   9.790  0.00  0.00     0.140 C 
HETATM    2  C   UNK N   1      35.818  13.075  11.206  0.00  0.00    -0.013 C 
HETATM    3  C   UNK N   1      37.348  13.238  11.196  0.00  0.00     0.018 C 
HETATM    4  C   UNK N   1      35.710  11.684   9.241  0.00  0.00     0.034 C 
HETATM    5  C   UNK N   1      35.908  10.792  10.491  0.00  0.00     0.008 C 
HETATM    6  C   UNK N   1      35.408  11.664  11.643  0.00  0.00     0.001 C 
HETATM    7  C   UNK N   1      35.817  11.350  13.092  0.00  0.00    -0.001 C 
HETATM    8  C   UNK N   1      35.106  12.425  13.972  0.00  0.00     0.023 C 
HETATM    9  C   UNK N   1      35.574  13.844  13.605  0.00  0.00     0.010 C 
HETATM   10  C   UNK N   1      35.215  14.138  12.134  0.00  0.00     0.013 C 
HETATM   11  C   UNK N   1      35.398   9.903  13.480  0.00  0.00     0.010 C 
HETATM   12  C   UNK N   1      34.390   9.815  14.644  0.00  0.00     0.039 C 
HETATM   13  C   UNK N   1      34.798  10.741  15.752  0.00  0.00    -0.049 A 
HETATM   14  C   UNK N   1      35.193  12.046  15.423  0.00  0.00    -0.047 A 
HETATM   15  C   UNK N   1      34.792  10.319  17.082  0.00  0.00     0.044 A 
HETATM   16  C   UNK N   1      35.177  11.205  18.092  0.00  0.00     0.066 A 
HETATM   17  C   UNK N   1      35.591  12.503  17.768  0.00  0.00     0.037 A 
HETATM   18  C   UNK N   1      35.604  12.927  16.433  0.00  0.00     0.011 A 
ENDROOT
BRANCH   1  19
HETATM   19  O   UNK N   1      35.491  14.142   8.995  0.00  0.00    -0.315 OA
BRANCH  19  20
HETATM   20  C   UNK N   1      34.596  15.093   8.654  0.00  0.00     0.259 C 
HETATM   21  O   UNK N   1      33.800  14.880   7.753  0.00  0.00    -0.265 OA
BRANCH  20  22
HETATM   22  C   UNK N   1      34.514  16.344   9.480  0.00  0.00     0.121 C 
BRANCH  22  23
HETATM   23  C   UNK N   1      33.648  17.424   8.849  0.00  0.00     0.119 C 
BRANCH  23  24
HETATM   24  C   UNK N   1      34.491  18.279   7.963  0.00  0.00     0.139 C 
HETATM   25  O   UNK N   1      35.185  19.157   8.445  0.00  0.00    -0.650 OA
BRANCH  24  26
HETATM   26  O   UNK N   1      34.489  18.079   6.630  0.00  0.00    -0.776 OA
HETATM   27  H   UNK N   1      34.363  18.651   5.898  0.00  0.00     0.167 HD
ENDBRANCH  24  26
ENDBRANCH  23  24
ENDBRANCH  22  23
ENDBRANCH  20  22
ENDBRANCH  19  20
ENDBRANCH   1  19
BRANCH  16  28
HETATM   28  O   UNK N   1      35.145  10.810  19.374  0.00  0.00    -0.361 OA
HETATM   29  H   UNK N   1      34.622  11.270  20.001  0.00  0.00     0.217 HD
ENDBRANCH  16  28
TORSDOF 7
ENDMDL
MODEL 6
REMARK VINA RESULT:      -7.2      2.506      8.876
REMARK  7 active torsions:
REMARK  status: ('A' for Active; 'I' for Inactive)
REMARK    1  A    between atoms: C_2  and  C_4 
REMARK    2  A    between atoms: C_2  and  O_3 
REMARK    3  A    between atoms: C_4  and  C_5 
REMARK    4  A    between atoms: C_5  and  C_6 
REMARK    5  A    between atoms: C_6  and  O_8 
REMARK    6  A    between atoms: C_9  and  O_8 
REMARK    7  A    between atoms: C_24  and  O_25 
ROOT
HETATM    1  C   UNK N   1      24.018  16.111   4.604  0.00  0.00     0.140 C 
HETATM    2  C   UNK N   1      24.301  14.949   5.565  0.00  0.00    -0.013 C 
HETATM    3  C   UNK N   1      24.792  13.690   4.828  0.00  0.00     0.018 C 
HETATM    4  C   UNK N   1      22.757  15.646   3.851  0.00  0.00     0.034 C 
HETATM    5  C   UNK N   1      22.041  14.680   4.826  0.00  0.00     0.008 C 
HETATM    6  C   UNK N   1      22.878  14.764   6.102  0.00  0.00     0.001 C 
HETATM    7  C   UNK N   1      22.786  13.660   7.169  0.00  0.00    -0.001 C 
HETATM    8  C   UNK N   1      23.753  14.098   8.313  0.00  0.00     0.023 C 
HETATM    9  C   UNK N   1      25.202  14.203   7.809  0.00  0.00     0.010 C 
HETATM   10  C   UNK N   1      25.284  15.270   6.699  0.00  0.00     0.013 C 
HETATM   11  C   UNK N   1      21.321  13.498   7.667  0.00  0.00     0.010 C 
HETATM   12  C   UNK N   1      21.117  13.785   9.168  0.00  0.00     0.039 C 
HETATM   13  C   UNK N   1      22.201  13.130   9.973  0.00  0.00    -0.049 A 
HETATM   14  C   UNK N   1      23.527  13.252   9.534  0.00  0.00    -0.047 A 
HETATM   15  C   UNK N   1      21.903  12.410  11.130  0.00  0.00     0.044 A 
HETATM   16  C   UNK N   1      22.935  11.811  11.859  0.00  0.00     0.066 A 
HETATM   17  C   UNK N   1      24.260  11.912  11.414  0.00  0.00     0.037 A 
HETATM   18  C   UNK N   1      24.560  12.631  10.249  0.00  0.00     0.011 A 
ENDROOT
BRANCH   1  19
HETATM   19  O   UNK N   1      25.078  16.518   3.813  0.00  0.00    -0.315 OA
BRANCH  19  20
HETATM   20  C   UNK N   1      25.728  17.696   3.921  0.00  0.00     0.259 C 
HETATM   21  O   UNK N   1      26.848  17.816   3.446  0.00  0.00    -0.265 OA
BRANCH  20  22
HETATM   22  C   UNK N   1      25.006  18.874   4.508  0.00  0.00     0.121 C 
BRANCH  22  23
HETATM   23  C   UNK N   1      25.511  20.210   3.983  0.00  0.00     0.119 C 
BRANCH  23  24
HETATM   24  C   UNK N   1      24.656  20.648   2.841  0.00  0.00     0.139 C 
HETATM   25  O   UNK N   1      25.112  20.668   1.711  0.00  0.00    -0.650 OA
BRANCH  24  26
HETATM   26  O   UNK N   1      23.377  21.016   3.057  0.00  0.00    -0.776 OA
HETATM   27  H   UNK N   1      22.974  21.837   3.261  0.00  0.00     0.167 HD
ENDBRANCH  24  26
ENDBRANCH  23  24
ENDBRANCH  22  23
ENDBRANCH  20  22
ENDBRANCH  19  20
ENDBRANCH   1  19
BRANCH  16  28
HETATM   28  O   UNK N   1      22.654  11.141  12.987  0.00  0.00    -0.361 OA
HETATM   29  H   UNK N   1      22.661  10.204  12.998  0.00  0.00     0.217 HD
ENDBRANCH  16  28
TORSDOF 7
ENDMDL
MODEL 7
REMARK VINA RESULT:      -7.2      7.482     11.172
REMARK  7 active torsions:
REMARK  status: ('A' for Active; 'I' for Inactive)
REMARK    1  A    between atoms: C_2  and  C_4 
REMARK    2  A    between atoms: C_2  and  O_3 
REMARK    3  A    between atoms: C_4  and  C_5 
REMARK    4  A    between atoms: C_5  and  C_6 
REMARK    5  A    between atoms: C_6  and  O_8 
REMARK    6  A    between atoms: C_9  and  O_8 
REMARK    7  A    between atoms: C_24  and  O_25 
ROOT
HETATM    1  C   UNK N   1      28.159  18.961   6.820  0.00  0.00     0.140 C 
HETATM    2  C   UNK N   1      28.950  17.723   6.374  0.00  0.00    -0.013 C 
HETATM    3  C   UNK N   1      28.160  16.420   6.590  0.00  0.00     0.018 C 
HETATM    4  C   UNK N   1      28.135  18.830   8.355  0.00  0.00     0.034 C 
HETATM    5  C   UNK N   1      29.400  18.010   8.708  0.00  0.00     0.008 C 
HETATM    6  C   UNK N   1      30.112  17.844   7.366  0.00  0.00     0.001 C 
HETATM    7  C   UNK N   1      31.169  16.743   7.176  0.00  0.00    -0.001 C 
HETATM    8  C   UNK N   1      31.679  16.898   5.708  0.00  0.00     0.023 C 
HETATM    9  C   UNK N   1      30.539  16.692   4.697  0.00  0.00     0.010 C 
HETATM   10  C   UNK N   1      29.452  17.761   4.925  0.00  0.00     0.013 C 
HETATM   11  C   UNK N   1      32.316  16.896   8.216  0.00  0.00     0.010 C 
HETATM   12  C   UNK N   1      33.708  17.155   7.605  0.00  0.00     0.039 C 
HETATM   13  C   UNK N   1      33.943  16.235   6.443  0.00  0.00    -0.049 A 
HETATM   14  C   UNK N   1      32.917  16.071   5.501  0.00  0.00    -0.047 A 
HETATM   15  C   UNK N   1      35.150  15.550   6.299  0.00  0.00     0.044 A 
HETATM   16  C   UNK N   1      35.338  14.700   5.206  0.00  0.00     0.066 A 
HETATM   17  C   UNK N   1      34.310  14.517   4.272  0.00  0.00     0.037 A 
HETATM   18  C   UNK N   1      33.095  15.199   4.418  0.00  0.00     0.011 A 
ENDROOT
BRANCH   1  19
HETATM   19  O   UNK N   1      26.932  19.151   6.210  0.00  0.00    -0.315 OA
BRANCH  19  20
HETATM   20  C   UNK N   1      26.690  19.994   5.184  0.00  0.00     0.259 C 
HETATM   21  O   UNK N   1      27.093  21.146   5.238  0.00  0.00    -0.265 OA
BRANCH  20  22
HETATM   22  C   UNK N   1      26.042  19.458   3.940  0.00  0.00     0.121 C 
BRANCH  22  23
HETATM   23  C   UNK N   1      24.530  19.623   3.933  0.00  0.00     0.119 C 
BRANCH  23  24
HETATM   24  C   UNK N   1      24.141  20.582   2.858  0.00  0.00     0.139 C 
HETATM   25  O   UNK N   1      23.080  21.178   2.927  0.00  0.00    -0.650 OA
BRANCH  24  26
HETATM   26  O   UNK N   1      24.965  20.795   1.813  0.00  0.00    -0.776 OA
HETATM   27  H   UNK N   1      24.959  20.498   0.923  0.00  0.00     0.167 HD
ENDBRANCH  24  26
ENDBRANCH  23  24
ENDBRANCH  22  23
ENDBRANCH  20  22
ENDBRANCH  19  20
ENDBRANCH   1  19
BRANCH  16  28
HETATM   28  O   UNK N   1      36.509  14.062   5.050  0.00  0.00    -0.361 OA
HETATM   29  H   UNK N   1      37.039  14.219   4.294  0.00  0.00     0.217 HD
ENDBRANCH  16  28
TORSDOF 7
ENDMDL
MODEL 8
REMARK VINA RESULT:      -7.2      9.153     12.483
REMARK  7 active torsions:
REMARK  status: ('A' for Active; 'I' for Inactive)
REMARK    1  A    between atoms: C_2  and  C_4 
REMARK    2  A    between atoms: C_2  and  O_3 
REMARK    3  A    between atoms: C_4  and  C_5 
REMARK    4  A    between atoms: C_5  and  C_6 
REMARK    5  A    between atoms: C_6  and  O_8 
REMARK    6  A    between atoms: C_9  and  O_8 
REMARK    7  A    between atoms: C_24  and  O_25 
ROOT
HETATM    1  C   UNK N   1      30.585  16.431   5.335  0.00  0.00     0.140 C 
HETATM    2  C   UNK N   1      31.893  16.619   6.115  0.00  0.00    -0.013 C 
HETATM    3  C   UNK N   1      33.006  17.231   5.245  0.00  0.00     0.018 C 
HETATM    4  C   UNK N   1      30.918  15.288   4.358  0.00  0.00     0.034 C 
HETATM    5  C   UNK N   1      32.039  14.478   5.056  0.00  0.00     0.008 C 
HETATM    6  C   UNK N   1      32.172  15.144   6.425  0.00  0.00     0.001 C 
HETATM    7  C   UNK N   1      33.442  14.946   7.268  0.00  0.00    -0.001 C 
HETATM    8  C   UNK N   1      33.202  15.749   8.586  0.00  0.00     0.023 C 
HETATM    9  C   UNK N   1      33.009  17.247   8.298  0.00  0.00     0.010 C 
HETATM   10  C   UNK N   1      31.767  17.442   7.404  0.00  0.00     0.013 C 
HETATM   11  C   UNK N   1      33.691  13.435   7.539  0.00  0.00     0.010 C 
HETATM   12  C   UNK N   1      33.665  13.034   9.028  0.00  0.00     0.039 C 
HETATM   13  C   UNK N   1      34.444  14.024   9.843  0.00  0.00    -0.049 A 
HETATM   14  C   UNK N   1      34.245  15.391   9.606  0.00  0.00    -0.047 A 
HETATM   15  C   UNK N   1      35.353  13.600  10.814  0.00  0.00     0.044 A 
HETATM   16  C   UNK N   1      36.064  14.546  11.558  0.00  0.00     0.066 A 
HETATM   17  C   UNK N   1      35.884  15.913  11.312  0.00  0.00     0.037 A 
HETATM   18  C   UNK N   1      34.977  16.341  10.334  0.00  0.00     0.011 A 
ENDROOT
BRANCH   1  19
HETATM   19  O   UNK N   1      30.045  17.572   4.768  0.00  0.00    -0.315 OA
BRANCH  19  20
HETATM   20  C   UNK N   1      28.950  18.224   5.212  0.00  0.00     0.259 C 
HETATM   21  O   UNK N   1      28.403  19.048   4.494  0.00  0.00    -0.265 OA
BRANCH  20  22
HETATM   22  C   UNK N   1      28.351  17.827   6.530  0.00  0.00     0.121 C 
BRANCH  22  23
HETATM   23  C   UNK N   1      28.135  19.003   7.469  0.00  0.00     0.119 C 
BRANCH  23  24
HETATM   24  C   UNK N   1      28.343  18.556   8.878  0.00  0.00     0.139 C 
HETATM   25  O   UNK N   1      29.424  18.721   9.416  0.00  0.00    -0.650 OA
BRANCH  24  26
HETATM   26  O   UNK N   1      27.335  17.974   9.558  0.00  0.00    -0.776 OA
HETATM   27  H   UNK N   1      26.882  18.200  10.347  0.00  0.00     0.167 HD
ENDBRANCH  24  26
ENDBRANCH  23  24
ENDBRANCH  22  23
ENDBRANCH  20  22
ENDBRANCH  19  20
ENDBRANCH   1  19
BRANCH  16  28
HETATM   28  O   UNK N   1      36.918  14.141  12.511  0.00  0.00    -0.361 OA
HETATM   29  H   UNK N   1      36.894  14.527  13.365  0.00  0.00     0.217 HD
ENDBRANCH  16  28
TORSDOF 7
ENDMDL
MODEL 9
REMARK VINA RESULT:      -7.1     15.452     17.483
REMARK  7 active torsions:
REMARK  status: ('A' for Active; 'I' for Inactive)
REMARK    1  A    between atoms: C_2  and  C_4 
REMARK    2  A    between atoms: C_2  and  O_3 
REMARK    3  A    between atoms: C_4  and  C_5 
REMARK    4  A    between atoms: C_5  and  C_6 
REMARK    5  A    between atoms: C_6  and  O_8 
REMARK    6  A    between atoms: C_9  and  O_8 
REMARK    7  A    between atoms: C_24  and  O_25 
ROOT
HETATM    1  C   UNK N   1      26.920  24.388  -5.338  0.00  0.00     0.140 C 
HETATM    2  C   UNK N   1      28.411  24.194  -5.032  0.00  0.00    -0.013 C 
HETATM    3  C   UNK N   1      29.250  25.423  -5.423  0.00  0.00     0.018 C 
HETATM    4  C   UNK N   1      26.869  24.357  -6.878  0.00  0.00     0.034 C 
HETATM    5  C   UNK N   1      28.091  23.506  -7.302  0.00  0.00     0.008 C 
HETATM    6  C   UNK N   1      28.671  23.015  -5.977  0.00  0.00     0.001 C 
HETATM    7  C   UNK N   1      30.120  22.505  -5.901  0.00  0.00    -0.001 C 
HETATM    8  C   UNK N   1      30.340  22.078  -4.415  0.00  0.00     0.023 C 
HETATM    9  C   UNK N   1      30.168  23.272  -3.462  0.00  0.00     0.010 C 
HETATM   10  C   UNK N   1      28.731  23.820  -3.579  0.00  0.00     0.013 C 
HETATM   11  C   UNK N   1      30.339  21.324  -6.890  0.00  0.00     0.010 C 
HETATM   12  C   UNK N   1      30.734  19.991  -6.223  0.00  0.00     0.039 C 
HETATM   13  C   UNK N   1      31.785  20.226  -5.178  0.00  0.00    -0.049 A 
HETATM   14  C   UNK N   1      31.614  21.294  -4.285  0.00  0.00    -0.047 A 
HETATM   15  C   UNK N   1      32.912  19.408  -5.093  0.00  0.00     0.044 A 
HETATM   16  C   UNK N   1      33.875  19.653  -4.110  0.00  0.00     0.066 A 
HETATM   17  C   UNK N   1      33.719  20.730  -3.227  0.00  0.00     0.037 A 
HETATM   18  C   UNK N   1      32.591  21.556  -3.314  0.00  0.00     0.011 A 
ENDROOT
BRANCH   1  19
HETATM   19  O   UNK N   1      26.312  25.475  -4.736  0.00  0.00    -0.315 OA
BRANCH  19  20
HETATM   20  C   UNK N   1      25.604  26.430  -5.376  0.00  0.00     0.259 C 
HETATM   21  O   UNK N   1      24.402  26.284  -5.541  0.00  0.00    -0.265 OA
BRANCH  20  22
HETATM   22  C   UNK N   1      26.288  27.711  -5.757  0.00  0.00     0.121 C 
BRANCH  22  23
HETATM   23  C   UNK N   1      27.220  28.237  -4.677  0.00  0.00     0.119 C 
BRANCH  23  24
HETATM   24  C   UNK N   1      26.412  28.815  -3.564  0.00  0.00     0.139 C 
HETATM   25  O   UNK N   1      26.172  28.146  -2.574  0.00  0.00    -0.650 OA
BRANCH  24  26
HETATM   26  O   UNK N   1      25.952  30.079  -3.650  0.00  0.00    -0.776 OA
HETATM   27  H   UNK N   1      25.300  30.556  -3.173  0.00  0.00     0.167 HD
ENDBRANCH  24  26
ENDBRANCH  23  24
ENDBRANCH  22  23
ENDBRANCH  20  22
ENDBRANCH  19  20
ENDBRANCH   1  19
BRANCH  16  28
HETATM   28  O   UNK N   1      34.946  18.851  -4.009  0.00  0.00    -0.361 OA
HETATM   29  H   UNK N   1      35.466  18.848  -3.230  0.00  0.00     0.217 HD
ENDBRANCH  16  28
TORSDOF 7
ENDMDL
