REMARK  7 active torsions:
REMARK  status: ('A' for Active; 'I' for Inactive)
REMARK    1  A    between atoms: N_1  and  C_10 
REMARK    2  A    between atoms: C_8  and  S_15 
REMARK    3  A    between atoms: C_10  and  O_11 
REMARK    4  A    between atoms: O_11  and  C_12 
REMARK    5  A    between atoms: C_12  and  C_13 
REMARK    6  A    between atoms: C_13  and  O_14 
REMARK    7  A    between atoms: S_15  and  C_16 
ROOT
HETATM    1  N   UNK N   1       0.916  -1.531   0.200  0.00  0.00    -0.271 N 
HETATM    2  C   UNK N   1       0.694  -2.880   0.007  0.00  0.00     0.332 A 
HETATM    3  O   UNK N   1       1.629  -3.660  -0.049  0.00  0.00    -0.246 OA
HETATM    4  N   UNK N   1      -0.578  -3.357  -0.104  0.00  0.00    -0.275 N 
HETATM    5  C   UNK N   1      -1.652  -2.528   0.005  0.00  0.00     0.258 A 
HETATM    6  O   UNK N   1      -2.776  -2.997  -0.060  0.00  0.00    -0.267 OA
HETATM    7  C   UNK N   1      -1.464  -1.154   0.205  0.00  0.00     0.040 A 
HETATM    8  C   UNK N   1      -0.135  -0.642   0.275  0.00  0.00     0.094 A 
HETATM    9  C   UNK N   1      -2.681  -0.307   0.382  0.00  0.00     0.057 C 
HETATM   10  H   UNK N   1      -0.722  -4.317  -0.266  0.00  0.00     0.173 HD
ENDROOT
BRANCH   8  11
HETATM   11  S   UNK N   1       0.268   1.137   0.536  0.00  0.00    -0.072 SA
BRANCH  11  12
HETATM   12  C   UNK N   1      -1.197   2.079   0.083  0.00  0.00     0.007 A 
HETATM   13  C   UNK N   1      -1.774   1.997  -1.194  0.00  0.00     0.019 A 
HETATM   14  C   UNK N   1      -2.925   2.741  -1.487  0.00  0.00     0.001 A 
HETATM   15  C   UNK N   1      -3.482   3.586  -0.520  0.00  0.00     0.000 A 
HETATM   16  C   UNK N   1      -2.887   3.693   0.740  0.00  0.00     0.001 A 
HETATM   17  C   UNK N   1      -1.750   2.938   1.039  0.00  0.00     0.019 A 
ENDBRANCH  11  12
ENDBRANCH   8  11
BRANCH   1  18
HETATM   18  C   UNK N   1       2.299  -1.092   0.428  0.00  0.00     0.304 C 
BRANCH  18  19
HETATM   19  O   UNK N   1       2.806  -0.331  -0.630  0.00  0.00    -0.369 OA
BRANCH  19  20
HETATM   20  C   UNK N   1       3.948  -1.022  -1.068  0.00  0.00     0.196 C 
BRANCH  20  21
HETATM   21  C   UNK N   1       5.128  -0.863  -0.104  0.00  0.00     0.190 C 
BRANCH  21  22
HETATM   22  O   UNK N   1       5.504   0.476  -0.002  0.00  0.00    -0.399 OA
HETATM   23  H   UNK N   1       6.442   0.715   0.070  0.00  0.00     0.209 HD
ENDBRANCH  21  22
ENDBRANCH  20  21
ENDBRANCH  19  20
ENDBRANCH  18  19
ENDBRANCH   1  18
TORSDOF 7
