MODEL 1
REMARK VINA RESULT:      -6.2      0.000      0.000
REMARK  7 active torsions:
REMARK  status: ('A' for Active; 'I' for Inactive)
REMARK    1  A    between atoms: N_1  and  C_10 
REMARK    2  A    between atoms: C_8  and  S_15 
REMARK    3  A    between atoms: C_10  and  O_11 
REMARK    4  A    between atoms: O_11  and  C_12 
REMARK    5  A    between atoms: C_12  and  C_13 
REMARK    6  A    between atoms: C_13  and  O_14 
REMARK    7  A    between atoms: S_15  and  C_16 
ROOT
HETATM    1  N   UNK N   1      31.394  17.396   6.974  0.00  0.00    -0.271 N 
HETATM    2  C   UNK N   1      32.763  17.544   6.873  0.00  0.00     0.332 A 
HETATM    3  O   UNK N   1      33.435  17.772   7.864  0.00  0.00    -0.246 OA
HETATM    4  N   UNK N   1      33.379  17.418   5.665  0.00  0.00    -0.275 N 
HETATM    5  C   UNK N   1      32.672  17.113   4.542  0.00  0.00     0.258 A 
HETATM    6  O   UNK N   1      33.264  16.969   3.486  0.00  0.00    -0.267 OA
HETATM    7  C   UNK N   1      31.282  16.951   4.608  0.00  0.00     0.040 A 
HETATM    8  C   UNK N   1      30.625  17.128   5.861  0.00  0.00     0.094 A 
HETATM    9  C   UNK N   1      30.571  16.553   3.357  0.00  0.00     0.057 C 
HETATM   10  H   UNK N   1      34.353  17.551   5.602  0.00  0.00     0.173 HD
ENDROOT
BRANCH   8  11
HETATM   11  S   UNK N   1      28.807  16.947   6.102  0.00  0.00    -0.072 SA
BRANCH  11  12
HETATM   12  C   UNK N   1      28.053  18.501   5.599  0.00  0.00     0.007 A 
HETATM   13  C   UNK N   1      27.710  18.769   4.264  0.00  0.00     0.019 A 
HETATM   14  C   UNK N   1      27.110  19.991   3.931  0.00  0.00     0.001 A 
HETATM   15  C   UNK N   1      26.878  20.954   4.920  0.00  0.00     0.000 A 
HETATM   16  C   UNK N   1      27.251  20.700   6.243  0.00  0.00     0.001 A 
HETATM   17  C   UNK N   1      27.833  19.475   6.579  0.00  0.00     0.019 A 
ENDBRANCH  11  12
ENDBRANCH   8  11
BRANCH   1  18
HETATM   18  C   UNK N   1      30.800  17.428   8.317  0.00  0.00     0.304 C 
BRANCH  18  19
HETATM   19  O   UNK N   1      30.530  18.727   8.758  0.00  0.00    -0.369 OA
BRANCH  19  20
HETATM   20  C   UNK N   1      29.702  18.571   9.882  0.00  0.00     0.196 C 
BRANCH  20  21
HETATM   21  C   UNK N   1      28.731  17.395   9.729  0.00  0.00     0.190 C 
BRANCH  21  22
HETATM   22  O   UNK N   1      27.437  17.853   9.486  0.00  0.00    -0.399 OA
HETATM   23  H   UNK N   1      26.758  17.244   9.153  0.00  0.00     0.209 HD
ENDBRANCH  21  22
ENDBRANCH  20  21
ENDBRANCH  19  20
ENDBRANCH  18  19
ENDBRANCH   1  18
TORSDOF 7
ENDMDL
MODEL 2
REMARK VINA RESULT:      -6.0      7.959     10.054
REMARK  7 active torsions:
REMARK  status: ('A' for Active; 'I' for Inactive)
REMARK    1  A    between atoms: N_1  and  C_10 
REMARK    2  A    between atoms: C_8  and  S_15 
REMARK    3  A    between atoms: C_10  and  O_11 
REMARK    4  A    between atoms: O_11  and  C_12 
REMARK    5  A    between atoms: C_12  and  C_13 
REMARK    6  A    between atoms: C_13  and  O_14 
REMARK    7  A    between atoms: S_15  and  C_16 
ROOT
HETATM    1  N   UNK N   1      20.889  16.547   6.762  0.00  0.00    -0.271 N 
HETATM    2  C   UNK N   1      21.458  17.786   6.547  0.00  0.00     0.332 A 
HETATM    3  O   UNK N   1      20.885  18.802   6.900  0.00  0.00    -0.246 OA
HETATM    4  N   UNK N   1      22.681  17.885   5.952  0.00  0.00    -0.275 N 
HETATM    5  C   UNK N   1      23.379  16.774   5.589  0.00  0.00     0.258 A 
HETATM    6  O   UNK N   1      24.487  16.901   5.096  0.00  0.00    -0.267 OA
HETATM    7  C   UNK N   1      22.833  15.501   5.797  0.00  0.00     0.040 A 
HETATM    8  C   UNK N   1      21.535  15.392   6.376  0.00  0.00     0.094 A 
HETATM    9  C   UNK N   1      23.674  14.320   5.438  0.00  0.00     0.057 C 
HETATM   10  H   UNK N   1      23.065  18.775   5.782  0.00  0.00     0.173 HD
ENDROOT
BRANCH   8  11
HETATM   11  S   UNK N   1      20.690  13.788   6.710  0.00  0.00    -0.072 SA
BRANCH  11  12
HETATM   12  C   UNK N   1      21.432  13.106   8.201  0.00  0.00     0.007 A 
HETATM   13  C   UNK N   1      21.082  13.556   9.484  0.00  0.00     0.019 A 
HETATM   14  C   UNK N   1      21.679  12.977  10.612  0.00  0.00     0.001 A 
HETATM   15  C   UNK N   1      22.644  11.973  10.461  0.00  0.00     0.000 A 
HETATM   16  C   UNK N   1      23.016  11.550   9.182  0.00  0.00     0.001 A 
HETATM   17  C   UNK N   1      22.408  12.114   8.058  0.00  0.00     0.019 A 
ENDBRANCH  11  12
ENDBRANCH   8  11
BRANCH   1  18
HETATM   18  C   UNK N   1      19.626  16.496   7.510  0.00  0.00     0.304 C 
BRANCH  18  19
HETATM   19  O   UNK N   1      19.783  16.830   8.859  0.00  0.00    -0.369 OA
BRANCH  19  20
HETATM   20  C   UNK N   1      18.638  17.573   9.191  0.00  0.00     0.196 C 
BRANCH  20  21
HETATM   21  C   UNK N   1      18.962  18.768  10.094  0.00  0.00     0.190 C 
BRANCH  21  22
HETATM   22  O   UNK N   1      20.181  19.341   9.733  0.00  0.00    -0.399 OA
HETATM   23  H   UNK N   1      20.605  19.993  10.314  0.00  0.00     0.209 HD
ENDBRANCH  21  22
ENDBRANCH  20  21
ENDBRANCH  19  20
ENDBRANCH  18  19
ENDBRANCH   1  18
TORSDOF 7
ENDMDL
MODEL 3
REMARK VINA RESULT:      -6.0      1.857      2.564
REMARK  7 active torsions:
REMARK  status: ('A' for Active; 'I' for Inactive)
REMARK    1  A    between atoms: N_1  and  C_10 
REMARK    2  A    between atoms: C_8  and  S_15 
REMARK    3  A    between atoms: C_10  and  O_11 
REMARK    4  A    between atoms: O_11  and  C_12 
REMARK    5  A    between atoms: C_12  and  C_13 
REMARK    6  A    between atoms: C_13  and  O_14 
REMARK    7  A    between atoms: S_15  and  C_16 
ROOT
HETATM    1  N   UNK N   1      32.052  17.340   6.180  0.00  0.00    -0.271 N 
HETATM    2  C   UNK N   1      33.300  17.475   5.607  0.00  0.00     0.332 A 
HETATM    3  O   UNK N   1      34.270  17.750   6.292  0.00  0.00    -0.246 OA
HETATM    4  N   UNK N   1      33.464  17.284   4.267  0.00  0.00    -0.275 N 
HETATM    5  C   UNK N   1      32.417  16.926   3.475  0.00  0.00     0.258 A 
HETATM    6  O   UNK N   1      32.610  16.725   2.287  0.00  0.00    -0.267 OA
HETATM    7  C   UNK N   1      31.137  16.776   4.024  0.00  0.00     0.040 A 
HETATM    8  C   UNK N   1      30.950  17.020   5.416  0.00  0.00     0.094 A 
HETATM    9  C   UNK N   1      30.043  16.318   3.116  0.00  0.00     0.057 C 
HETATM   10  H   UNK N   1      34.354  17.408   3.866  0.00  0.00     0.173 HD
ENDROOT
BRANCH   8  11
HETATM   11  S   UNK N   1      29.329  16.861   6.278  0.00  0.00    -0.072 SA
BRANCH  11  12
HETATM   12  C   UNK N   1      28.459  18.420   6.052  0.00  0.00     0.007 A 
HETATM   13  C   UNK N   1      27.997  19.183   7.136  0.00  0.00     0.019 A 
HETATM   14  C   UNK N   1      27.339  20.398   6.902  0.00  0.00     0.001 A 
HETATM   15  C   UNK N   1      27.118  20.838   5.592  0.00  0.00     0.000 A 
HETATM   16  C   UNK N   1      27.548  20.061   4.513  0.00  0.00     0.001 A 
HETATM   17  C   UNK N   1      28.220  18.858   4.745  0.00  0.00     0.019 A 
ENDBRANCH  11  12
ENDBRANCH   8  11
BRANCH   1  18
HETATM   18  C   UNK N   1      31.957  17.443   7.642  0.00  0.00     0.304 C 
BRANCH  18  19
HETATM   19  O   UNK N   1      32.061  16.203   8.280  0.00  0.00    -0.369 OA
BRANCH  19  20
HETATM   20  C   UNK N   1      33.247  16.271   9.029  0.00  0.00     0.196 C 
BRANCH  20  21
HETATM   21  C   UNK N   1      33.536  14.966   9.778  0.00  0.00     0.190 C 
BRANCH  21  22
HETATM   22  O   UNK N   1      32.966  14.991  11.050  0.00  0.00    -0.399 OA
HETATM   23  H   UNK N   1      32.055  15.304  11.170  0.00  0.00     0.209 HD
ENDBRANCH  21  22
ENDBRANCH  20  21
ENDBRANCH  19  20
ENDBRANCH  18  19
ENDBRANCH   1  18
TORSDOF 7
ENDMDL
MODEL 4
REMARK VINA RESULT:      -5.8     11.358     13.757
REMARK  7 active torsions:
REMARK  status: ('A' for Active; 'I' for Inactive)
REMARK    1  A    between atoms: N_1  and  C_10 
REMARK    2  A    between atoms: C_8  and  S_15 
REMARK    3  A    between atoms: C_10  and  O_11 
REMARK    4  A    between atoms: O_11  and  C_12 
REMARK    5  A    between atoms: C_12  and  C_13 
REMARK    6  A    between atoms: C_13  and  O_14 
REMARK    7  A    between atoms: S_15  and  C_16 
ROOT
HETATM    1  N   UNK N   1      28.013  23.837  -4.568  0.00  0.00    -0.271 N 
HETATM    2  C   UNK N   1      27.526  23.877  -3.277  0.00  0.00     0.332 A 
HETATM    3  O   UNK N   1      26.358  24.156  -3.063  0.00  0.00    -0.246 OA
HETATM    4  N   UNK N   1      28.343  23.584  -2.226  0.00  0.00    -0.275 N 
HETATM    5  C   UNK N   1      29.638  23.216  -2.424  0.00  0.00     0.258 A 
HETATM    6  O   UNK N   1      30.328  22.923  -1.462  0.00  0.00    -0.267 OA
HETATM    7  C   UNK N   1      30.165  23.162  -3.721  0.00  0.00     0.040 A 
HETATM    8  C   UNK N   1      29.328  23.512  -4.822  0.00  0.00     0.094 A 
HETATM    9  C   UNK N   1      31.573  22.688  -3.878  0.00  0.00     0.057 C 
HETATM   10  H   UNK N   1      27.990  23.639  -1.309  0.00  0.00     0.173 HD
ENDROOT
BRANCH   8  11
HETATM   11  S   UNK N   1      29.879  23.486  -6.580  0.00  0.00    -0.072 SA
BRANCH  11  12
HETATM   12  C   UNK N   1      29.903  21.763  -7.097  0.00  0.00     0.007 A 
HETATM   13  C   UNK N   1      28.742  21.086  -7.502  0.00  0.00     0.019 A 
HETATM   14  C   UNK N   1      28.822  19.748  -7.910  0.00  0.00     0.001 A 
HETATM   15  C   UNK N   1      30.050  19.078  -7.887  0.00  0.00     0.000 A 
HETATM   16  C   UNK N   1      31.200  19.742  -7.452  0.00  0.00     0.001 A 
HETATM   17  C   UNK N   1      31.125  21.081  -7.062  0.00  0.00     0.019 A 
ENDBRANCH  11  12
ENDBRANCH   8  11
BRANCH   1  18
HETATM   18  C   UNK N   1      27.059  24.049  -5.665  0.00  0.00     0.304 C 
BRANCH  18  19
HETATM   19  O   UNK N   1      26.286  22.915  -5.935  0.00  0.00    -0.369 OA
BRANCH  19  20
HETATM   20  C   UNK N   1      25.734  23.139  -7.208  0.00  0.00     0.196 C 
BRANCH  20  21
HETATM   21  C   UNK N   1      25.129  21.866  -7.810  0.00  0.00     0.190 C 
BRANCH  21  22
HETATM   22  O   UNK N   1      23.764  22.031  -8.040  0.00  0.00    -0.399 OA
HETATM   23  H   UNK N   1      23.370  22.919  -8.026  0.00  0.00     0.209 HD
ENDBRANCH  21  22
ENDBRANCH  20  21
ENDBRANCH  19  20
ENDBRANCH  18  19
ENDBRANCH   1  18
TORSDOF 7
ENDMDL
MODEL 5
REMARK VINA RESULT:      -5.7     11.249     13.538
REMARK  7 active torsions:
REMARK  status: ('A' for Active; 'I' for Inactive)
REMARK    1  A    between atoms: N_1  and  C_10 
REMARK    2  A    between atoms: C_8  and  S_15 
REMARK    3  A    between atoms: C_10  and  O_11 
REMARK    4  A    between atoms: O_11  and  C_12 
REMARK    5  A    between atoms: C_12  and  C_13 
REMARK    6  A    between atoms: C_13  and  O_14 
REMARK    7  A    between atoms: S_15  and  C_16 
ROOT
HETATM    1  N   UNK N   1      28.058  23.843  -4.431  0.00  0.00    -0.271 N 
HETATM    2  C   UNK N   1      27.604  23.906  -3.128  0.00  0.00     0.332 A 
HETATM    3  O   UNK N   1      26.447  24.206  -2.889  0.00  0.00    -0.246 OA
HETATM    4  N   UNK N   1      28.443  23.613  -2.095  0.00  0.00    -0.275 N 
HETATM    5  C   UNK N   1      29.727  23.223  -2.321  0.00  0.00     0.258 A 
HETATM    6  O   UNK N   1      30.437  22.931  -1.372  0.00  0.00    -0.267 OA
HETATM    7  C   UNK N   1      30.220  23.144  -3.630  0.00  0.00     0.040 A 
HETATM    8  C   UNK N   1      29.362  23.495  -4.713  0.00  0.00     0.094 A 
HETATM    9  C   UNK N   1      31.616  22.647  -3.816  0.00  0.00     0.057 C 
HETATM   10  H   UNK N   1      28.115  23.686  -1.170  0.00  0.00     0.173 HD
ENDROOT
BRANCH   8  11
HETATM   11  S   UNK N   1      29.867  23.438  -6.484  0.00  0.00    -0.072 SA
BRANCH  11  12
HETATM   12  C   UNK N   1      29.585  21.756  -7.057  0.00  0.00     0.007 A 
HETATM   13  C   UNK N   1      28.407  21.378  -7.719  0.00  0.00     0.019 A 
HETATM   14  C   UNK N   1      28.248  20.057  -8.159  0.00  0.00     0.001 A 
HETATM   15  C   UNK N   1      29.247  19.108  -7.913  0.00  0.00     0.000 A 
HETATM   16  C   UNK N   1      30.405  19.477  -7.223  0.00  0.00     0.001 A 
HETATM   17  C   UNK N   1      30.573  20.798  -6.801  0.00  0.00     0.019 A 
ENDBRANCH  11  12
ENDBRANCH   8  11
BRANCH   1  18
HETATM   18  C   UNK N   1      27.080  24.056  -5.506  0.00  0.00     0.304 C 
BRANCH  18  19
HETATM   19  O   UNK N   1      26.997  25.394  -5.905  0.00  0.00    -0.369 OA
BRANCH  19  20
HETATM   20  C   UNK N   1      25.623  25.683  -5.945  0.00  0.00     0.196 C 
BRANCH  20  21
HETATM   21  C   UNK N   1      25.282  26.986  -5.216  0.00  0.00     0.190 C 
BRANCH  21  22
HETATM   22  O   UNK N   1      25.795  26.974  -3.919  0.00  0.00    -0.399 OA
HETATM   23  H   UNK N   1      26.064  26.136  -3.509  0.00  0.00     0.209 HD
ENDBRANCH  21  22
ENDBRANCH  20  21
ENDBRANCH  19  20
ENDBRANCH  18  19
ENDBRANCH   1  18
TORSDOF 7
ENDMDL
MODEL 6
REMARK VINA RESULT:      -5.7     12.395     14.937
REMARK  7 active torsions:
REMARK  status: ('A' for Active; 'I' for Inactive)
REMARK    1  A    between atoms: N_1  and  C_10 
REMARK    2  A    between atoms: C_8  and  S_15 
REMARK    3  A    between atoms: C_10  and  O_11 
REMARK    4  A    between atoms: O_11  and  C_12 
REMARK    5  A    between atoms: C_12  and  C_13 
REMARK    6  A    between atoms: C_13  and  O_14 
REMARK    7  A    between atoms: S_15  and  C_16 
ROOT
HETATM    1  N   UNK N   1      26.241  26.628  -5.549  0.00  0.00    -0.271 N 
HETATM    2  C   UNK N   1      25.191  27.432  -5.151  0.00  0.00     0.332 A 
HETATM    3  O   UNK N   1      24.072  27.258  -5.603  0.00  0.00    -0.246 OA
HETATM    4  N   UNK N   1      25.392  28.418  -4.232  0.00  0.00    -0.275 N 
HETATM    5  C   UNK N   1      26.613  28.612  -3.664  0.00  0.00     0.258 A 
HETATM    6  O   UNK N   1      26.746  29.478  -2.816  0.00  0.00    -0.267 OA
HETATM    7  C   UNK N   1      27.700  27.812  -4.041  0.00  0.00     0.040 A 
HETATM    8  C   UNK N   1      27.507  26.810  -5.037  0.00  0.00     0.094 A 
HETATM    9  C   UNK N   1      28.998  28.030  -3.335  0.00  0.00     0.057 C 
HETATM   10  H   UNK N   1      24.641  29.000  -3.975  0.00  0.00     0.173 HD
ENDROOT
BRANCH   8  11
HETATM   11  S   UNK N   1      28.839  25.683  -5.632  0.00  0.00    -0.072 SA
BRANCH  11  12
HETATM   12  C   UNK N   1      29.250  24.588  -4.265  0.00  0.00     0.007 A 
HETATM   13  C   UNK N   1      28.269  24.048  -3.418  0.00  0.00     0.019 A 
HETATM   14  C   UNK N   1      28.645  23.187  -2.378  0.00  0.00     0.001 A 
HETATM   15  C   UNK N   1      29.995  22.888  -2.165  0.00  0.00     0.000 A 
HETATM   16  C   UNK N   1      30.974  23.452  -2.987  0.00  0.00     0.001 A 
HETATM   17  C   UNK N   1      30.599  24.297  -4.035  0.00  0.00     0.019 A 
ENDBRANCH  11  12
ENDBRANCH   8  11
BRANCH   1  18
HETATM   18  C   UNK N   1      25.941  25.510  -6.454  0.00  0.00     0.304 C 
BRANCH  18  19
HETATM   19  O   UNK N   1      25.414  24.401  -5.785  0.00  0.00    -0.369 OA
BRANCH  19  20
HETATM   20  C   UNK N   1      25.889  23.284  -6.492  0.00  0.00     0.196 C 
BRANCH  20  21
HETATM   21  C   UNK N   1      25.581  23.370  -7.990  0.00  0.00     0.190 C 
BRANCH  21  22
HETATM   22  O   UNK N   1      24.391  22.706  -8.287  0.00  0.00    -0.399 OA
HETATM   23  H   UNK N   1      24.404  21.898  -8.825  0.00  0.00     0.209 HD
ENDBRANCH  21  22
ENDBRANCH  20  21
ENDBRANCH  19  20
ENDBRANCH  18  19
ENDBRANCH   1  18
TORSDOF 7
ENDMDL
MODEL 7
REMARK VINA RESULT:      -5.6      1.617      4.329
REMARK  7 active torsions:
REMARK  status: ('A' for Active; 'I' for Inactive)
REMARK    1  A    between atoms: N_1  and  C_10 
REMARK    2  A    between atoms: C_8  and  S_15 
REMARK    3  A    between atoms: C_10  and  O_11 
REMARK    4  A    between atoms: O_11  and  C_12 
REMARK    5  A    between atoms: C_12  and  C_13 
REMARK    6  A    between atoms: C_13  and  O_14 
REMARK    7  A    between atoms: S_15  and  C_16 
ROOT
HETATM    1  N   UNK N   1      31.015  17.197   6.862  0.00  0.00    -0.271 N 
HETATM    2  C   UNK N   1      31.881  17.771   7.771  0.00  0.00     0.332 A 
HETATM    3  O   UNK N   1      33.070  17.866   7.519  0.00  0.00    -0.246 OA
HETATM    4  N   UNK N   1      31.411  18.257   8.955  0.00  0.00    -0.275 N 
HETATM    5  C   UNK N   1      30.084  18.219   9.253  0.00  0.00     0.258 A 
HETATM    6  O   UNK N   1      29.695  18.699  10.305  0.00  0.00    -0.267 OA
HETATM    7  C   UNK N   1      29.175  17.647   8.353  0.00  0.00     0.040 A 
HETATM    8  C   UNK N   1      29.667  17.095   7.133  0.00  0.00     0.094 A 
HETATM    9  C   UNK N   1      27.726  17.694   8.708  0.00  0.00     0.057 C 
HETATM   10  H   UNK N   1      32.042  18.642   9.604  0.00  0.00     0.173 HD
ENDROOT
BRANCH   8  11
HETATM   11  S   UNK N   1      28.595  16.313   5.854  0.00  0.00    -0.072 SA
BRANCH  11  12
HETATM   12  C   UNK N   1      27.747  17.647   4.994  0.00  0.00     0.007 A 
HETATM   13  C   UNK N   1      26.554  17.440   4.283  0.00  0.00     0.019 A 
HETATM   14  C   UNK N   1      25.928  18.519   3.645  0.00  0.00     0.001 A 
HETATM   15  C   UNK N   1      26.503  19.795   3.691  0.00  0.00     0.000 A 
HETATM   16  C   UNK N   1      27.708  19.993   4.370  0.00  0.00     0.001 A 
HETATM   17  C   UNK N   1      28.324  18.922   5.021  0.00  0.00     0.019 A 
ENDBRANCH  11  12
ENDBRANCH   8  11
BRANCH   1  18
HETATM   18  C   UNK N   1      31.559  16.797   5.558  0.00  0.00     0.304 C 
BRANCH  18  19
HETATM   19  O   UNK N   1      32.044  15.486   5.554  0.00  0.00    -0.369 OA
BRANCH  19  20
HETATM   20  C   UNK N   1      33.223  15.530   4.790  0.00  0.00     0.196 C 
BRANCH  20  21
HETATM   21  C   UNK N   1      34.466  15.200   5.622  0.00  0.00     0.190 C 
BRANCH  21  22
HETATM   22  O   UNK N   1      35.064  16.366   6.100  0.00  0.00    -0.399 OA
HETATM   23  H   UNK N   1      34.654  17.229   5.928  0.00  0.00     0.209 HD
ENDBRANCH  21  22
ENDBRANCH  20  21
ENDBRANCH  19  20
ENDBRANCH  18  19
ENDBRANCH   1  18
TORSDOF 7
ENDMDL
MODEL 8
REMARK VINA RESULT:      -5.6      2.367      4.154
REMARK  7 active torsions:
REMARK  status: ('A' for Active; 'I' for Inactive)
REMARK    1  A    between atoms: N_1  and  C_10 
REMARK    2  A    between atoms: C_8  and  S_15 
REMARK    3  A    between atoms: C_10  and  O_11 
REMARK    4  A    between atoms: O_11  and  C_12 
REMARK    5  A    between atoms: C_12  and  C_13 
REMARK    6  A    between atoms: C_13  and  O_14 
REMARK    7  A    between atoms: S_15  and  C_16 
ROOT
HETATM    1  N   UNK N   1      31.303  16.581   4.176  0.00  0.00    -0.271 N 
HETATM    2  C   UNK N   1      32.588  16.708   3.690  0.00  0.00     0.332 A 
HETATM    3  O   UNK N   1      32.830  16.497   2.514  0.00  0.00    -0.246 OA
HETATM    4  N   UNK N   1      33.601  17.091   4.518  0.00  0.00    -0.275 N 
HETATM    5  C   UNK N   1      33.366  17.387   5.826  0.00  0.00     0.258 A 
HETATM    6  O   UNK N   1      34.290  17.765   6.527  0.00  0.00    -0.267 OA
HETATM    7  C   UNK N   1      32.072  17.273   6.352  0.00  0.00     0.040 A 
HETATM    8  C   UNK N   1      31.018  16.827   5.502  0.00  0.00     0.094 A 
HETATM    9  C   UNK N   1      31.866  17.674   7.776  0.00  0.00     0.057 C 
HETATM   10  H   UNK N   1      34.517  17.154   4.165  0.00  0.00     0.173 HD
ENDROOT
BRANCH   8  11
HETATM   11  S   UNK N   1      29.270  16.630   6.051  0.00  0.00    -0.072 SA
BRANCH  11  12
HETATM   12  C   UNK N   1      28.495  18.250   5.926  0.00  0.00     0.007 A 
HETATM   13  C   UNK N   1      28.265  18.876   4.691  0.00  0.00     0.019 A 
HETATM   14  C   UNK N   1      27.643  20.131   4.652  0.00  0.00     0.001 A 
HETATM   15  C   UNK N   1      27.277  20.773   5.841  0.00  0.00     0.000 A 
HETATM   16  C   UNK N   1      27.537  20.164   7.072  0.00  0.00     0.001 A 
HETATM   17  C   UNK N   1      28.141  18.905   7.111  0.00  0.00     0.019 A 
ENDBRANCH  11  12
ENDBRANCH   8  11
BRANCH   1  18
HETATM   18  C   UNK N   1      30.235  16.278   3.214  0.00  0.00     0.304 C 
BRANCH  18  19
HETATM   19  O   UNK N   1      30.022  14.905   3.057  0.00  0.00    -0.369 OA
BRANCH  19  20
HETATM   20  C   UNK N   1      28.900  14.799   2.218  0.00  0.00     0.196 C 
BRANCH  20  21
HETATM   21  C   UNK N   1      27.729  15.658   2.703  0.00  0.00     0.190 C 
BRANCH  21  22
HETATM   22  O   UNK N   1      26.633  15.524   1.850  0.00  0.00    -0.399 OA
HETATM   23  H   UNK N   1      25.913  16.174   1.876  0.00  0.00     0.209 HD
ENDBRANCH  21  22
ENDBRANCH  20  21
ENDBRANCH  19  20
ENDBRANCH  18  19
ENDBRANCH   1  18
TORSDOF 7
ENDMDL
MODEL 9
REMARK VINA RESULT:      -5.5      4.078      5.856
REMARK  7 active torsions:
REMARK  status: ('A' for Active; 'I' for Inactive)
REMARK    1  A    between atoms: N_1  and  C_10 
REMARK    2  A    between atoms: C_8  and  S_15 
REMARK    3  A    between atoms: C_10  and  O_11 
REMARK    4  A    between atoms: O_11  and  C_12 
REMARK    5  A    between atoms: C_12  and  C_13 
REMARK    6  A    between atoms: C_13  and  O_14 
REMARK    7  A    between atoms: S_15  and  C_16 
ROOT
HETATM    1  N   UNK N   1      34.195  15.534   9.609  0.00  0.00    -0.271 N 
HETATM    2  C   UNK N   1      34.932  16.386  10.408  0.00  0.00     0.332 A 
HETATM    3  O   UNK N   1      35.315  16.028  11.508  0.00  0.00    -0.246 OA
HETATM    4  N   UNK N   1      35.256  17.634   9.964  0.00  0.00    -0.275 N 
HETATM    5  C   UNK N   1      34.893  18.054   8.721  0.00  0.00     0.258 A 
HETATM    6  O   UNK N   1      35.234  19.162   8.343  0.00  0.00    -0.267 OA
HETATM    7  C   UNK N   1      34.148  17.214   7.883  0.00  0.00     0.040 A 
HETATM    8  C   UNK N   1      33.766  15.925   8.359  0.00  0.00     0.094 A 
HETATM    9  C   UNK N   1      33.837  17.707   6.508  0.00  0.00     0.057 C 
HETATM   10  H   UNK N   1      35.760  18.240  10.552  0.00  0.00     0.173 HD
ENDROOT
BRANCH   8  11
HETATM   11  S   UNK N   1      32.790  14.713   7.373  0.00  0.00    -0.072 SA
BRANCH  11  12
HETATM   12  C   UNK N   1      31.238  15.515   6.942  0.00  0.00     0.007 A 
HETATM   13  C   UNK N   1      30.656  16.503   7.751  0.00  0.00     0.019 A 
HETATM   14  C   UNK N   1      29.454  17.106   7.358  0.00  0.00     0.001 A 
HETATM   15  C   UNK N   1      28.818  16.705   6.178  0.00  0.00     0.000 A 
HETATM   16  C   UNK N   1      29.380  15.697   5.390  0.00  0.00     0.001 A 
HETATM   17  C   UNK N   1      30.588  15.108   5.771  0.00  0.00     0.019 A 
ENDBRANCH  11  12
ENDBRANCH   8  11
BRANCH   1  18
HETATM   18  C   UNK N   1      33.976  14.164  10.092  0.00  0.00     0.304 C 
BRANCH  18  19
HETATM   19  O   UNK N   1      35.041  13.308   9.792  0.00  0.00    -0.369 OA
BRANCH  19  20
HETATM   20  C   UNK N   1      35.365  12.682  11.007  0.00  0.00     0.196 C 
BRANCH  20  21
HETATM   21  C   UNK N   1      36.867  12.728  11.301  0.00  0.00     0.190 C 
BRANCH  21  22
HETATM   22  O   UNK N   1      37.172  13.799  12.141  0.00  0.00    -0.399 OA
HETATM   23  H   UNK N   1      36.556  14.543  12.225  0.00  0.00     0.209 HD
ENDBRANCH  21  22
ENDBRANCH  20  21
ENDBRANCH  19  20
ENDBRANCH  18  19
ENDBRANCH   1  18
TORSDOF 7
ENDMDL
