REMARK  12 active torsions:
REMARK  status: ('A' for Active; 'I' for Inactive)
REMARK    1  A    between atoms: C_1  and  C_2 
REMARK    2  A    between atoms: C_1  and  N_22 
REMARK    3  A    between atoms: C_1  and  P_23 
REMARK    4  A    between atoms: C_2  and  C_3 
REMARK    5  A    between atoms: C_3  and  C_4 
REMARK    6  A    between atoms: C_11  and  O_18 
REMARK    7  A    between atoms: C_12  and  C_14 
REMARK       I    between atoms: C_12  and  N_22 
REMARK    8  A    between atoms: C_13  and  C_14 
REMARK    9  A    between atoms: C_13  and  C_15 
REMARK   10  A    between atoms: C_15  and  O_21 
REMARK   11  A    between atoms: P_23  and  O_17 
REMARK   12  A    between atoms: P_23  and  O_18 
ROOT
HETATM    1  C   UNK N   1       1.228   0.004  -0.819  0.00  0.00     0.196 C 
ENDROOT
BRANCH   1   2
HETATM    2  C   UNK N   1       0.028   0.872  -1.226  0.00  0.00     0.037 C 
BRANCH   2   3
HETATM    3  C   UNK N   1      -0.947   1.162  -0.091  0.00  0.00     0.002 C 
BRANCH   3   4
HETATM    4  C   UNK N   1      -1.850   2.327  -0.437  0.00  0.00    -0.004 C 
HETATM    5  C   UNK N   1      -1.136   3.632  -0.141  0.00  0.00     0.005 C 
ENDBRANCH   3   4
ENDBRANCH   2   3
ENDBRANCH   1   2
BRANCH   1   6
HETATM    6  N   UNK N   1       2.271   0.759  -0.143  0.00  0.00    -0.346 N 
HETATM    7  C   UNK N   1       2.185   1.425   1.041  0.00  0.00     0.218 C 
HETATM    8  O   UNK N   1       1.152   1.450   1.681  0.00  0.00    -0.274 OA
HETATM    9  H   UNK N   1       3.144   0.793  -0.597  0.00  0.00     0.163 HD
BRANCH   7  10
HETATM   10  C   UNK N   1       3.396   2.132   1.570  0.00  0.00     0.113 C 
BRANCH  10  11
HETATM   11  C   UNK N   1       3.950   3.127   0.553  0.00  0.00     0.119 C 
BRANCH  11  12
HETATM   12  C   UNK N   1       4.891   2.486  -0.430  0.00  0.00     0.139 C 
HETATM   13  O   UNK N   1       5.374   3.158  -1.325  0.00  0.00    -0.650 OA
BRANCH  12  14
HETATM   14  O   UNK N   1       5.213   1.180  -0.333  0.00  0.00    -0.776 OA
HETATM   15  H   UNK N   1       4.539   0.532  -0.266  0.00  0.00     0.167 HD
ENDBRANCH  12  14
ENDBRANCH  11  12
ENDBRANCH  10  11
ENDBRANCH   7  10
ENDBRANCH   1   6
BRANCH   1  16
HETATM   16  P   UNK N   1       0.733  -1.530   0.131  0.00  0.00     0.266 P 
HETATM   17  O   UNK N   1       2.004  -2.334   0.515  0.00  0.00    -0.652 OA
BRANCH  16  18
HETATM   18  O   UNK N   1      -0.070  -1.290   1.651  0.00  0.00    -0.327 OA
HETATM   19  H   UNK N   1      -0.179  -0.834   2.501  0.00  0.00     0.220 HD
ENDBRANCH  16  18
BRANCH  16  20
HETATM   20  O   UNK N   1      -0.173  -2.687  -0.762  0.00  0.00    -0.275 OA
BRANCH  20  21
HETATM   21  C   UNK N   1      -1.478  -2.924  -0.525  0.00  0.00     0.078 A 
HETATM   22  C   UNK N   1      -1.896  -4.229  -0.250  0.00  0.00     0.037 A 
HETATM   23  C   UNK N   1      -3.244  -4.497   0.004  0.00  0.00     0.003 A 
HETATM   24  C   UNK N   1      -4.183  -3.462  -0.042  0.00  0.00     0.000 A 
HETATM   25  C   UNK N   1      -3.772  -2.158  -0.336  0.00  0.00     0.003 A 
HETATM   26  C   UNK N   1      -2.420  -1.886  -0.568  0.00  0.00     0.037 A 
ENDBRANCH  20  21
ENDBRANCH  16  20
ENDBRANCH   1  16
TORSDOF 12
