MODEL 1
REMARK VINA RESULT:      -5.7      0.000      0.000
REMARK  12 active torsions:
REMARK  status: ('A' for Active; 'I' for Inactive)
REMARK    1  A    between atoms: C_1  and  C_2 
REMARK    2  A    between atoms: C_1  and  N_22 
REMARK    3  A    between atoms: C_1  and  P_23 
REMARK    4  A    between atoms: C_2  and  C_3 
REMARK    5  A    between atoms: C_3  and  C_4 
REMARK    6  A    between atoms: C_11  and  O_18 
REMARK    7  A    between atoms: C_12  and  C_14 
REMARK       I    between atoms: C_12  and  N_22 
REMARK    8  A    between atoms: C_13  and  C_14 
REMARK    9  A    between atoms: C_13  and  C_15 
REMARK   10  A    between atoms: C_15  and  O_21 
REMARK   11  A    between atoms: P_23  and  O_17 
REMARK   12  A    between atoms: P_23  and  O_18 
ROOT
HETATM    1  C   UNK N   1      27.768  24.321  -7.429  0.00  0.00     0.196 C 
ENDROOT
BRANCH   1   2
HETATM    2  C   UNK N   1      27.728  25.779  -7.910  0.00  0.00     0.037 C 
BRANCH   2   3
HETATM    3  C   UNK N   1      28.333  26.777  -6.929  0.00  0.00     0.002 C 
BRANCH   3   4
HETATM    4  C   UNK N   1      28.203  28.194  -7.448  0.00  0.00    -0.004 C 
HETATM    5  C   UNK N   1      28.279  29.171  -6.291  0.00  0.00     0.005 C 
ENDBRANCH   3   4
ENDBRANCH   2   3
ENDBRANCH   1   2
BRANCH   1   6
HETATM    6  N   UNK N   1      28.624  24.129  -6.270  0.00  0.00    -0.346 N 
HETATM    7  C   UNK N   1      29.175  22.967  -5.822  0.00  0.00     0.218 C 
HETATM    8  O   UNK N   1      28.981  21.912  -6.393  0.00  0.00    -0.274 OA
HETATM    9  H   UNK N   1      28.830  24.937  -5.745  0.00  0.00     0.163 HD
BRANCH   7  10
HETATM   10  C   UNK N   1      30.047  22.996  -4.604  0.00  0.00     0.113 C 
BRANCH  10  11
HETATM   11  C   UNK N   1      29.493  23.942  -3.542  0.00  0.00     0.119 C 
BRANCH  11  12
HETATM   12  C   UNK N   1      29.335  23.278  -2.201  0.00  0.00     0.139 C 
HETATM   13  O   UNK N   1      28.218  23.014  -1.790  0.00  0.00    -0.650 OA
BRANCH  12  14
HETATM   14  O   UNK N   1      30.410  22.966  -1.450  0.00  0.00    -0.776 OA
HETATM   15  H   UNK N   1      31.248  23.337  -1.648  0.00  0.00     0.167 HD
ENDBRANCH  12  14
ENDBRANCH  11  12
ENDBRANCH  10  11
ENDBRANCH   7  10
ENDBRANCH   1   6
BRANCH   1  16
HETATM   16  P   UNK N   1      26.066  23.584  -7.185  0.00  0.00     0.266 P 
HETATM   17  O   UNK N   1      25.111  24.107  -8.291  0.00  0.00    -0.652 OA
BRANCH  16  18
HETATM   18  O   UNK N   1      25.929  21.858  -7.314  0.00  0.00    -0.327 OA
HETATM   19  H   UNK N   1      26.175  21.005  -7.708  0.00  0.00     0.220 HD
ENDBRANCH  16  18
BRANCH  16  20
HETATM   20  O   UNK N   1      25.256  24.066  -5.747  0.00  0.00    -0.275 OA
BRANCH  20  21
HETATM   21  C   UNK N   1      25.468  25.261  -5.163  0.00  0.00     0.078 A 
HETATM   22  C   UNK N   1      26.247  25.326  -4.004  0.00  0.00     0.037 A 
HETATM   23  C   UNK N   1      26.484  26.556  -3.384  0.00  0.00     0.003 A 
HETATM   24  C   UNK N   1      25.921  27.724  -3.908  0.00  0.00     0.000 A 
HETATM   25  C   UNK N   1      25.125  27.660  -5.057  0.00  0.00     0.003 A 
HETATM   26  C   UNK N   1      24.906  26.433  -5.690  0.00  0.00     0.037 A 
ENDBRANCH  20  21
ENDBRANCH  16  20
ENDBRANCH   1  16
TORSDOF 12
ENDMDL
MODEL 2
REMARK VINA RESULT:      -5.3      2.441      3.652
REMARK  12 active torsions:
REMARK  status: ('A' for Active; 'I' for Inactive)
REMARK    1  A    between atoms: C_1  and  C_2 
REMARK    2  A    between atoms: C_1  and  N_22 
REMARK    3  A    between atoms: C_1  and  P_23 
REMARK    4  A    between atoms: C_2  and  C_3 
REMARK    5  A    between atoms: C_3  and  C_4 
REMARK    6  A    between atoms: C_11  and  O_18 
REMARK    7  A    between atoms: C_12  and  C_14 
REMARK       I    between atoms: C_12  and  N_22 
REMARK    8  A    between atoms: C_13  and  C_14 
REMARK    9  A    between atoms: C_13  and  C_15 
REMARK   10  A    between atoms: C_15  and  O_21 
REMARK   11  A    between atoms: P_23  and  O_17 
REMARK   12  A    between atoms: P_23  and  O_18 
ROOT
HETATM    1  C   UNK N   1      27.943  27.502  -4.688  0.00  0.00     0.196 C 
ENDROOT
BRANCH   1   2
HETATM    2  C   UNK N   1      28.296  28.996  -4.668  0.00  0.00     0.037 C 
BRANCH   2   3
HETATM    3  C   UNK N   1      28.362  29.641  -6.047  0.00  0.00     0.002 C 
BRANCH   3   4
HETATM    4  C   UNK N   1      28.085  28.625  -7.135  0.00  0.00    -0.004 C 
HETATM    5  C   UNK N   1      29.121  28.759  -8.235  0.00  0.00     0.005 C 
ENDBRANCH   3   4
ENDBRANCH   2   3
ENDBRANCH   1   2
BRANCH   1   6
HETATM    6  N   UNK N   1      28.968  26.668  -4.082  0.00  0.00    -0.346 N 
HETATM    7  C   UNK N   1      29.579  25.575  -4.616  0.00  0.00     0.218 C 
HETATM    8  O   UNK N   1      29.297  25.171  -5.727  0.00  0.00    -0.274 OA
HETATM    9  H   UNK N   1      29.254  26.924  -3.175  0.00  0.00     0.163 HD
BRANCH   7  10
HETATM   10  C   UNK N   1      30.630  24.864  -3.818  0.00  0.00     0.113 C 
BRANCH  10  11
HETATM   11  C   UNK N   1      30.324  23.373  -3.696  0.00  0.00     0.119 C 
BRANCH  11  12
HETATM   12  C   UNK N   1      30.814  22.786  -2.401  0.00  0.00     0.139 C 
HETATM   13  O   UNK N   1      30.239  23.059  -1.362  0.00  0.00    -0.650 OA
BRANCH  12  14
HETATM   14  O   UNK N   1      31.878  21.957  -2.372  0.00  0.00    -0.776 OA
HETATM   15  H   UNK N   1      32.006  21.331  -3.058  0.00  0.00     0.167 HD
ENDBRANCH  12  14
ENDBRANCH  11  12
ENDBRANCH  10  11
ENDBRANCH   7  10
ENDBRANCH   1   6
BRANCH   1  16
HETATM   16  P   UNK N   1      26.239  27.144  -4.003  0.00  0.00     0.266 P 
HETATM   17  O   UNK N   1      26.358  26.168  -2.802  0.00  0.00    -0.652 OA
BRANCH  16  18
HETATM   18  O   UNK N   1      25.355  28.486  -3.348  0.00  0.00    -0.327 OA
HETATM   19  H   UNK N   1      24.665  29.167  -3.402  0.00  0.00     0.220 HD
ENDBRANCH  16  18
BRANCH  16  20
HETATM   20  O   UNK N   1      25.186  26.290  -5.061  0.00  0.00    -0.275 OA
BRANCH  20  21
HETATM   21  C   UNK N   1      25.635  25.396  -5.964  0.00  0.00     0.078 A 
HETATM   22  C   UNK N   1      25.922  24.093  -5.549  0.00  0.00     0.037 A 
HETATM   23  C   UNK N   1      26.384  23.148  -6.469  0.00  0.00     0.003 A 
HETATM   24  C   UNK N   1      26.584  23.512  -7.804  0.00  0.00     0.000 A 
HETATM   25  C   UNK N   1      26.316  24.821  -8.219  0.00  0.00     0.003 A 
HETATM   26  C   UNK N   1      25.833  25.760  -7.303  0.00  0.00     0.037 A 
ENDBRANCH  20  21
ENDBRANCH  16  20
ENDBRANCH   1  16
TORSDOF 12
ENDMDL
MODEL 3
REMARK VINA RESULT:      -5.3     19.128     23.292
REMARK  12 active torsions:
REMARK  status: ('A' for Active; 'I' for Inactive)
REMARK    1  A    between atoms: C_1  and  C_2 
REMARK    2  A    between atoms: C_1  and  N_22 
REMARK    3  A    between atoms: C_1  and  P_23 
REMARK    4  A    between atoms: C_2  and  C_3 
REMARK    5  A    between atoms: C_3  and  C_4 
REMARK    6  A    between atoms: C_11  and  O_18 
REMARK    7  A    between atoms: C_12  and  C_14 
REMARK       I    between atoms: C_12  and  N_22 
REMARK    8  A    between atoms: C_13  and  C_14 
REMARK    9  A    between atoms: C_13  and  C_15 
REMARK   10  A    between atoms: C_15  and  O_21 
REMARK   11  A    between atoms: P_23  and  O_17 
REMARK   12  A    between atoms: P_23  and  O_18 
ROOT
HETATM    1  C   UNK N   1      36.824  13.407  11.370  0.00  0.00     0.196 C 
ENDROOT
BRANCH   1   2
HETATM    2  C   UNK N   1      37.190  11.957  11.020  0.00  0.00     0.037 C 
BRANCH   2   3
HETATM    3  C   UNK N   1      37.589  11.748   9.564  0.00  0.00     0.002 C 
BRANCH   3   4
HETATM    4  C   UNK N   1      38.746  10.777   9.454  0.00  0.00    -0.004 C 
HETATM    5  C   UNK N   1      38.558   9.644  10.444  0.00  0.00     0.005 C 
ENDBRANCH   3   4
ENDBRANCH   2   3
ENDBRANCH   1   2
BRANCH   1   6
HETATM    6  N   UNK N   1      36.000  14.045  10.356  0.00  0.00    -0.346 N 
HETATM    7  C   UNK N   1      35.964  15.363  10.017  0.00  0.00     0.218 C 
HETATM    8  O   UNK N   1      36.669  16.181  10.576  0.00  0.00    -0.274 OA
HETATM    9  H   UNK N   1      35.393  13.453   9.856  0.00  0.00     0.163 HD
BRANCH   7  10
HETATM   10  C   UNK N   1      35.044  15.811   8.923  0.00  0.00     0.113 C 
BRANCH  10  11
HETATM   11  C   UNK N   1      34.405  17.159   9.247  0.00  0.00     0.119 C 
BRANCH  11  12
HETATM   12  C   UNK N   1      34.718  18.210   8.216  0.00  0.00     0.139 C 
HETATM   13  O   UNK N   1      35.275  19.238   8.558  0.00  0.00    -0.650 OA
BRANCH  12  14
HETATM   14  O   UNK N   1      34.395  18.028   6.920  0.00  0.00    -0.776 OA
HETATM   15  H   UNK N   1      34.329  18.764   6.343  0.00  0.00     0.167 HD
ENDBRANCH  12  14
ENDBRANCH  11  12
ENDBRANCH  10  11
ENDBRANCH   7  10
ENDBRANCH   1   6
BRANCH   1  16
HETATM   16  P   UNK N   1      36.102  13.586  13.087  0.00  0.00     0.266 P 
HETATM   17  O   UNK N   1      36.146  15.077  13.515  0.00  0.00    -0.652 OA
BRANCH  16  18
HETATM   18  O   UNK N   1      34.433  13.154  13.289  0.00  0.00    -0.327 OA
HETATM   19  H   UNK N   1      33.667  12.924  13.839  0.00  0.00     0.220 HD
ENDBRANCH  16  18
BRANCH  16  20
HETATM   20  O   UNK N   1      36.995  12.821  14.343  0.00  0.00    -0.275 OA
BRANCH  20  21
HETATM   21  C   UNK N   1      36.430  12.443  15.506  0.00  0.00     0.078 A 
HETATM   22  C   UNK N   1      36.476  11.098  15.882  0.00  0.00     0.037 A 
HETATM   23  C   UNK N   1      35.901  10.684  17.086  0.00  0.00     0.003 A 
HETATM   24  C   UNK N   1      35.255  11.613  17.908  0.00  0.00     0.000 A 
HETATM   25  C   UNK N   1      35.190  12.957  17.527  0.00  0.00     0.003 A 
HETATM   26  C   UNK N   1      35.785  13.375  16.332  0.00  0.00     0.037 A 
ENDBRANCH  20  21
ENDBRANCH  16  20
ENDBRANCH   1  16
TORSDOF 12
ENDMDL
MODEL 4
REMARK VINA RESULT:      -5.3     11.261     13.246
REMARK  12 active torsions:
REMARK  status: ('A' for Active; 'I' for Inactive)
REMARK    1  A    between atoms: C_1  and  C_2 
REMARK    2  A    between atoms: C_1  and  N_22 
REMARK    3  A    between atoms: C_1  and  P_23 
REMARK    4  A    between atoms: C_2  and  C_3 
REMARK    5  A    between atoms: C_3  and  C_4 
REMARK    6  A    between atoms: C_11  and  O_18 
REMARK    7  A    between atoms: C_12  and  C_14 
REMARK       I    between atoms: C_12  and  N_22 
REMARK    8  A    between atoms: C_13  and  C_14 
REMARK    9  A    between atoms: C_13  and  C_15 
REMARK   10  A    between atoms: C_15  and  O_21 
REMARK   11  A    between atoms: P_23  and  O_17 
REMARK   12  A    between atoms: P_23  and  O_18 
ROOT
HETATM    1  C   UNK N   1      22.787  19.398   3.166  0.00  0.00     0.196 C 
ENDROOT
BRANCH   1   2
HETATM    2  C   UNK N   1      23.960  20.387   3.092  0.00  0.00     0.037 C 
BRANCH   2   3
HETATM    3  C   UNK N   1      25.331  19.725   3.018  0.00  0.00     0.002 C 
BRANCH   3   4
HETATM    4  C   UNK N   1      26.365  20.536   3.771  0.00  0.00    -0.004 C 
HETATM    5  C   UNK N   1      26.170  20.351   5.264  0.00  0.00     0.005 C 
ENDBRANCH   3   4
ENDBRANCH   2   3
ENDBRANCH   1   2
BRANCH   1   6
HETATM    6  N   UNK N   1      22.770  18.628   4.399  0.00  0.00    -0.346 N 
HETATM    7  C   UNK N   1      22.990  17.294   4.554  0.00  0.00     0.218 C 
HETATM    8  O   UNK N   1      23.236  16.578   3.603  0.00  0.00    -0.274 OA
HETATM    9  H   UNK N   1      22.574  19.133   5.222  0.00  0.00     0.163 HD
BRANCH   7  10
HETATM   10  C   UNK N   1      22.940  16.701   5.929  0.00  0.00     0.113 C 
BRANCH  10  11
HETATM   11  C   UNK N   1      21.513  16.325   6.323  0.00  0.00     0.119 C 
BRANCH  11  12
HETATM   12  C   UNK N   1      20.837  17.394   7.137  0.00  0.00     0.139 C 
HETATM   13  O   UNK N   1      21.182  18.556   7.008  0.00  0.00    -0.650 OA
BRANCH  12  14
HETATM   14  O   UNK N   1      19.852  17.086   8.005  0.00  0.00    -0.776 OA
HETATM   15  H   UNK N   1      18.958  17.269   7.788  0.00  0.00     0.167 HD
ENDBRANCH  12  14
ENDBRANCH  11  12
ENDBRANCH  10  11
ENDBRANCH   7  10
ENDBRANCH   1   6
BRANCH   1  16
HETATM   16  P   UNK N   1      21.133  20.196   2.804  0.00  0.00     0.266 P 
HETATM   17  O   UNK N   1      20.407  20.511   4.139  0.00  0.00    -0.652 OA
BRANCH  16  18
HETATM   18  O   UNK N   1      21.160  21.726   1.985  0.00  0.00    -0.327 OA
HETATM   19  H   UNK N   1      20.919  22.308   1.246  0.00  0.00     0.220 HD
ENDBRANCH  16  18
BRANCH  16  20
HETATM   20  O   UNK N   1      19.994  19.192   1.998  0.00  0.00    -0.275 OA
BRANCH  20  21
HETATM   21  C   UNK N   1      20.045  17.847   2.057  0.00  0.00     0.078 A 
HETATM   22  C   UNK N   1      19.696  17.202   3.247  0.00  0.00     0.037 A 
HETATM   23  C   UNK N   1      19.736  15.807   3.329  0.00  0.00     0.003 A 
HETATM   24  C   UNK N   1      20.152  15.054   2.227  0.00  0.00     0.000 A 
HETATM   25  C   UNK N   1      20.521  15.696   1.040  0.00  0.00     0.003 A 
HETATM   26  C   UNK N   1      20.459  17.090   0.951  0.00  0.00     0.037 A 
ENDBRANCH  20  21
ENDBRANCH  16  20
ENDBRANCH   1  16
TORSDOF 12
ENDMDL
MODEL 5
REMARK VINA RESULT:      -5.3     10.592     14.565
REMARK  12 active torsions:
REMARK  status: ('A' for Active; 'I' for Inactive)
REMARK    1  A    between atoms: C_1  and  C_2 
REMARK    2  A    between atoms: C_1  and  N_22 
REMARK    3  A    between atoms: C_1  and  P_23 
REMARK    4  A    between atoms: C_2  and  C_3 
REMARK    5  A    between atoms: C_3  and  C_4 
REMARK    6  A    between atoms: C_11  and  O_18 
REMARK    7  A    between atoms: C_12  and  C_14 
REMARK       I    between atoms: C_12  and  N_22 
REMARK    8  A    between atoms: C_13  and  C_14 
REMARK    9  A    between atoms: C_13  and  C_15 
REMARK   10  A    between atoms: C_15  and  O_21 
REMARK   11  A    between atoms: P_23  and  O_17 
REMARK   12  A    between atoms: P_23  and  O_18 
ROOT
HETATM    1  C   UNK N   1      28.169  17.705   6.253  0.00  0.00     0.196 C 
ENDROOT
BRANCH   1   2
HETATM    2  C   UNK N   1      27.971  16.291   5.686  0.00  0.00     0.037 C 
BRANCH   2   3
HETATM    3  C   UNK N   1      27.831  16.240   4.169  0.00  0.00     0.002 C 
BRANCH   3   4
HETATM    4  C   UNK N   1      28.968  15.458   3.546  0.00  0.00    -0.004 C 
HETATM    5  C   UNK N   1      30.002  16.417   2.988  0.00  0.00     0.005 C 
ENDBRANCH   3   4
ENDBRANCH   2   3
ENDBRANCH   1   2
BRANCH   1   6
HETATM    6  N   UNK N   1      27.046  18.588   5.980  0.00  0.00    -0.346 N 
HETATM    7  C   UNK N   1      27.014  19.666   5.150  0.00  0.00     0.218 C 
HETATM    8  O   UNK N   1      27.995  20.011   4.521  0.00  0.00    -0.274 OA
HETATM    9  H   UNK N   1      26.208  18.381   6.454  0.00  0.00     0.163 HD
BRANCH   7  10
HETATM   10  C   UNK N   1      25.737  20.436   5.003  0.00  0.00     0.113 C 
BRANCH  10  11
HETATM   11  C   UNK N   1      24.759  19.721   4.073  0.00  0.00     0.119 C 
BRANCH  11  12
HETATM   12  C   UNK N   1      24.327  20.581   2.917  0.00  0.00     0.139 C 
HETATM   13  O   UNK N   1      23.222  21.095   2.931  0.00  0.00    -0.650 OA
BRANCH  12  14
HETATM   14  O   UNK N   1      25.145  20.796   1.867  0.00  0.00    -0.776 OA
HETATM   15  H   UNK N   1      25.604  21.609   1.785  0.00  0.00     0.167 HD
ENDBRANCH  12  14
ENDBRANCH  11  12
ENDBRANCH  10  11
ENDBRANCH   7  10
ENDBRANCH   1   6
BRANCH   1  16
HETATM   16  P   UNK N   1      28.652  17.708   8.060  0.00  0.00     0.266 P 
HETATM   17  O   UNK N   1      28.994  19.156   8.503  0.00  0.00    -0.652 OA
BRANCH  16  18
HETATM   18  O   UNK N   1      27.441  17.210   9.200  0.00  0.00    -0.327 OA
HETATM   19  H   UNK N   1      27.142  17.010  10.101  0.00  0.00     0.220 HD
ENDBRANCH  16  18
BRANCH  16  20
HETATM   20  O   UNK N   1      30.101  16.861   8.435  0.00  0.00    -0.275 OA
BRANCH  20  21
HETATM   21  C   UNK N   1      31.263  17.097   7.796  0.00  0.00     0.078 A 
HETATM   22  C   UNK N   1      31.478  16.527   6.538  0.00  0.00     0.037 A 
HETATM   23  C   UNK N   1      32.674  16.763   5.854  0.00  0.00     0.003 A 
HETATM   24  C   UNK N   1      33.671  17.550   6.439  0.00  0.00     0.000 A 
HETATM   25  C   UNK N   1      33.468  18.106   7.706  0.00  0.00     0.003 A 
HETATM   26  C   UNK N   1      32.262  17.889   8.381  0.00  0.00     0.037 A 
ENDBRANCH  20  21
ENDBRANCH  16  20
ENDBRANCH   1  16
TORSDOF 12
ENDMDL
MODEL 6
REMARK VINA RESULT:      -5.2     11.500     13.907
REMARK  12 active torsions:
REMARK  status: ('A' for Active; 'I' for Inactive)
REMARK    1  A    between atoms: C_1  and  C_2 
REMARK    2  A    between atoms: C_1  and  N_22 
REMARK    3  A    between atoms: C_1  and  P_23 
REMARK    4  A    between atoms: C_2  and  C_3 
REMARK    5  A    between atoms: C_3  and  C_4 
REMARK    6  A    between atoms: C_11  and  O_18 
REMARK    7  A    between atoms: C_12  and  C_14 
REMARK       I    between atoms: C_12  and  N_22 
REMARK    8  A    between atoms: C_13  and  C_14 
REMARK    9  A    between atoms: C_13  and  C_15 
REMARK   10  A    between atoms: C_15  and  O_21 
REMARK   11  A    between atoms: P_23  and  O_17 
REMARK   12  A    between atoms: P_23  and  O_18 
ROOT
HETATM    1  C   UNK N   1      28.966  17.981   6.413  0.00  0.00     0.196 C 
ENDROOT
BRANCH   1   2
HETATM    2  C   UNK N   1      28.491  18.874   7.569  0.00  0.00     0.037 C 
BRANCH   2   3
HETATM    3  C   UNK N   1      27.254  19.705   7.248  0.00  0.00     0.002 C 
BRANCH   3   4
HETATM    4  C   UNK N   1      27.623  20.946   6.464  0.00  0.00    -0.004 C 
HETATM    5  C   UNK N   1      26.446  21.902   6.435  0.00  0.00     0.005 C 
ENDBRANCH   3   4
ENDBRANCH   2   3
ENDBRANCH   1   2
BRANCH   1   6
HETATM    6  N   UNK N   1      30.323  17.491   6.596  0.00  0.00    -0.346 N 
HETATM    7  C   UNK N   1      30.898  17.036   7.742  0.00  0.00     0.218 C 
HETATM    8  O   UNK N   1      30.283  16.999   8.790  0.00  0.00    -0.274 OA
HETATM    9  H   UNK N   1      30.894  17.490   5.794  0.00  0.00     0.163 HD
BRANCH   7  10
HETATM   10  C   UNK N   1      32.319  16.559   7.706  0.00  0.00     0.113 C 
BRANCH  10  11
HETATM   11  C   UNK N   1      33.219  17.417   8.591  0.00  0.00     0.119 C 
BRANCH  11  12
HETATM   12  C   UNK N   1      34.259  18.167   7.805  0.00  0.00     0.139 C 
HETATM   13  O   UNK N   1      34.913  19.038   8.352  0.00  0.00    -0.650 OA
BRANCH  12  14
HETATM   14  O   UNK N   1      34.482  17.887   6.505  0.00  0.00    -0.776 OA
HETATM   15  H   UNK N   1      35.199  17.337   6.258  0.00  0.00     0.167 HD
ENDBRANCH  12  14
ENDBRANCH  11  12
ENDBRANCH  10  11
ENDBRANCH   7  10
ENDBRANCH   1   6
BRANCH   1  16
HETATM   16  P   UNK N   1      27.763  16.605   6.009  0.00  0.00     0.266 P 
HETATM   17  O   UNK N   1      28.543  15.279   5.803  0.00  0.00    -0.652 OA
BRANCH  16  18
HETATM   18  O   UNK N   1      26.592  16.202   7.225  0.00  0.00    -0.327 OA
HETATM   19  H   UNK N   1      25.747  16.342   7.683  0.00  0.00     0.220 HD
ENDBRANCH  16  18
BRANCH  16  20
HETATM   20  O   UNK N   1      26.930  16.773   4.515  0.00  0.00    -0.275 OA
BRANCH  20  21
HETATM   21  C   UNK N   1      26.205  17.867   4.209  0.00  0.00     0.078 A 
HETATM   22  C   UNK N   1      26.826  18.940   3.563  0.00  0.00     0.037 A 
HETATM   23  C   UNK N   1      26.092  20.082   3.232  0.00  0.00     0.003 A 
HETATM   24  C   UNK N   1      24.738  20.165   3.570  0.00  0.00     0.000 A 
HETATM   25  C   UNK N   1      24.117  19.102   4.234  0.00  0.00     0.003 A 
HETATM   26  C   UNK N   1      24.846  17.950   4.545  0.00  0.00     0.037 A 
ENDBRANCH  20  21
ENDBRANCH  16  20
ENDBRANCH   1  16
TORSDOF 12
ENDMDL
MODEL 7
REMARK VINA RESULT:      -5.2     15.757     18.554
REMARK  12 active torsions:
REMARK  status: ('A' for Active; 'I' for Inactive)
REMARK    1  A    between atoms: C_1  and  C_2 
REMARK    2  A    between atoms: C_1  and  N_22 
REMARK    3  A    between atoms: C_1  and  P_23 
REMARK    4  A    between atoms: C_2  and  C_3 
REMARK    5  A    between atoms: C_3  and  C_4 
REMARK    6  A    between atoms: C_11  and  O_18 
REMARK    7  A    between atoms: C_12  and  C_14 
REMARK       I    between atoms: C_12  and  N_22 
REMARK    8  A    between atoms: C_13  and  C_14 
REMARK    9  A    between atoms: C_13  and  C_15 
REMARK   10  A    between atoms: C_15  and  O_21 
REMARK   11  A    between atoms: P_23  and  O_17 
REMARK   12  A    between atoms: P_23  and  O_18 
ROOT
HETATM    1  C   UNK N   1      34.136  16.018   8.773  0.00  0.00     0.196 C 
ENDROOT
BRANCH   1   2
HETATM    2  C   UNK N   1      34.383  14.956   7.692  0.00  0.00     0.037 C 
BRANCH   2   3
HETATM    3  C   UNK N   1      33.123  14.236   7.224  0.00  0.00     0.002 C 
BRANCH   3   4
HETATM    4  C   UNK N   1      32.918  14.417   5.735  0.00  0.00    -0.004 C 
HETATM    5  C   UNK N   1      31.809  13.499   5.257  0.00  0.00     0.005 C 
ENDBRANCH   3   4
ENDBRANCH   2   3
ENDBRANCH   1   2
BRANCH   1   6
HETATM    6  N   UNK N   1      35.065  15.921   9.887  0.00  0.00    -0.346 N 
HETATM    7  C   UNK N   1      34.854  15.347  11.103  0.00  0.00     0.218 C 
HETATM    8  O   UNK N   1      33.791  14.830  11.384  0.00  0.00    -0.274 OA
HETATM    9  H   UNK N   1      35.954  16.320   9.745  0.00  0.00     0.163 HD
BRANCH   7  10
HETATM   10  C   UNK N   1      35.963  15.343  12.111  0.00  0.00     0.113 C 
BRANCH  10  11
HETATM   11  C   UNK N   1      36.310  13.924  12.554  0.00  0.00     0.119 C 
BRANCH  11  12
HETATM   12  C   UNK N   1      36.145  13.724  14.036  0.00  0.00     0.139 C 
HETATM   13  O   UNK N   1      35.042  13.472  14.489  0.00  0.00    -0.650 OA
BRANCH  12  14
HETATM   14  O   UNK N   1      37.200  13.815  14.871  0.00  0.00    -0.776 OA
HETATM   15  H   UNK N   1      38.028  14.119  14.553  0.00  0.00     0.167 HD
ENDBRANCH  12  14
ENDBRANCH  11  12
ENDBRANCH  10  11
ENDBRANCH   7  10
ENDBRANCH   1   6
BRANCH   1  16
HETATM   16  P   UNK N   1      34.033  17.754   8.083  0.00  0.00     0.266 P 
HETATM   17  O   UNK N   1      35.172  18.619   8.687  0.00  0.00    -0.652 OA
BRANCH  16  18
HETATM   18  O   UNK N   1      34.250  17.935   6.371  0.00  0.00    -0.327 OA
HETATM   19  H   UNK N   1      34.179  18.442   5.546  0.00  0.00     0.220 HD
ENDBRANCH  16  18
BRANCH  16  20
HETATM   20  O   UNK N   1      32.629  18.641   8.529  0.00  0.00    -0.275 OA
BRANCH  20  21
HETATM   21  C   UNK N   1      31.382  18.189   8.291  0.00  0.00     0.078 A 
HETATM   22  C   UNK N   1      30.331  18.627   9.102  0.00  0.00     0.037 A 
HETATM   23  C   UNK N   1      29.028  18.175   8.870  0.00  0.00     0.003 A 
HETATM   24  C   UNK N   1      28.778  17.263   7.841  0.00  0.00     0.000 A 
HETATM   25  C   UNK N   1      29.830  16.807   7.040  0.00  0.00     0.003 A 
HETATM   26  C   UNK N   1      31.129  17.276   7.258  0.00  0.00     0.037 A 
ENDBRANCH  20  21
ENDBRANCH  16  20
ENDBRANCH   1  16
TORSDOF 12
ENDMDL
MODEL 8
REMARK VINA RESULT:      -5.2     14.562     18.057
REMARK  12 active torsions:
REMARK  status: ('A' for Active; 'I' for Inactive)
REMARK    1  A    between atoms: C_1  and  C_2 
REMARK    2  A    between atoms: C_1  and  N_22 
REMARK    3  A    between atoms: C_1  and  P_23 
REMARK    4  A    between atoms: C_2  and  C_3 
REMARK    5  A    between atoms: C_3  and  C_4 
REMARK    6  A    between atoms: C_11  and  O_18 
REMARK    7  A    between atoms: C_12  and  C_14 
REMARK       I    between atoms: C_12  and  N_22 
REMARK    8  A    between atoms: C_13  and  C_14 
REMARK    9  A    between atoms: C_13  and  C_15 
REMARK   10  A    between atoms: C_15  and  O_21 
REMARK   11  A    between atoms: P_23  and  O_17 
REMARK   12  A    between atoms: P_23  and  O_18 
ROOT
HETATM    1  C   UNK N   1      34.405  16.774   8.828  0.00  0.00     0.196 C 
ENDROOT
BRANCH   1   2
HETATM    2  C   UNK N   1      33.165  17.651   8.602  0.00  0.00     0.037 C 
BRANCH   2   3
HETATM    3  C   UNK N   1      31.853  16.877   8.542  0.00  0.00     0.002 C 
BRANCH   3   4
HETATM    4  C   UNK N   1      30.678  17.814   8.360  0.00  0.00    -0.004 C 
HETATM    5  C   UNK N   1      29.886  17.405   7.133  0.00  0.00     0.005 C 
ENDBRANCH   3   4
ENDBRANCH   2   3
ENDBRANCH   1   2
BRANCH   1   6
HETATM    6  N   UNK N   1      34.471  16.221  10.171  0.00  0.00    -0.346 N 
HETATM    7  C   UNK N   1      35.571  16.072  10.959  0.00  0.00     0.218 C 
HETATM    8  O   UNK N   1      36.674  16.411  10.579  0.00  0.00    -0.274 OA
HETATM    9  H   UNK N   1      33.617  15.917  10.557  0.00  0.00     0.163 HD
BRANCH   7  10
HETATM   10  C   UNK N   1      35.413  15.488  12.330  0.00  0.00     0.113 C 
BRANCH  10  11
HETATM   11  C   UNK N   1      36.009  14.085  12.411  0.00  0.00     0.119 C 
BRANCH  11  12
HETATM   12  C   UNK N   1      34.957  13.010  12.454  0.00  0.00     0.139 C 
HETATM   13  O   UNK N   1      34.547  12.613  13.531  0.00  0.00    -0.650 OA
BRANCH  12  14
HETATM   14  O   UNK N   1      34.455  12.484  11.318  0.00  0.00    -0.776 OA
HETATM   15  H   UNK N   1      33.601  12.731  11.021  0.00  0.00     0.167 HD
ENDBRANCH  12  14
ENDBRANCH  11  12
ENDBRANCH  10  11
ENDBRANCH   7  10
ENDBRANCH   1   6
BRANCH   1  16
HETATM   16  P   UNK N   1      34.626  15.465   7.510  0.00  0.00     0.266 P 
HETATM   17  O   UNK N   1      35.898  14.630   7.817  0.00  0.00    -0.652 OA
BRANCH  16  18
HETATM   18  O   UNK N   1      33.377  14.268   7.372  0.00  0.00    -0.327 OA
HETATM   19  H   UNK N   1      32.498  13.974   7.082  0.00  0.00     0.220 HD
ENDBRANCH  16  18
BRANCH  16  20
HETATM   20  O   UNK N   1      34.956  16.061   5.931  0.00  0.00    -0.275 OA
BRANCH  20  21
HETATM   21  C   UNK N   1      33.983  16.305   5.031  0.00  0.00     0.078 A 
HETATM   22  C   UNK N   1      33.760  15.387   4.001  0.00  0.00     0.037 A 
HETATM   23  C   UNK N   1      32.752  15.617   3.060  0.00  0.00     0.003 A 
HETATM   24  C   UNK N   1      31.981  16.781   3.132  0.00  0.00     0.000 A 
HETATM   25  C   UNK N   1      32.214  17.711   4.150  0.00  0.00     0.003 A 
HETATM   26  C   UNK N   1      33.207  17.470   5.105  0.00  0.00     0.037 A 
ENDBRANCH  20  21
ENDBRANCH  16  20
ENDBRANCH   1  16
TORSDOF 12
ENDMDL
MODEL 9
REMARK VINA RESULT:      -5.1     18.911     23.185
REMARK  12 active torsions:
REMARK  status: ('A' for Active; 'I' for Inactive)
REMARK    1  A    between atoms: C_1  and  C_2 
REMARK    2  A    between atoms: C_1  and  N_22 
REMARK    3  A    between atoms: C_1  and  P_23 
REMARK    4  A    between atoms: C_2  and  C_3 
REMARK    5  A    between atoms: C_3  and  C_4 
REMARK    6  A    between atoms: C_11  and  O_18 
REMARK    7  A    between atoms: C_12  and  C_14 
REMARK       I    between atoms: C_12  and  N_22 
REMARK    8  A    between atoms: C_13  and  C_14 
REMARK    9  A    between atoms: C_13  and  C_15 
REMARK   10  A    between atoms: C_15  and  O_21 
REMARK   11  A    between atoms: P_23  and  O_17 
REMARK   12  A    between atoms: P_23  and  O_18 
ROOT
HETATM    1  C   UNK N   1      35.600  13.745  12.008  0.00  0.00     0.196 C 
ENDROOT
BRANCH   1   2
HETATM    2  C   UNK N   1      36.082  14.167  13.404  0.00  0.00     0.037 C 
BRANCH   2   3
HETATM    3  C   UNK N   1      35.361  13.469  14.551  0.00  0.00     0.002 C 
BRANCH   3   4
HETATM    4  C   UNK N   1      36.160  13.568  15.834  0.00  0.00    -0.004 C 
HETATM    5  C   UNK N   1      35.340  13.027  16.989  0.00  0.00     0.005 C 
ENDBRANCH   3   4
ENDBRANCH   2   3
ENDBRANCH   1   2
BRANCH   1   6
HETATM    6  N   UNK N   1      35.028  14.846  11.249  0.00  0.00    -0.346 N 
HETATM    7  C   UNK N   1      35.674  15.926  10.729  0.00  0.00     0.218 C 
HETATM    8  O   UNK N   1      36.872  16.075  10.867  0.00  0.00    -0.274 OA
HETATM    9  H   UNK N   1      34.057  14.806  11.094  0.00  0.00     0.163 HD
BRANCH   7  10
HETATM   10  C   UNK N   1      34.889  16.945   9.960  0.00  0.00     0.113 C 
BRANCH  10  11
HETATM   11  C   UNK N   1      34.628  16.484   8.528  0.00  0.00     0.119 C 
BRANCH  11  12
HETATM   12  C   UNK N   1      34.085  17.584   7.657  0.00  0.00     0.139 C 
HETATM   13  O   UNK N   1      34.546  17.748   6.540  0.00  0.00    -0.650 OA
BRANCH  12  14
HETATM   14  O   UNK N   1      33.093  18.387   8.090  0.00  0.00    -0.776 OA
HETATM   15  H   UNK N   1      33.040  18.625   8.995  0.00  0.00     0.167 HD
ENDBRANCH  12  14
ENDBRANCH  11  12
ENDBRANCH  10  11
ENDBRANCH   7  10
ENDBRANCH   1   6
BRANCH   1  16
HETATM   16  P   UNK N   1      36.899  12.812  11.036  0.00  0.00     0.266 P 
HETATM   17  O   UNK N   1      36.469  12.727   9.547  0.00  0.00    -0.652 OA
BRANCH  16  18
HETATM   18  O   UNK N   1      38.483  13.517  10.961  0.00  0.00    -0.327 OA
HETATM   19  H   UNK N   1      39.085  14.278  10.975  0.00  0.00     0.220 HD
ENDBRANCH  16  18
BRANCH  16  20
HETATM   20  O   UNK N   1      37.083  11.155  11.458  0.00  0.00    -0.275 OA
BRANCH  20  21
HETATM   21  C   UNK N   1      36.838  10.693  12.699  0.00  0.00     0.078 A 
HETATM   22  C   UNK N   1      35.587  10.138  12.987  0.00  0.00     0.037 A 
HETATM   23  C   UNK N   1      35.313   9.648  14.266  0.00  0.00     0.003 A 
HETATM   24  C   UNK N   1      36.283   9.734  15.270  0.00  0.00     0.000 A 
HETATM   25  C   UNK N   1      37.528  10.305  14.992  0.00  0.00     0.003 A 
HETATM   26  C   UNK N   1      37.810  10.776  13.706  0.00  0.00     0.037 A 
ENDBRANCH  20  21
ENDBRANCH  16  20
ENDBRANCH   1  16
TORSDOF 12
ENDMDL
