MODEL 1
REMARK VINA RESULT:      -6.0      0.000      0.000
REMARK  8 active torsions:
REMARK  status: ('A' for Active; 'I' for Inactive)
REMARK    1  A    between atoms: P_1  and  O_3 
REMARK    2  A    between atoms: P_1  and  O_4 
REMARK    3  A    between atoms: P_1  and  C_17 
REMARK    4  A    between atoms: C_5  and  C_16 
REMARK    5  A    between atoms: C_6  and  S_15 
REMARK    6  A    between atoms: C_6  and  C_16 
REMARK    7  A    between atoms: C_8  and  S_15 
REMARK    8  A    between atoms: C_9  and  O_10 
ROOT
HETATM    1  C   UNK N   1      30.116  16.923   5.754  0.00  0.00     0.083 C 
ENDROOT
BRANCH   1   2
HETATM    2  S   UNK N   1      28.586  16.765   6.728  0.00  0.00    -0.127 SA
BRANCH   2   3
HETATM    3  C   UNK N   1      28.046  18.397   6.246  0.00  0.00     0.036 A 
HETATM    4  C   UNK N   1      27.970  18.718   4.888  0.00  0.00     0.063 A 
HETATM    5  C   UNK N   1      27.545  19.990   4.493  0.00  0.00     0.117 A 
HETATM    6  C   UNK N   1      27.196  20.940   5.456  0.00  0.00     0.045 A 
HETATM    7  F   UNK N   1      27.473  20.299   3.176  0.00  0.00    -0.206 F 
HETATM    8  C   UNK N   1      27.271  20.620   6.815  0.00  0.00     0.041 A 
HETATM    9  C   UNK N   1      27.696  19.349   7.214  0.00  0.00     0.082 A 
BRANCH   9  10
HETATM   10  O   UNK N   1      27.761  19.049   8.523  0.00  0.00    -0.359 OA
HETATM   11  H   UNK N   1      28.593  18.984   8.949  0.00  0.00     0.217 HD
ENDBRANCH   9  10
ENDBRANCH   2   3
ENDBRANCH   1   2
BRANCH   1  12
HETATM   12  C   UNK N   1      31.362  16.766   6.616  0.00  0.00     0.038 C 
BRANCH  12  13
HETATM   13  C   UNK N   1      31.318  17.606   7.864  0.00  0.00    -0.018 C 
HETATM   14  C   UNK N   1      32.393  18.120   8.481  0.00  0.00     0.091 C 
BRANCH  14  15
HETATM   15  P   UNK N   1      34.130  17.900   7.898  0.00  0.00     0.260 P 
HETATM   16  O   UNK N   1      34.177  18.070   6.357  0.00  0.00    -0.651 OA
BRANCH  15  17
HETATM   17  O   UNK N   1      34.835  16.333   8.158  0.00  0.00    -0.326 OA
HETATM   18  H   UNK N   1      35.760  16.167   7.915  0.00  0.00     0.220 HD
ENDBRANCH  15  17
BRANCH  15  19
HETATM   19  O   UNK N   1      35.250  19.086   8.487  0.00  0.00    -0.326 OA
HETATM   20  H   UNK N   1      36.001  19.579   8.853  0.00  0.00     0.220 HD
ENDBRANCH  15  19
ENDBRANCH  14  15
ENDBRANCH  12  13
ENDBRANCH   1  12
TORSDOF 8
ENDMDL
MODEL 2
REMARK VINA RESULT:      -5.9     11.739     12.813
REMARK  8 active torsions:
REMARK  status: ('A' for Active; 'I' for Inactive)
REMARK    1  A    between atoms: P_1  and  O_3 
REMARK    2  A    between atoms: P_1  and  O_4 
REMARK    3  A    between atoms: P_1  and  C_17 
REMARK    4  A    between atoms: C_5  and  C_16 
REMARK    5  A    between atoms: C_6  and  S_15 
REMARK    6  A    between atoms: C_6  and  C_16 
REMARK    7  A    between atoms: C_8  and  S_15 
REMARK    8  A    between atoms: C_9  and  O_10 
ROOT
HETATM    1  C   UNK N   1      28.838  24.738  -4.279  0.00  0.00     0.083 C 
ENDROOT
BRANCH   1   2
HETATM    2  S   UNK N   1      27.323  24.205  -3.422  0.00  0.00    -0.127 SA
BRANCH   2   3
HETATM    3  C   UNK N   1      26.403  25.590  -4.072  0.00  0.00     0.036 A 
HETATM    4  C   UNK N   1      26.489  26.829  -3.431  0.00  0.00     0.063 A 
HETATM    5  C   UNK N   1      25.780  27.926  -3.928  0.00  0.00     0.117 A 
HETATM    6  C   UNK N   1      24.982  27.782  -5.066  0.00  0.00     0.045 A 
HETATM    7  F   UNK N   1      25.865  29.125  -3.306  0.00  0.00    -0.206 F 
HETATM    8  C   UNK N   1      24.894  26.543  -5.709  0.00  0.00     0.041 A 
HETATM    9  C   UNK N   1      25.602  25.445  -5.214  0.00  0.00     0.082 A 
BRANCH   9  10
HETATM   10  O   UNK N   1      25.514  24.259  -5.840  0.00  0.00    -0.359 OA
HETATM   11  H   UNK N   1      25.658  23.464  -5.365  0.00  0.00     0.217 HD
ENDBRANCH   9  10
ENDBRANCH   2   3
ENDBRANCH   1   2
BRANCH   1  12
HETATM   12  C   UNK N   1      29.549  23.576  -4.960  0.00  0.00     0.038 C 
BRANCH  12  13
HETATM   13  C   UNK N   1      31.038  23.773  -5.048  0.00  0.00    -0.018 C 
HETATM   14  C   UNK N   1      31.939  23.184  -4.248  0.00  0.00     0.091 C 
BRANCH  14  15
HETATM   15  P   UNK N   1      31.511  22.005  -2.894  0.00  0.00     0.260 P 
HETATM   16  O   UNK N   1      30.754  22.766  -1.775  0.00  0.00    -0.651 OA
BRANCH  15  17
HETATM   17  O   UNK N   1      32.849  21.275  -2.059  0.00  0.00    -0.326 OA
HETATM   18  H   UNK N   1      33.589  21.821  -1.750  0.00  0.00     0.220 HD
ENDBRANCH  15  17
BRANCH  15  19
HETATM   19  O   UNK N   1      30.421  20.736  -3.352  0.00  0.00    -0.326 OA
HETATM   20  H   UNK N   1      29.989  19.906  -3.610  0.00  0.00     0.220 HD
ENDBRANCH  15  19
ENDBRANCH  14  15
ENDBRANCH  12  13
ENDBRANCH   1  12
TORSDOF 8
ENDMDL
MODEL 3
REMARK VINA RESULT:      -5.8      7.508     10.223
REMARK  8 active torsions:
REMARK  status: ('A' for Active; 'I' for Inactive)
REMARK    1  A    between atoms: P_1  and  O_3 
REMARK    2  A    between atoms: P_1  and  O_4 
REMARK    3  A    between atoms: P_1  and  C_17 
REMARK    4  A    between atoms: C_5  and  C_16 
REMARK    5  A    between atoms: C_6  and  S_15 
REMARK    6  A    between atoms: C_6  and  C_16 
REMARK    7  A    between atoms: C_8  and  S_15 
REMARK    8  A    between atoms: C_9  and  O_10 
ROOT
HETATM    1  C   UNK N   1      35.291  15.083  11.780  0.00  0.00     0.083 C 
ENDROOT
BRANCH   1   2
HETATM    2  S   UNK N   1      36.457  13.689  11.894  0.00  0.00    -0.127 SA
BRANCH   2   3
HETATM    3  C   UNK N   1      35.768  13.170  13.458  0.00  0.00     0.036 A 
HETATM    4  C   UNK N   1      34.768  12.194  13.474  0.00  0.00     0.063 A 
HETATM    5  C   UNK N   1      34.220  11.773  14.688  0.00  0.00     0.117 A 
HETATM    6  C   UNK N   1      34.673  12.328  15.888  0.00  0.00     0.045 A 
HETATM    7  F   UNK N   1      33.251  10.826  14.702  0.00  0.00    -0.206 F 
HETATM    8  C   UNK N   1      35.674  13.305  15.874  0.00  0.00     0.041 A 
HETATM    9  C   UNK N   1      36.223  13.729  14.661  0.00  0.00     0.082 A 
BRANCH   9  10
HETATM   10  O   UNK N   1      37.187  14.665  14.657  0.00  0.00    -0.359 OA
HETATM   11  H   UNK N   1      37.202  15.328  15.320  0.00  0.00     0.217 HD
ENDBRANCH   9  10
ENDBRANCH   2   3
ENDBRANCH   1   2
BRANCH   1  12
HETATM   12  C   UNK N   1      34.209  14.840  10.738  0.00  0.00     0.038 C 
BRANCH  12  13
HETATM   13  C   UNK N   1      34.768  14.536   9.374  0.00  0.00    -0.018 C 
HETATM   14  C   UNK N   1      34.861  15.419   8.369  0.00  0.00     0.091 C 
BRANCH  14  15
HETATM   15  P   UNK N   1      34.329  17.182   8.481  0.00  0.00     0.260 P 
HETATM   16  O   UNK N   1      35.213  17.917   9.520  0.00  0.00    -0.651 OA
BRANCH  15  17
HETATM   17  O   UNK N   1      32.711  17.461   9.050  0.00  0.00    -0.326 OA
HETATM   18  H   UNK N   1      32.528  18.191   9.662  0.00  0.00     0.220 HD
ENDBRANCH  15  17
BRANCH  15  19
HETATM   19  O   UNK N   1      34.539  18.099   7.024  0.00  0.00    -0.326 OA
HETATM   20  H   UNK N   1      34.865  18.589   6.253  0.00  0.00     0.220 HD
ENDBRANCH  15  19
ENDBRANCH  14  15
ENDBRANCH  12  13
ENDBRANCH   1  12
TORSDOF 8
ENDMDL
MODEL 4
REMARK VINA RESULT:      -5.6      1.905      2.307
REMARK  8 active torsions:
REMARK  status: ('A' for Active; 'I' for Inactive)
REMARK    1  A    between atoms: P_1  and  O_3 
REMARK    2  A    between atoms: P_1  and  O_4 
REMARK    3  A    between atoms: P_1  and  C_17 
REMARK    4  A    between atoms: C_5  and  C_16 
REMARK    5  A    between atoms: C_6  and  S_15 
REMARK    6  A    between atoms: C_6  and  C_16 
REMARK    7  A    between atoms: C_8  and  S_15 
REMARK    8  A    between atoms: C_9  and  O_10 
ROOT
HETATM    1  C   UNK N   1      31.925  17.071   4.707  0.00  0.00     0.083 C 
ENDROOT
BRANCH   1   2
HETATM    2  S   UNK N   1      30.903  16.050   5.815  0.00  0.00    -0.127 SA
BRANCH   2   3
HETATM    3  C   UNK N   1      29.704  17.358   6.005  0.00  0.00     0.036 A 
HETATM    4  C   UNK N   1      29.208  18.002   4.868  0.00  0.00     0.063 A 
HETATM    5  C   UNK N   1      28.266  19.026   4.998  0.00  0.00     0.117 A 
HETATM    6  C   UNK N   1      27.819  19.406   6.266  0.00  0.00     0.045 A 
HETATM    7  F   UNK N   1      27.787  19.648   3.895  0.00  0.00    -0.206 F 
HETATM    8  C   UNK N   1      28.314  18.763   7.405  0.00  0.00     0.041 A 
HETATM    9  C   UNK N   1      29.257  17.739   7.279  0.00  0.00     0.082 A 
BRANCH   9  10
HETATM   10  O   UNK N   1      29.724  17.124   8.379  0.00  0.00    -0.359 OA
HETATM   11  H   UNK N   1      29.254  17.186   9.187  0.00  0.00     0.217 HD
ENDBRANCH   9  10
ENDBRANCH   2   3
ENDBRANCH   1   2
BRANCH   1  12
HETATM   12  C   UNK N   1      33.185  17.579   5.396  0.00  0.00     0.038 C 
BRANCH  12  13
HETATM   13  C   UNK N   1      34.057  16.466   5.911  0.00  0.00    -0.018 C 
HETATM   14  C   UNK N   1      34.531  16.380   7.163  0.00  0.00     0.091 C 
BRANCH  14  15
HETATM   15  P   UNK N   1      34.185  17.613   8.492  0.00  0.00     0.260 P 
HETATM   16  O   UNK N   1      34.724  17.074   9.842  0.00  0.00    -0.651 OA
BRANCH  15  17
HETATM   17  O   UNK N   1      32.511  17.940   8.820  0.00  0.00    -0.326 OA
HETATM   18  H   UNK N   1      32.070  17.522   9.577  0.00  0.00     0.220 HD
ENDBRANCH  15  17
BRANCH  15  19
HETATM   19  O   UNK N   1      34.990  19.138   8.296  0.00  0.00    -0.326 OA
HETATM   20  H   UNK N   1      35.611  19.881   8.254  0.00  0.00     0.220 HD
ENDBRANCH  15  19
ENDBRANCH  14  15
ENDBRANCH  12  13
ENDBRANCH   1  12
TORSDOF 8
ENDMDL
MODEL 5
REMARK VINA RESULT:      -5.5      9.482     12.182
REMARK  8 active torsions:
REMARK  status: ('A' for Active; 'I' for Inactive)
REMARK    1  A    between atoms: P_1  and  O_3 
REMARK    2  A    between atoms: P_1  and  O_4 
REMARK    3  A    between atoms: P_1  and  C_17 
REMARK    4  A    between atoms: C_5  and  C_16 
REMARK    5  A    between atoms: C_6  and  S_15 
REMARK    6  A    between atoms: C_6  and  C_16 
REMARK    7  A    between atoms: C_8  and  S_15 
REMARK    8  A    between atoms: C_9  and  O_10 
ROOT
HETATM    1  C   UNK N   1      35.515  13.291  13.671  0.00  0.00     0.083 C 
ENDROOT
BRANCH   1   2
HETATM    2  S   UNK N   1      36.716  12.028  14.196  0.00  0.00    -0.127 SA
BRANCH   2   3
HETATM    3  C   UNK N   1      36.141  12.105  15.885  0.00  0.00     0.036 A 
HETATM    4  C   UNK N   1      35.707  13.329  16.403  0.00  0.00     0.063 A 
HETATM    5  C   UNK N   1      35.249  13.407  17.722  0.00  0.00     0.117 A 
HETATM    6  C   UNK N   1      35.226  12.261  18.521  0.00  0.00     0.045 A 
HETATM    7  F   UNK N   1      34.828  14.593  18.222  0.00  0.00    -0.206 F 
HETATM    8  C   UNK N   1      35.660  11.037  18.004  0.00  0.00     0.041 A 
HETATM    9  C   UNK N   1      36.118  10.955  16.686  0.00  0.00     0.082 A 
BRANCH   9  10
HETATM   10  O   UNK N   1      36.530   9.773  16.197  0.00  0.00    -0.359 OA
HETATM   11  H   UNK N   1      37.436   9.537  16.238  0.00  0.00     0.217 HD
ENDBRANCH   9  10
ENDBRANCH   2   3
ENDBRANCH   1   2
BRANCH   1  12
HETATM   12  C   UNK N   1      36.176  14.420  12.890  0.00  0.00     0.038 C 
BRANCH  12  13
HETATM   13  C   UNK N   1      36.647  13.990  11.527  0.00  0.00    -0.018 C 
HETATM   14  C   UNK N   1      36.088  14.366  10.368  0.00  0.00     0.091 C 
BRANCH  14  15
HETATM   15  P   UNK N   1      34.637  15.498  10.234  0.00  0.00     0.260 P 
HETATM   16  O   UNK N   1      34.139  15.520   8.766  0.00  0.00    -0.651 OA
BRANCH  15  17
HETATM   17  O   UNK N   1      34.932  17.173  10.590  0.00  0.00    -0.326 OA
HETATM   18  H   UNK N   1      34.958  17.828   9.875  0.00  0.00     0.220 HD
ENDBRANCH  15  17
BRANCH  15  19
HETATM   19  O   UNK N   1      33.244  15.006  11.143  0.00  0.00    -0.326 OA
HETATM   20  H   UNK N   1      32.576  14.807  11.818  0.00  0.00     0.220 HD
ENDBRANCH  15  19
ENDBRANCH  14  15
ENDBRANCH  12  13
ENDBRANCH   1  12
TORSDOF 8
ENDMDL
MODEL 6
REMARK VINA RESULT:      -5.4      3.710      4.533
REMARK  8 active torsions:
REMARK  status: ('A' for Active; 'I' for Inactive)
REMARK    1  A    between atoms: P_1  and  O_3 
REMARK    2  A    between atoms: P_1  and  O_4 
REMARK    3  A    between atoms: P_1  and  C_17 
REMARK    4  A    between atoms: C_5  and  C_16 
REMARK    5  A    between atoms: C_6  and  S_15 
REMARK    6  A    between atoms: C_6  and  C_16 
REMARK    7  A    between atoms: C_8  and  S_15 
REMARK    8  A    between atoms: C_9  and  O_10 
ROOT
HETATM    1  C   UNK N   1      33.273  18.032   7.697  0.00  0.00     0.083 C 
ENDROOT
BRANCH   1   2
HETATM    2  S   UNK N   1      32.280  16.845   6.736  0.00  0.00    -0.127 SA
BRANCH   2   3
HETATM    3  C   UNK N   1      30.782  17.338   7.572  0.00  0.00     0.036 A 
HETATM    4  C   UNK N   1      30.871  18.070   8.760  0.00  0.00     0.063 A 
HETATM    5  C   UNK N   1      29.708  18.468   9.425  0.00  0.00     0.117 A 
HETATM    6  C   UNK N   1      28.456  18.134   8.903  0.00  0.00     0.045 A 
HETATM    7  F   UNK N   1      29.797  19.177  10.576  0.00  0.00    -0.206 F 
HETATM    8  C   UNK N   1      28.365  17.402   7.715  0.00  0.00     0.041 A 
HETATM    9  C   UNK N   1      29.526  17.002   7.047  0.00  0.00     0.082 A 
BRANCH   9  10
HETATM   10  O   UNK N   1      29.429  16.302   5.904  0.00  0.00    -0.359 OA
HETATM   11  H   UNK N   1      29.358  15.368   5.929  0.00  0.00     0.217 HD
ENDBRANCH   9  10
ENDBRANCH   2   3
ENDBRANCH   1   2
BRANCH   1  12
HETATM   12  C   UNK N   1      34.433  17.357   8.416  0.00  0.00     0.038 C 
BRANCH  12  13
HETATM   13  C   UNK N   1      34.747  15.991   7.867  0.00  0.00    -0.018 C 
HETATM   14  C   UNK N   1      35.213  14.962   8.589  0.00  0.00     0.091 C 
BRANCH  14  15
HETATM   15  P   UNK N   1      35.545  15.033  10.403  0.00  0.00     0.260 P 
HETATM   16  O   UNK N   1      36.104  13.665  10.874  0.00  0.00    -0.651 OA
BRANCH  15  17
HETATM   17  O   UNK N   1      34.164  15.284  11.428  0.00  0.00    -0.326 OA
HETATM   18  H   UNK N   1      34.274  15.346  12.389  0.00  0.00     0.220 HD
ENDBRANCH  15  17
BRANCH  15  19
HETATM   19  O   UNK N   1      36.765  16.172  10.876  0.00  0.00    -0.326 OA
HETATM   20  H   UNK N   1      37.516  16.648  11.263  0.00  0.00     0.220 HD
ENDBRANCH  15  19
ENDBRANCH  14  15
ENDBRANCH  12  13
ENDBRANCH   1  12
TORSDOF 8
ENDMDL
MODEL 7
REMARK VINA RESULT:      -5.3     11.825     13.121
REMARK  8 active torsions:
REMARK  status: ('A' for Active; 'I' for Inactive)
REMARK    1  A    between atoms: P_1  and  O_3 
REMARK    2  A    between atoms: P_1  and  O_4 
REMARK    3  A    between atoms: P_1  and  C_17 
REMARK    4  A    between atoms: C_5  and  C_16 
REMARK    5  A    between atoms: C_6  and  S_15 
REMARK    6  A    between atoms: C_6  and  C_16 
REMARK    7  A    between atoms: C_8  and  S_15 
REMARK    8  A    between atoms: C_9  and  O_10 
ROOT
HETATM    1  C   UNK N   1      28.791  24.656  -3.892  0.00  0.00     0.083 C 
ENDROOT
BRANCH   1   2
HETATM    2  S   UNK N   1      29.197  26.382  -4.305  0.00  0.00    -0.127 SA
BRANCH   2   3
HETATM    3  C   UNK N   1      27.531  26.698  -4.864  0.00  0.00     0.036 A 
HETATM    4  C   UNK N   1      27.096  26.137  -6.068  0.00  0.00     0.063 A 
HETATM    5  C   UNK N   1      25.794  26.370  -6.518  0.00  0.00     0.117 A 
HETATM    6  C   UNK N   1      24.926  27.165  -5.764  0.00  0.00     0.045 A 
HETATM    7  F   UNK N   1      25.374  25.826  -7.685  0.00  0.00    -0.206 F 
HETATM    8  C   UNK N   1      25.359  27.727  -4.559  0.00  0.00     0.041 A 
HETATM    9  C   UNK N   1      26.661  27.496  -4.106  0.00  0.00     0.082 A 
BRANCH   9  10
HETATM   10  O   UNK N   1      27.068  28.037  -2.944  0.00  0.00    -0.359 OA
HETATM   11  H   UNK N   1      27.926  27.853  -2.615  0.00  0.00     0.217 HD
ENDBRANCH   9  10
ENDBRANCH   2   3
ENDBRANCH   1   2
BRANCH   1  12
HETATM   12  C   UNK N   1      29.487  23.667  -4.817  0.00  0.00     0.038 C 
BRANCH  12  13
HETATM   13  C   UNK N   1      30.970  23.901  -4.913  0.00  0.00    -0.018 C 
HETATM   14  C   UNK N   1      31.894  23.290  -4.158  0.00  0.00     0.091 C 
BRANCH  14  15
HETATM   15  P   UNK N   1      31.511  22.032  -2.863  0.00  0.00     0.260 P 
HETATM   16  O   UNK N   1      30.771  22.719  -1.687  0.00  0.00    -0.651 OA
BRANCH  15  17
HETATM   17  O   UNK N   1      32.876  21.274  -2.100  0.00  0.00    -0.326 OA
HETATM   18  H   UNK N   1      33.655  21.799  -1.859  0.00  0.00     0.220 HD
ENDBRANCH  15  17
BRANCH  15  19
HETATM   19  O   UNK N   1      30.426  20.777  -3.368  0.00  0.00    -0.326 OA
HETATM   20  H   UNK N   1      29.817  20.025  -3.442  0.00  0.00     0.220 HD
ENDBRANCH  15  19
ENDBRANCH  14  15
ENDBRANCH  12  13
ENDBRANCH   1  12
TORSDOF 8
ENDMDL
MODEL 8
REMARK VINA RESULT:      -5.3      2.540      2.931
REMARK  8 active torsions:
REMARK  status: ('A' for Active; 'I' for Inactive)
REMARK    1  A    between atoms: P_1  and  O_3 
REMARK    2  A    between atoms: P_1  and  O_4 
REMARK    3  A    between atoms: P_1  and  C_17 
REMARK    4  A    between atoms: C_5  and  C_16 
REMARK    5  A    between atoms: C_6  and  S_15 
REMARK    6  A    between atoms: C_6  and  C_16 
REMARK    7  A    between atoms: C_8  and  S_15 
REMARK    8  A    between atoms: C_9  and  O_10 
ROOT
HETATM    1  C   UNK N   1      31.062  16.009   6.380  0.00  0.00     0.083 C 
ENDROOT
BRANCH   1   2
HETATM    2  S   UNK N   1      29.862  16.216   5.027  0.00  0.00    -0.127 SA
BRANCH   2   3
HETATM    3  C   UNK N   1      29.075  17.584   5.861  0.00  0.00     0.036 A 
HETATM    4  C   UNK N   1      29.173  17.684   7.252  0.00  0.00     0.063 A 
HETATM    5  C   UNK N   1      28.567  18.751   7.921  0.00  0.00     0.117 A 
HETATM    6  C   UNK N   1      27.861  19.717   7.199  0.00  0.00     0.045 A 
HETATM    7  F   UNK N   1      28.664  18.846   9.269  0.00  0.00    -0.206 F 
HETATM    8  C   UNK N   1      27.761  19.618   5.808  0.00  0.00     0.041 A 
HETATM    9  C   UNK N   1      28.366  18.553   5.136  0.00  0.00     0.082 A 
BRANCH   9  10
HETATM   10  O   UNK N   1      28.268  18.468   3.798  0.00  0.00    -0.359 OA
HETATM   11  H   UNK N   1      28.932  18.842   3.253  0.00  0.00     0.217 HD
ENDBRANCH   9  10
ENDBRANCH   2   3
ENDBRANCH   1   2
BRANCH   1  12
HETATM   12  C   UNK N   1      32.481  16.347   5.944  0.00  0.00     0.038 C 
BRANCH  12  13
HETATM   13  C   UNK N   1      33.514  15.442   6.559  0.00  0.00    -0.018 C 
HETATM   14  C   UNK N   1      34.292  15.764   7.603  0.00  0.00     0.091 C 
BRANCH  14  15
HETATM   15  P   UNK N   1      34.227  17.382   8.487  0.00  0.00     0.260 P 
HETATM   16  O   UNK N   1      34.695  18.508   7.528  0.00  0.00    -0.651 OA
BRANCH  15  17
HETATM   17  O   UNK N   1      35.278  17.551   9.860  0.00  0.00    -0.326 OA
HETATM   18  H   UNK N   1      36.035  16.954   9.973  0.00  0.00     0.220 HD
ENDBRANCH  15  17
BRANCH  15  19
HETATM   19  O   UNK N   1      32.639  17.880   8.976  0.00  0.00    -0.326 OA
HETATM   20  H   UNK N   1      31.793  18.039   9.423  0.00  0.00     0.220 HD
ENDBRANCH  15  19
ENDBRANCH  14  15
ENDBRANCH  12  13
ENDBRANCH   1  12
TORSDOF 8
ENDMDL
MODEL 9
REMARK VINA RESULT:      -5.3      6.197      8.935
REMARK  8 active torsions:
REMARK  status: ('A' for Active; 'I' for Inactive)
REMARK    1  A    between atoms: P_1  and  O_3 
REMARK    2  A    between atoms: P_1  and  O_4 
REMARK    3  A    between atoms: P_1  and  C_17 
REMARK    4  A    between atoms: C_5  and  C_16 
REMARK    5  A    between atoms: C_6  and  S_15 
REMARK    6  A    between atoms: C_6  and  C_16 
REMARK    7  A    between atoms: C_8  and  S_15 
REMARK    8  A    between atoms: C_9  and  O_10 
ROOT
HETATM    1  C   UNK N   1      23.941  17.528   4.910  0.00  0.00     0.083 C 
ENDROOT
BRANCH   1   2
HETATM    2  S   UNK N   1      25.192  17.997   3.673  0.00  0.00    -0.127 SA
BRANCH   2   3
HETATM    3  C   UNK N   1      26.176  18.833   4.906  0.00  0.00     0.036 A 
HETATM    4  C   UNK N   1      25.936  20.184   5.172  0.00  0.00     0.063 A 
HETATM    5  C   UNK N   1      26.693  20.854   6.137  0.00  0.00     0.117 A 
HETATM    6  C   UNK N   1      27.693  20.172   6.836  0.00  0.00     0.045 A 
HETATM    7  F   UNK N   1      26.459  22.163   6.393  0.00  0.00    -0.206 F 
HETATM    8  C   UNK N   1      27.935  18.820   6.572  0.00  0.00     0.041 A 
HETATM    9  C   UNK N   1      27.179  18.148   5.607  0.00  0.00     0.082 A 
BRANCH   9  10
HETATM   10  O   UNK N   1      27.416  16.847   5.363  0.00  0.00    -0.359 OA
HETATM   11  H   UNK N   1      28.282  16.502   5.456  0.00  0.00     0.217 HD
ENDBRANCH   9  10
ENDBRANCH   2   3
ENDBRANCH   1   2
BRANCH   1  12
HETATM   12  C   UNK N   1      22.635  18.289   4.720  0.00  0.00     0.038 C 
BRANCH  12  13
HETATM   13  C   UNK N   1      21.754  17.682   3.662  0.00  0.00    -0.018 C 
HETATM   14  C   UNK N   1      21.062  18.377   2.748  0.00  0.00     0.091 C 
BRANCH  14  15
HETATM   15  P   UNK N   1      21.077  20.218   2.613  0.00  0.00     0.260 P 
HETATM   16  O   UNK N   1      20.265  20.822   3.788  0.00  0.00    -0.651 OA
BRANCH  15  17
HETATM   17  O   UNK N   1      20.318  20.891   1.203  0.00  0.00    -0.326 OA
HETATM   18  H   UNK N   1      20.334  20.409   0.362  0.00  0.00     0.220 HD
ENDBRANCH  15  17
BRANCH  15  19
HETATM   19  O   UNK N   1      22.644  20.945   2.766  0.00  0.00    -0.326 OA
HETATM   20  H   UNK N   1      23.590  21.150   2.830  0.00  0.00     0.220 HD
ENDBRANCH  15  19
ENDBRANCH  14  15
ENDBRANCH  12  13
ENDBRANCH   1  12
TORSDOF 8
ENDMDL
