MODEL 1
REMARK VINA RESULT:      -5.5      0.000      0.000
REMARK  14 active torsions:
REMARK  status: ('A' for Active; 'I' for Inactive)
REMARK    1  A    between atoms: P_1  and  O_3 
REMARK    2  A    between atoms: P_1  and  O_4 
REMARK    3  A    between atoms: P_1  and  C_5 
REMARK    4  A    between atoms: C_5  and  O_6 
REMARK    5  A    between atoms: C_5  and  C_7 
REMARK    6  A    between atoms: C_7  and  C_8 
REMARK    7  A    between atoms: C_8  and  C_10 
REMARK    8  A    between atoms: C_10  and  C_11 
REMARK    9  A    between atoms: C_11  and  C_12 
REMARK   10  A    between atoms: C_12  and  C_13 
REMARK   11  A    between atoms: C_13  and  C_15 
REMARK   12  A    between atoms: C_15  and  C_16 
REMARK   13  A    between atoms: C_16  and  C_17 
REMARK   14  A    between atoms: C_17  and  C_18 
ROOT
HETATM    1  C   UNK N   1      36.286  14.401  12.209  0.00  0.00    -0.016 C 
HETATM    2  C   UNK N   1      35.761  13.038  11.779  0.00  0.00     0.010 C 
ENDROOT
BRANCH   1   3
HETATM    3  C   UNK N   1      35.491  15.537  11.545  0.00  0.00     0.048 C 
BRANCH   3   4
HETATM    4  C   UNK N   1      34.402  15.234  10.497  0.00  0.00     0.229 C 
BRANCH   4   5
HETATM    5  P   UNK N   1      34.537  16.490   9.049  0.00  0.00     0.265 P 
HETATM    6  O   UNK N   1      33.981  17.927   8.873  0.00  0.00    -0.652 OA
BRANCH   5   7
HETATM    7  O   UNK N   1      32.875  16.451   9.569  0.00  0.00    -0.327 OA
HETATM    8  H   UNK N   1      32.207  15.761   9.436  0.00  0.00     0.220 HD
ENDBRANCH   5   7
BRANCH   5   9
HETATM    9  O   UNK N   1      35.455  17.309  10.272  0.00  0.00    -0.327 OA
HETATM   10  H   UNK N   1      35.484  17.241  11.240  0.00  0.00     0.220 HD
ENDBRANCH   5   9
ENDBRANCH   4   5
BRANCH   4  11
HETATM   11  O   UNK N   1      33.119  15.155  11.068  0.00  0.00    -0.384 OA
HETATM   12  H   UNK N   1      32.264  15.394  11.459  0.00  0.00     0.210 HD
ENDBRANCH   4  11
ENDBRANCH   3   4
ENDBRANCH   1   3
BRANCH   1  13
HETATM   13  C   UNK N   1      36.334  14.529  13.734  0.00  0.00     0.004 C 
BRANCH  13  14
HETATM   14  C   UNK N   1      35.654  13.372  14.481  0.00  0.00     0.001 C 
BRANCH  14  15
HETATM   15  C   UNK N   1      36.176  13.196  15.903  0.00  0.00     0.004 C 
BRANCH  15  16
HETATM   16  C   UNK N   1      35.119  12.587  16.827  0.00  0.00    -0.019 C 
HETATM   17  C   UNK N   1      35.149  13.307  18.164  0.00  0.00     0.010 C 
BRANCH  16  18
HETATM   18  C   UNK N   1      35.304  11.081  17.027  0.00  0.00     0.004 C 
BRANCH  18  19
HETATM   19  C   UNK N   1      34.483  10.247  16.054  0.00  0.00     0.001 C 
BRANCH  19  20
HETATM   20  C   UNK N   1      35.416   9.471  15.140  0.00  0.00     0.004 C 
BRANCH  20  21
HETATM   21  C   UNK N   1      35.153   9.811  13.680  0.00  0.00    -0.023 C 
HETATM   22  C   UNK N   1      33.783  10.443  13.552  0.00  0.00     0.009 C 
HETATM   23  C   UNK N   1      35.201   8.559  12.820  0.00  0.00     0.009 C 
ENDBRANCH  20  21
ENDBRANCH  19  20
ENDBRANCH  18  19
ENDBRANCH  16  18
ENDBRANCH  15  16
ENDBRANCH  14  15
ENDBRANCH  13  14
ENDBRANCH   1  13
TORSDOF 14
ENDMDL
MODEL 2
REMARK VINA RESULT:      -5.5      2.019      3.550
REMARK  14 active torsions:
REMARK  status: ('A' for Active; 'I' for Inactive)
REMARK    1  A    between atoms: P_1  and  O_3 
REMARK    2  A    between atoms: P_1  and  O_4 
REMARK    3  A    between atoms: P_1  and  C_5 
REMARK    4  A    between atoms: C_5  and  O_6 
REMARK    5  A    between atoms: C_5  and  C_7 
REMARK    6  A    between atoms: C_7  and  C_8 
REMARK    7  A    between atoms: C_8  and  C_10 
REMARK    8  A    between atoms: C_10  and  C_11 
REMARK    9  A    between atoms: C_11  and  C_12 
REMARK   10  A    between atoms: C_12  and  C_13 
REMARK   11  A    between atoms: C_13  and  C_15 
REMARK   12  A    between atoms: C_15  and  C_16 
REMARK   13  A    between atoms: C_16  and  C_17 
REMARK   14  A    between atoms: C_17  and  C_18 
ROOT
HETATM    1  C   UNK N   1      36.250  13.696  14.005  0.00  0.00    -0.016 C 
HETATM    2  C   UNK N   1      36.899  14.324  15.231  0.00  0.00     0.010 C 
ENDROOT
BRANCH   1   3
HETATM    3  C   UNK N   1      36.204  14.688  12.832  0.00  0.00     0.048 C 
BRANCH   3   4
HETATM    4  C   UNK N   1      35.519  14.313  11.504  0.00  0.00     0.229 C 
BRANCH   4   5
HETATM    5  P   UNK N   1      35.564  15.817  10.309  0.00  0.00     0.265 P 
HETATM    6  O   UNK N   1      35.912  17.310  10.541  0.00  0.00    -0.652 OA
BRANCH   5   7
HETATM    7  O   UNK N   1      34.724  16.308  11.753  0.00  0.00    -0.327 OA
HETATM    8  H   UNK N   1      34.820  15.979  12.661  0.00  0.00     0.220 HD
ENDBRANCH   5   7
BRANCH   5   9
HETATM    9  O   UNK N   1      37.248  15.667  10.702  0.00  0.00    -0.327 OA
HETATM   10  H   UNK N   1      38.029  16.205  10.498  0.00  0.00     0.220 HD
ENDBRANCH   5   9
ENDBRANCH   4   5
BRANCH   4  11
HETATM   11  O   UNK N   1      34.232  13.777  11.701  0.00  0.00    -0.384 OA
HETATM   12  H   UNK N   1      33.480  13.167  11.731  0.00  0.00     0.210 HD
ENDBRANCH   4  11
ENDBRANCH   3   4
ENDBRANCH   1   3
BRANCH   1  13
HETATM   13  C   UNK N   1      36.922  12.371  13.631  0.00  0.00     0.004 C 
BRANCH  13  14
HETATM   14  C   UNK N   1      37.035  11.377  14.796  0.00  0.00     0.001 C 
BRANCH  14  15
HETATM   15  C   UNK N   1      36.054  10.214  14.680  0.00  0.00     0.004 C 
BRANCH  15  16
HETATM   16  C   UNK N   1      34.823  10.417  15.567  0.00  0.00    -0.019 C 
HETATM   17  C   UNK N   1      33.677  10.941  14.718  0.00  0.00     0.010 C 
BRANCH  16  18
HETATM   18  C   UNK N   1      35.090  11.358  16.743  0.00  0.00     0.004 C 
BRANCH  18  19
HETATM   19  C   UNK N   1      35.457  10.620  18.023  0.00  0.00     0.001 C 
BRANCH  19  20
HETATM   20  C   UNK N   1      34.660   9.329  18.108  0.00  0.00     0.004 C 
BRANCH  20  21
HETATM   21  C   UNK N   1      34.255   9.034  19.545  0.00  0.00    -0.023 C 
HETATM   22  C   UNK N   1      32.791   8.653  19.585  0.00  0.00     0.009 C 
HETATM   23  C   UNK N   1      34.472  10.253  20.426  0.00  0.00     0.009 C 
ENDBRANCH  20  21
ENDBRANCH  19  20
ENDBRANCH  18  19
ENDBRANCH  16  18
ENDBRANCH  15  16
ENDBRANCH  14  15
ENDBRANCH  13  14
ENDBRANCH   1  13
TORSDOF 14
ENDMDL
MODEL 3
REMARK VINA RESULT:      -5.4     19.279     23.391
REMARK  14 active torsions:
REMARK  status: ('A' for Active; 'I' for Inactive)
REMARK    1  A    between atoms: P_1  and  O_3 
REMARK    2  A    between atoms: P_1  and  O_4 
REMARK    3  A    between atoms: P_1  and  C_5 
REMARK    4  A    between atoms: C_5  and  O_6 
REMARK    5  A    between atoms: C_5  and  C_7 
REMARK    6  A    between atoms: C_7  and  C_8 
REMARK    7  A    between atoms: C_8  and  C_10 
REMARK    8  A    between atoms: C_10  and  C_11 
REMARK    9  A    between atoms: C_11  and  C_12 
REMARK   10  A    between atoms: C_12  and  C_13 
REMARK   11  A    between atoms: C_13  and  C_15 
REMARK   12  A    between atoms: C_15  and  C_16 
REMARK   13  A    between atoms: C_16  and  C_17 
REMARK   14  A    between atoms: C_17  and  C_18 
ROOT
HETATM    1  C   UNK N   1      28.781  24.470  -4.154  0.00  0.00    -0.016 C 
HETATM    2  C   UNK N   1      29.794  25.585  -3.939  0.00  0.00     0.010 C 
ENDROOT
BRANCH   1   3
HETATM    3  C   UNK N   1      29.131  23.233  -3.312  0.00  0.00     0.048 C 
BRANCH   3   4
HETATM    4  C   UNK N   1      30.563  23.007  -2.792  0.00  0.00     0.229 C 
BRANCH   4   5
HETATM    5  P   UNK N   1      31.311  21.445  -3.624  0.00  0.00     0.265 P 
HETATM    6  O   UNK N   1      32.741  21.131  -4.134  0.00  0.00    -0.652 OA
BRANCH   5   7
HETATM    7  O   UNK N   1      31.834  22.836  -4.532  0.00  0.00    -0.327 OA
HETATM    8  H   UNK N   1      31.621  23.772  -4.396  0.00  0.00     0.220 HD
ENDBRANCH   5   7
BRANCH   5   9
HETATM    9  O   UNK N   1      32.166  21.446  -2.114  0.00  0.00    -0.327 OA
HETATM   10  H   UNK N   1      32.661  20.766  -1.629  0.00  0.00     0.220 HD
ENDBRANCH   5   9
ENDBRANCH   4   5
BRANCH   4  11
HETATM   11  O   UNK N   1      30.624  22.991  -1.386  0.00  0.00    -0.384 OA
HETATM   12  H   UNK N   1      30.580  23.260  -0.455  0.00  0.00     0.210 HD
ENDBRANCH   4  11
ENDBRANCH   3   4
ENDBRANCH   1   3
BRANCH   1  13
HETATM   13  C   UNK N   1      27.349  24.959  -3.919  0.00  0.00     0.004 C 
BRANCH  13  14
HETATM   14  C   UNK N   1      26.286  24.185  -4.712  0.00  0.00     0.001 C 
BRANCH  14  15
HETATM   15  C   UNK N   1      25.737  24.975  -5.896  0.00  0.00     0.004 C 
BRANCH  15  16
HETATM   16  C   UNK N   1      25.973  26.478  -5.736  0.00  0.00    -0.019 C 
HETATM   17  C   UNK N   1      24.633  27.191  -5.678  0.00  0.00     0.010 C 
BRANCH  16  18
HETATM   18  C   UNK N   1      26.841  27.063  -6.852  0.00  0.00     0.004 C 
BRANCH  18  19
HETATM   19  C   UNK N   1      27.442  28.414  -6.492  0.00  0.00     0.001 C 
BRANCH  19  20
HETATM   20  C   UNK N   1      27.808  28.427  -5.017  0.00  0.00     0.004 C 
BRANCH  20  21
HETATM   21  C   UNK N   1      27.923  29.854  -4.499  0.00  0.00    -0.023 C 
HETATM   22  C   UNK N   1      26.562  30.333  -4.041  0.00  0.00     0.009 C 
HETATM   23  C   UNK N   1      28.431  30.783  -5.589  0.00  0.00     0.009 C 
ENDBRANCH  20  21
ENDBRANCH  19  20
ENDBRANCH  18  19
ENDBRANCH  16  18
ENDBRANCH  15  16
ENDBRANCH  14  15
ENDBRANCH  13  14
ENDBRANCH   1  13
TORSDOF 14
ENDMDL
MODEL 4
REMARK VINA RESULT:      -5.4      3.713      5.363
REMARK  14 active torsions:
REMARK  status: ('A' for Active; 'I' for Inactive)
REMARK    1  A    between atoms: P_1  and  O_3 
REMARK    2  A    between atoms: P_1  and  O_4 
REMARK    3  A    between atoms: P_1  and  C_5 
REMARK    4  A    between atoms: C_5  and  O_6 
REMARK    5  A    between atoms: C_5  and  C_7 
REMARK    6  A    between atoms: C_7  and  C_8 
REMARK    7  A    between atoms: C_8  and  C_10 
REMARK    8  A    between atoms: C_10  and  C_11 
REMARK    9  A    between atoms: C_11  and  C_12 
REMARK   10  A    between atoms: C_12  and  C_13 
REMARK   11  A    between atoms: C_13  and  C_15 
REMARK   12  A    between atoms: C_15  and  C_16 
REMARK   13  A    between atoms: C_16  and  C_17 
REMARK   14  A    between atoms: C_17  and  C_18 
ROOT
HETATM    1  C   UNK N   1      35.079  13.287  16.585  0.00  0.00    -0.016 C 
HETATM    2  C   UNK N   1      35.284  14.047  17.888  0.00  0.00     0.010 C 
ENDROOT
BRANCH   1   3
HETATM    3  C   UNK N   1      36.245  13.527  15.613  0.00  0.00     0.048 C 
BRANCH   3   4
HETATM    4  C   UNK N   1      35.988  14.001  14.170  0.00  0.00     0.229 C 
BRANCH   4   5
HETATM    5  P   UNK N   1      36.098  12.503  12.971  0.00  0.00     0.265 P 
HETATM    6  O   UNK N   1      35.716  12.346  11.477  0.00  0.00    -0.652 OA
BRANCH   5   7
HETATM    7  O   UNK N   1      34.526  13.226  12.779  0.00  0.00    -0.327 OA
HETATM    8  H   UNK N   1      33.650  12.821  12.867  0.00  0.00     0.220 HD
ENDBRANCH   5   7
BRANCH   5   9
HETATM    9  O   UNK N   1      37.264  13.573  12.258  0.00  0.00    -0.327 OA
HETATM   10  H   UNK N   1      37.908  13.471  11.539  0.00  0.00     0.220 HD
ENDBRANCH   5   9
ENDBRANCH   4   5
BRANCH   4  11
HETATM   11  O   UNK N   1      36.812  15.084  13.810  0.00  0.00    -0.384 OA
HETATM   12  H   UNK N   1      37.540  15.611  13.445  0.00  0.00     0.210 HD
ENDBRANCH   4  11
ENDBRANCH   3   4
ENDBRANCH   1   3
BRANCH   1  13
HETATM   13  C   UNK N   1      34.819  11.799  16.838  0.00  0.00     0.004 C 
BRANCH  13  14
HETATM   14  C   UNK N   1      36.085  10.929  16.813  0.00  0.00     0.001 C 
BRANCH  14  15
HETATM   15  C   UNK N   1      36.108   9.883  17.922  0.00  0.00     0.004 C 
BRANCH  15  16
HETATM   16  C   UNK N   1      35.760  10.488  19.284  0.00  0.00    -0.019 C 
HETATM   17  C   UNK N   1      36.926  10.283  20.235  0.00  0.00     0.010 C 
BRANCH  16  18
HETATM   18  C   UNK N   1      34.476   9.906  19.879  0.00  0.00     0.004 C 
BRANCH  18  19
HETATM   19  C   UNK N   1      33.815   8.877  18.974  0.00  0.00     0.001 C 
BRANCH  19  20
HETATM   20  C   UNK N   1      33.074   7.858  19.823  0.00  0.00     0.004 C 
BRANCH  20  21
HETATM   21  C   UNK N   1      31.850   8.484  20.478  0.00  0.00    -0.023 C 
HETATM   22  C   UNK N   1      31.952   8.329  21.981  0.00  0.00     0.009 C 
HETATM   23  C   UNK N   1      30.578   7.806  19.998  0.00  0.00     0.009 C 
ENDBRANCH  20  21
ENDBRANCH  19  20
ENDBRANCH  18  19
ENDBRANCH  16  18
ENDBRANCH  15  16
ENDBRANCH  14  15
ENDBRANCH  13  14
ENDBRANCH   1  13
TORSDOF 14
ENDMDL
MODEL 5
REMARK VINA RESULT:      -5.4      7.985     11.198
REMARK  14 active torsions:
REMARK  status: ('A' for Active; 'I' for Inactive)
REMARK    1  A    between atoms: P_1  and  O_3 
REMARK    2  A    between atoms: P_1  and  O_4 
REMARK    3  A    between atoms: P_1  and  C_5 
REMARK    4  A    between atoms: C_5  and  O_6 
REMARK    5  A    between atoms: C_5  and  C_7 
REMARK    6  A    between atoms: C_7  and  C_8 
REMARK    7  A    between atoms: C_8  and  C_10 
REMARK    8  A    between atoms: C_10  and  C_11 
REMARK    9  A    between atoms: C_11  and  C_12 
REMARK   10  A    between atoms: C_12  and  C_13 
REMARK   11  A    between atoms: C_13  and  C_15 
REMARK   12  A    between atoms: C_15  and  C_16 
REMARK   13  A    between atoms: C_16  and  C_17 
REMARK   14  A    between atoms: C_17  and  C_18 
ROOT
HETATM    1  C   UNK N   1      31.312  16.775   5.700  0.00  0.00    -0.016 C 
HETATM    2  C   UNK N   1      32.312  17.378   4.724  0.00  0.00     0.010 C 
ENDROOT
BRANCH   1   3
HETATM    3  C   UNK N   1      31.970  16.485   7.059  0.00  0.00     0.048 C 
BRANCH   3   4
HETATM    4  C   UNK N   1      32.593  17.618   7.896  0.00  0.00     0.229 C 
BRANCH   4   5
HETATM    5  P   UNK N   1      34.367  17.119   8.437  0.00  0.00     0.265 P 
HETATM    6  O   UNK N   1      35.278  17.625   9.584  0.00  0.00    -0.652 OA
BRANCH   5   7
HETATM    7  O   UNK N   1      34.288  18.858   8.407  0.00  0.00    -0.327 OA
HETATM    8  H   UNK N   1      33.564  19.444   8.677  0.00  0.00     0.220 HD
ENDBRANCH   5   7
BRANCH   5   9
HETATM    9  O   UNK N   1      33.448  16.571   9.803  0.00  0.00    -0.327 OA
HETATM   10  H   UNK N   1      33.572  16.649  10.763  0.00  0.00     0.220 HD
ENDBRANCH   5   9
ENDBRANCH   4   5
BRANCH   4  11
HETATM   11  O   UNK N   1      31.761  18.015   8.959  0.00  0.00    -0.384 OA
HETATM   12  H   UNK N   1      31.366  18.523   9.685  0.00  0.00     0.210 HD
ENDBRANCH   4  11
ENDBRANCH   3   4
ENDBRANCH   1   3
BRANCH   1  13
HETATM   13  C   UNK N   1      30.056  17.643   5.826  0.00  0.00     0.004 C 
BRANCH  13  14
HETATM   14  C   UNK N   1      28.741  16.855   5.741  0.00  0.00     0.001 C 
BRANCH  14  15
HETATM   15  C   UNK N   1      27.705  17.319   6.761  0.00  0.00     0.004 C 
BRANCH  15  16
HETATM   16  C   UNK N   1      28.274  18.375   7.710  0.00  0.00    -0.019 C 
HETATM   17  C   UNK N   1      28.270  17.828   9.127  0.00  0.00     0.010 C 
BRANCH  16  18
HETATM   18  C   UNK N   1      27.510  19.700   7.647  0.00  0.00     0.004 C 
BRANCH  18  19
HETATM   19  C   UNK N   1      27.778  20.480   6.368  0.00  0.00     0.001 C 
BRANCH  19  20
HETATM   20  C   UNK N   1      26.467  21.019   5.820  0.00  0.00     0.004 C 
BRANCH  20  21
HETATM   21  C   UNK N   1      26.111  20.344   4.503  0.00  0.00    -0.023 C 
HETATM   22  C   UNK N   1      25.147  19.207   4.769  0.00  0.00     0.009 C 
HETATM   23  C   UNK N   1      27.354  19.788   3.830  0.00  0.00     0.009 C 
ENDBRANCH  20  21
ENDBRANCH  19  20
ENDBRANCH  18  19
ENDBRANCH  16  18
ENDBRANCH  15  16
ENDBRANCH  14  15
ENDBRANCH  13  14
ENDBRANCH   1  13
TORSDOF 14
ENDMDL
MODEL 6
REMARK VINA RESULT:      -5.4      1.672      3.416
REMARK  14 active torsions:
REMARK  status: ('A' for Active; 'I' for Inactive)
REMARK    1  A    between atoms: P_1  and  O_3 
REMARK    2  A    between atoms: P_1  and  O_4 
REMARK    3  A    between atoms: P_1  and  C_5 
REMARK    4  A    between atoms: C_5  and  O_6 
REMARK    5  A    between atoms: C_5  and  C_7 
REMARK    6  A    between atoms: C_7  and  C_8 
REMARK    7  A    between atoms: C_8  and  C_10 
REMARK    8  A    between atoms: C_10  and  C_11 
REMARK    9  A    between atoms: C_11  and  C_12 
REMARK   10  A    between atoms: C_12  and  C_13 
REMARK   11  A    between atoms: C_13  and  C_15 
REMARK   12  A    between atoms: C_15  and  C_16 
REMARK   13  A    between atoms: C_16  and  C_17 
REMARK   14  A    between atoms: C_17  and  C_18 
ROOT
HETATM    1  C   UNK N   1      35.463  12.201  12.191  0.00  0.00    -0.016 C 
HETATM    2  C   UNK N   1      34.490  11.409  13.054  0.00  0.00     0.010 C 
ENDROOT
BRANCH   1   3
HETATM    3  C   UNK N   1      35.131  13.701  12.213  0.00  0.00     0.048 C 
BRANCH   3   4
HETATM    4  C   UNK N   1      34.513  14.394  10.984  0.00  0.00     0.229 C 
BRANCH   4   5
HETATM    5  P   UNK N   1      35.738  15.708  10.303  0.00  0.00     0.265 P 
HETATM    6  O   UNK N   1      35.919  17.215  10.621  0.00  0.00    -0.652 OA
BRANCH   5   7
HETATM    7  O   UNK N   1      34.146  16.414  10.305  0.00  0.00    -0.327 OA
HETATM    8  H   UNK N   1      33.682  16.881   9.593  0.00  0.00     0.220 HD
ENDBRANCH   5   7
BRANCH   5   9
HETATM    9  O   UNK N   1      36.270  15.596  11.951  0.00  0.00    -0.327 OA
HETATM   10  H   UNK N   1      36.260  14.879  12.605  0.00  0.00     0.220 HD
ENDBRANCH   5   9
ENDBRANCH   4   5
BRANCH   4  11
HETATM   11  O   UNK N   1      33.224  14.895  11.246  0.00  0.00    -0.384 OA
HETATM   12  H   UNK N   1      32.450  15.477  11.292  0.00  0.00     0.210 HD
ENDBRANCH   4  11
ENDBRANCH   3   4
ENDBRANCH   1   3
BRANCH   1  13
HETATM   13  C   UNK N   1      36.917  11.912  12.575  0.00  0.00     0.004 C 
BRANCH  13  14
HETATM   14  C   UNK N   1      37.181  11.934  14.087  0.00  0.00     0.001 C 
BRANCH  14  15
HETATM   15  C   UNK N   1      38.346  11.040  14.499  0.00  0.00     0.004 C 
BRANCH  15  16
HETATM   16  C   UNK N   1      37.865   9.727  15.121  0.00  0.00    -0.019 C 
HETATM   17  C   UNK N   1      37.916   8.629  14.073  0.00  0.00     0.010 C 
BRANCH  16  18
HETATM   18  C   UNK N   1      36.458   9.835  15.714  0.00  0.00     0.004 C 
BRANCH  18  19
HETATM   19  C   UNK N   1      36.459  10.276  17.171  0.00  0.00     0.001 C 
BRANCH  19  20
HETATM   20  C   UNK N   1      35.186  11.050  17.465  0.00  0.00     0.004 C 
BRANCH  20  21
HETATM   21  C   UNK N   1      35.420  12.549  17.337  0.00  0.00    -0.023 C 
HETATM   22  C   UNK N   1      35.162  13.212  18.673  0.00  0.00     0.009 C 
HETATM   23  C   UNK N   1      34.488  13.152  16.299  0.00  0.00     0.009 C 
ENDBRANCH  20  21
ENDBRANCH  19  20
ENDBRANCH  18  19
ENDBRANCH  16  18
ENDBRANCH  15  16
ENDBRANCH  14  15
ENDBRANCH  13  14
ENDBRANCH   1  13
TORSDOF 14
ENDMDL
MODEL 7
REMARK VINA RESULT:      -5.3      5.872      9.345
REMARK  14 active torsions:
REMARK  status: ('A' for Active; 'I' for Inactive)
REMARK    1  A    between atoms: P_1  and  O_3 
REMARK    2  A    between atoms: P_1  and  O_4 
REMARK    3  A    between atoms: P_1  and  C_5 
REMARK    4  A    between atoms: C_5  and  O_6 
REMARK    5  A    between atoms: C_5  and  C_7 
REMARK    6  A    between atoms: C_7  and  C_8 
REMARK    7  A    between atoms: C_8  and  C_10 
REMARK    8  A    between atoms: C_10  and  C_11 
REMARK    9  A    between atoms: C_11  and  C_12 
REMARK   10  A    between atoms: C_12  and  C_13 
REMARK   11  A    between atoms: C_13  and  C_15 
REMARK   12  A    between atoms: C_15  and  C_16 
REMARK   13  A    between atoms: C_16  and  C_17 
REMARK   14  A    between atoms: C_17  and  C_18 
ROOT
HETATM    1  C   UNK N   1      32.846  16.764   7.708  0.00  0.00    -0.016 C 
HETATM    2  C   UNK N   1      34.065  17.172   6.892  0.00  0.00     0.010 C 
ENDROOT
BRANCH   1   3
HETATM    3  C   UNK N   1      33.231  15.787   8.830  0.00  0.00     0.048 C 
BRANCH   3   4
HETATM    4  C   UNK N   1      34.555  15.947   9.600  0.00  0.00     0.229 C 
BRANCH   4   5
HETATM    5  P   UNK N   1      34.791  14.458  10.793  0.00  0.00     0.265 P 
HETATM    6  O   UNK N   1      34.813  14.368  12.340  0.00  0.00    -0.652 OA
BRANCH   5   7
HETATM    7  O   UNK N   1      35.805  15.758  11.354  0.00  0.00    -0.327 OA
HETATM    8  H   UNK N   1      35.987  16.616  10.941  0.00  0.00     0.220 HD
ENDBRANCH   5   7
BRANCH   5   9
HETATM    9  O   UNK N   1      33.144  14.887  11.133  0.00  0.00    -0.327 OA
HETATM   10  H   UNK N   1      32.371  14.378  11.427  0.00  0.00     0.220 HD
ENDBRANCH   5   9
ENDBRANCH   4   5
BRANCH   4  11
HETATM   11  O   UNK N   1      34.660  17.203  10.226  0.00  0.00    -0.384 OA
HETATM   12  H   UNK N   1      34.519  18.133  10.462  0.00  0.00     0.210 HD
ENDBRANCH   4  11
ENDBRANCH   3   4
ENDBRANCH   1   3
BRANCH   1  13
HETATM   13  C   UNK N   1      32.081  17.986   8.225  0.00  0.00     0.004 C 
BRANCH  13  14
HETATM   14  C   UNK N   1      30.715  17.653   8.842  0.00  0.00     0.001 C 
BRANCH  14  15
HETATM   15  C   UNK N   1      29.864  18.893   9.100  0.00  0.00     0.004 C 
BRANCH  15  16
HETATM   16  C   UNK N   1      28.399  18.668   8.720  0.00  0.00    -0.019 C 
HETATM   17  C   UNK N   1      28.026  17.223   9.000  0.00  0.00     0.010 C 
BRANCH  16  18
HETATM   18  C   UNK N   1      28.106  19.023   7.260  0.00  0.00     0.004 C 
BRANCH  18  19
HETATM   19  C   UNK N   1      28.236  17.831   6.322  0.00  0.00     0.001 C 
BRANCH  19  20
HETATM   20  C   UNK N   1      29.334  18.104   5.309  0.00  0.00     0.004 C 
BRANCH  20  21
HETATM   21  C   UNK N   1      30.178  16.859   5.075  0.00  0.00    -0.023 C 
HETATM   22  C   UNK N   1      30.095  16.464   3.616  0.00  0.00     0.009 C 
HETATM   23  C   UNK N   1      29.681  15.704   5.927  0.00  0.00     0.009 C 
ENDBRANCH  20  21
ENDBRANCH  19  20
ENDBRANCH  18  19
ENDBRANCH  16  18
ENDBRANCH  15  16
ENDBRANCH  14  15
ENDBRANCH  13  14
ENDBRANCH   1  13
TORSDOF 14
ENDMDL
MODEL 8
REMARK VINA RESULT:      -5.3     20.890     23.491
REMARK  14 active torsions:
REMARK  status: ('A' for Active; 'I' for Inactive)
REMARK    1  A    between atoms: P_1  and  O_3 
REMARK    2  A    between atoms: P_1  and  O_4 
REMARK    3  A    between atoms: P_1  and  C_5 
REMARK    4  A    between atoms: C_5  and  O_6 
REMARK    5  A    between atoms: C_5  and  C_7 
REMARK    6  A    between atoms: C_7  and  C_8 
REMARK    7  A    between atoms: C_8  and  C_10 
REMARK    8  A    between atoms: C_10  and  C_11 
REMARK    9  A    between atoms: C_11  and  C_12 
REMARK   10  A    between atoms: C_12  and  C_13 
REMARK   11  A    between atoms: C_13  and  C_15 
REMARK   12  A    between atoms: C_15  and  C_16 
REMARK   13  A    between atoms: C_16  and  C_17 
REMARK   14  A    between atoms: C_17  and  C_18 
ROOT
HETATM    1  C   UNK N   1      27.850  24.656  -4.578  0.00  0.00    -0.016 C 
HETATM    2  C   UNK N   1      27.011  24.328  -3.351  0.00  0.00     0.010 C 
ENDROOT
BRANCH   1   3
HETATM    3  C   UNK N   1      29.341  24.754  -4.222  0.00  0.00     0.048 C 
BRANCH   3   4
HETATM    4  C   UNK N   1      30.332  23.655  -4.651  0.00  0.00     0.229 C 
BRANCH   4   5
HETATM    5  P   UNK N   1      31.144  22.876  -3.093  0.00  0.00     0.265 P 
HETATM    6  O   UNK N   1      30.728  22.881  -1.600  0.00  0.00    -0.652 OA
BRANCH   5   7
HETATM    7  O   UNK N   1      30.703  24.515  -2.702  0.00  0.00    -0.327 OA
HETATM    8  H   UNK N   1      29.847  24.960  -2.804  0.00  0.00     0.220 HD
ENDBRANCH   5   7
BRANCH   5   9
HETATM    9  O   UNK N   1      29.684  21.945  -3.195  0.00  0.00    -0.327 OA
HETATM   10  H   UNK N   1      29.506  20.995  -3.284  0.00  0.00     0.220 HD
ENDBRANCH   5   9
ENDBRANCH   4   5
BRANCH   4  11
HETATM   11  O   UNK N   1      31.255  24.114  -5.608  0.00  0.00    -0.384 OA
HETATM   12  H   UNK N   1      31.962  24.144  -6.272  0.00  0.00     0.210 HD
ENDBRANCH   4  11
ENDBRANCH   3   4
ENDBRANCH   1   3
BRANCH   1  13
HETATM   13  C   UNK N   1      27.580  23.674  -5.722  0.00  0.00     0.004 C 
BRANCH  13  14
HETATM   14  C   UNK N   1      27.133  24.344  -7.029  0.00  0.00     0.001 C 
BRANCH  14  15
HETATM   15  C   UNK N   1      25.685  24.822  -6.985  0.00  0.00     0.004 C 
BRANCH  15  16
HETATM   16  C   UNK N   1      25.586  26.347  -7.059  0.00  0.00    -0.019 C 
HETATM   17  C   UNK N   1      26.941  26.918  -7.441  0.00  0.00     0.010 C 
BRANCH  16  18
HETATM   18  C   UNK N   1      25.094  26.972  -5.751  0.00  0.00     0.004 C 
BRANCH  18  19
HETATM   19  C   UNK N   1      25.990  28.097  -5.255  0.00  0.00     0.001 C 
BRANCH  19  20
HETATM   20  C   UNK N   1      26.082  28.039  -3.740  0.00  0.00     0.004 C 
BRANCH  20  21
HETATM   21  C   UNK N   1      27.530  28.141  -3.279  0.00  0.00    -0.023 C 
HETATM   22  C   UNK N   1      27.667  29.296  -2.310  0.00  0.00     0.009 C 
HETATM   23  C   UNK N   1      28.455  28.376  -4.461  0.00  0.00     0.009 C 
ENDBRANCH  20  21
ENDBRANCH  19  20
ENDBRANCH  18  19
ENDBRANCH  16  18
ENDBRANCH  15  16
ENDBRANCH  14  15
ENDBRANCH  13  14
ENDBRANCH   1  13
TORSDOF 14
ENDMDL
MODEL 9
REMARK VINA RESULT:      -5.2      1.297      3.505
REMARK  14 active torsions:
REMARK  status: ('A' for Active; 'I' for Inactive)
REMARK    1  A    between atoms: P_1  and  O_3 
REMARK    2  A    between atoms: P_1  and  O_4 
REMARK    3  A    between atoms: P_1  and  C_5 
REMARK    4  A    between atoms: C_5  and  O_6 
REMARK    5  A    between atoms: C_5  and  C_7 
REMARK    6  A    between atoms: C_7  and  C_8 
REMARK    7  A    between atoms: C_8  and  C_10 
REMARK    8  A    between atoms: C_10  and  C_11 
REMARK    9  A    between atoms: C_11  and  C_12 
REMARK   10  A    between atoms: C_12  and  C_13 
REMARK   11  A    between atoms: C_13  and  C_15 
REMARK   12  A    between atoms: C_15  and  C_16 
REMARK   13  A    between atoms: C_16  and  C_17 
REMARK   14  A    between atoms: C_17  and  C_18 
ROOT
HETATM    1  C   UNK N   1      35.942  13.245  12.452  0.00  0.00    -0.016 C 
HETATM    2  C   UNK N   1      36.078  14.187  13.639  0.00  0.00     0.010 C 
ENDROOT
BRANCH   1   3
HETATM    3  C   UNK N   1      35.627  14.020  11.162  0.00  0.00     0.048 C 
BRANCH   3   4
HETATM    4  C   UNK N   1      35.792  15.550  11.097  0.00  0.00     0.229 C 
BRANCH   4   5
HETATM    5  P   UNK N   1      34.551  16.277   9.822  0.00  0.00     0.265 P 
HETATM    6  O   UNK N   1      34.756  17.190   8.586  0.00  0.00    -0.652 OA
BRANCH   5   7
HETATM    7  O   UNK N   1      35.619  17.560  10.320  0.00  0.00    -0.327 OA
HETATM    8  H   UNK N   1      36.417  17.897   9.884  0.00  0.00     0.220 HD
ENDBRANCH   5   7
BRANCH   5   9
HETATM    9  O   UNK N   1      35.456  15.197   8.810  0.00  0.00    -0.327 OA
HETATM   10  H   UNK N   1      35.334  14.877   7.902  0.00  0.00     0.220 HD
ENDBRANCH   5   9
ENDBRANCH   4   5
BRANCH   4  11
HETATM   11  O   UNK N   1      37.128  15.933  10.878  0.00  0.00    -0.384 OA
HETATM   12  H   UNK N   1      38.085  16.049  10.980  0.00  0.00     0.210 HD
ENDBRANCH   4  11
ENDBRANCH   3   4
ENDBRANCH   1   3
BRANCH   1  13
HETATM   13  C   UNK N   1      37.168  12.338  12.310  0.00  0.00     0.004 C 
BRANCH  13  14
HETATM   14  C   UNK N   1      37.044  10.998  13.049  0.00  0.00     0.001 C 
BRANCH  14  15
HETATM   15  C   UNK N   1      35.747  10.262  12.727  0.00  0.00     0.004 C 
BRANCH  15  16
HETATM   16  C   UNK N   1      35.003   9.837  13.995  0.00  0.00    -0.019 C 
HETATM   17  C   UNK N   1      33.745  10.675  14.141  0.00  0.00     0.010 C 
BRANCH  16  18
HETATM   18  C   UNK N   1      35.868   9.947  15.253  0.00  0.00     0.004 C 
BRANCH  18  19
HETATM   19  C   UNK N   1      35.055  10.224  16.510  0.00  0.00     0.001 C 
BRANCH  19  20
HETATM   20  C   UNK N   1      35.884  11.057  17.473  0.00  0.00     0.004 C 
BRANCH  20  21
HETATM   21  C   UNK N   1      35.056  12.193  18.059  0.00  0.00    -0.023 C 
HETATM   22  C   UNK N   1      35.292  13.452  17.251  0.00  0.00     0.009 C 
HETATM   23  C   UNK N   1      35.446  12.454  19.503  0.00  0.00     0.009 C 
ENDBRANCH  20  21
ENDBRANCH  19  20
ENDBRANCH  18  19
ENDBRANCH  16  18
ENDBRANCH  15  16
ENDBRANCH  14  15
ENDBRANCH  13  14
ENDBRANCH   1  13
TORSDOF 14
ENDMDL
