MODEL 1
REMARK VINA RESULT:      -5.5      0.000      0.000
REMARK  5 active torsions:
REMARK  status: ('A' for Active; 'I' for Inactive)
REMARK    1  A    between atoms: C_2  and  O_1 
REMARK    2  A    between atoms: C_2  and  C_4 
REMARK    3  A    between atoms: C_4  and  O_5 
REMARK    4  A    between atoms: C_4  and  C_6 
REMARK    5  A    between atoms: C_11  and  O_12 
ROOT
HETATM    1  C   UNK N   1      23.142  12.200  10.427  0.00  0.00    -0.019 A 
HETATM    2  C   UNK N   1      23.437  11.602   9.192  0.00  0.00     0.013 A 
HETATM    3  C   UNK N   1      22.619  11.823   8.079  0.00  0.00     0.037 A 
HETATM    4  C   UNK N   1      22.014  13.033  10.523  0.00  0.00     0.013 A 
HETATM    5  C   UNK N   1      21.193  13.250   9.412  0.00  0.00     0.037 A 
HETATM    6  C   UNK N   1      21.492  12.639   8.193  0.00  0.00     0.065 A 
ENDROOT
BRANCH   1   7
HETATM    7  C   UNK N   1      24.029  11.872  11.617  0.00  0.00     0.248 C 
BRANCH   7   8
HETATM    8  C   UNK N   1      23.406  11.871  12.999  0.00  0.00     0.174 C 
HETATM    9  O   UNK N   1      23.892  12.495  13.926  0.00  0.00    -0.648 OA
BRANCH   8  10
HETATM   10  O   UNK N   1      22.284  11.155  13.206  0.00  0.00    -0.774 OA
HETATM   11  H   UNK N   1      21.806  10.773  12.497  0.00  0.00     0.167 HD
ENDBRANCH   8  10
ENDBRANCH   7   8
BRANCH   7  12
HETATM   12  O   UNK N   1      25.118  12.746  11.630  0.00  0.00    -0.380 OA
HETATM   13  H   UNK N   1      25.272  13.634  11.270  0.00  0.00     0.211 HD
ENDBRANCH   7  12
ENDBRANCH   1   7
BRANCH   6  14
HETATM   14  O   UNK N   1      20.693  12.829   7.131  0.00  0.00    -0.361 OA
HETATM   15  H   UNK N   1      21.017  13.269   6.370  0.00  0.00     0.217 HD
ENDBRANCH   6  14
TORSDOF 5
ENDMDL
MODEL 2
REMARK VINA RESULT:      -5.2     10.527     11.462
REMARK  5 active torsions:
REMARK  status: ('A' for Active; 'I' for Inactive)
REMARK    1  A    between atoms: C_2  and  O_1 
REMARK    2  A    between atoms: C_2  and  C_4 
REMARK    3  A    between atoms: C_4  and  O_5 
REMARK    4  A    between atoms: C_4  and  C_6 
REMARK    5  A    between atoms: C_11  and  O_12 
ROOT
HETATM    1  C   UNK N   1      32.325  17.482   7.445  0.00  0.00    -0.019 A 
HETATM    2  C   UNK N   1      31.630  17.029   6.313  0.00  0.00     0.013 A 
HETATM    3  C   UNK N   1      30.232  17.038   6.283  0.00  0.00     0.037 A 
HETATM    4  C   UNK N   1      31.590  17.955   8.545  0.00  0.00     0.013 A 
HETATM    5  C   UNK N   1      30.192  17.960   8.518  0.00  0.00     0.037 A 
HETATM    6  C   UNK N   1      29.514  17.495   7.390  0.00  0.00     0.065 A 
ENDROOT
BRANCH   1   7
HETATM    7  C   UNK N   1      33.842  17.388   7.446  0.00  0.00     0.248 C 
BRANCH   7   8
HETATM    8  C   UNK N   1      34.602  18.037   8.586  0.00  0.00     0.174 C 
HETATM    9  O   UNK N   1      35.186  19.098   8.450  0.00  0.00    -0.648 OA
BRANCH   8  10
HETATM   10  O   UNK N   1      34.635  17.417   9.782  0.00  0.00    -0.774 OA
HETATM   11  H   UNK N   1      35.253  16.739   9.968  0.00  0.00     0.167 HD
ENDBRANCH   8  10
ENDBRANCH   7   8
BRANCH   7  12
HETATM   12  O   UNK N   1      34.333  17.904   6.245  0.00  0.00    -0.380 OA
HETATM   13  H   UNK N   1      34.373  18.795   5.863  0.00  0.00     0.211 HD
ENDBRANCH   7  12
ENDBRANCH   1   7
BRANCH   6  14
HETATM   14  O   UNK N   1      28.172  17.479   7.371  0.00  0.00    -0.361 OA
HETATM   15  H   UNK N   1      27.711  16.672   7.246  0.00  0.00     0.217 HD
ENDBRANCH   6  14
TORSDOF 5
ENDMDL
MODEL 3
REMARK VINA RESULT:      -5.2     10.557     11.574
REMARK  5 active torsions:
REMARK  status: ('A' for Active; 'I' for Inactive)
REMARK    1  A    between atoms: C_2  and  O_1 
REMARK    2  A    between atoms: C_2  and  C_4 
REMARK    3  A    between atoms: C_4  and  O_5 
REMARK    4  A    between atoms: C_4  and  C_6 
REMARK    5  A    between atoms: C_11  and  O_12 
ROOT
HETATM    1  C   UNK N   1      32.326  17.436   7.446  0.00  0.00    -0.019 A 
HETATM    2  C   UNK N   1      31.721  17.983   8.588  0.00  0.00     0.013 A 
HETATM    3  C   UNK N   1      30.329  18.089   8.676  0.00  0.00     0.037 A 
HETATM    4  C   UNK N   1      31.507  16.987   6.396  0.00  0.00     0.013 A 
HETATM    5  C   UNK N   1      30.116  17.096   6.482  0.00  0.00     0.037 A 
HETATM    6  C   UNK N   1      29.529  17.654   7.618  0.00  0.00     0.065 A 
ENDROOT
BRANCH   1   7
HETATM    7  C   UNK N   1      33.844  17.406   7.379  0.00  0.00     0.248 C 
BRANCH   7   8
HETATM    8  C   UNK N   1      34.625  18.090   8.484  0.00  0.00     0.174 C 
HETATM    9  O   UNK N   1      35.054  19.225   8.365  0.00  0.00    -0.648 OA
BRANCH   8  10
HETATM   10  O   UNK N   1      34.855  17.419   9.630  0.00  0.00    -0.774 OA
HETATM   11  H   UNK N   1      35.703  17.399  10.027  0.00  0.00     0.167 HD
ENDBRANCH   8  10
ENDBRANCH   7   8
BRANCH   7  12
HETATM   12  O   UNK N   1      34.259  17.940   6.158  0.00  0.00    -0.380 OA
HETATM   13  H   UNK N   1      34.732  18.748   5.904  0.00  0.00     0.211 HD
ENDBRANCH   7  12
ENDBRANCH   1   7
BRANCH   6  14
HETATM   14  O   UNK N   1      28.194  17.780   7.692  0.00  0.00    -0.361 OA
HETATM   15  H   UNK N   1      27.681  17.125   8.125  0.00  0.00     0.217 HD
ENDBRANCH   6  14
TORSDOF 5
ENDMDL
MODEL 4
REMARK VINA RESULT:      -5.2      9.598     10.723
REMARK  5 active torsions:
REMARK  status: ('A' for Active; 'I' for Inactive)
REMARK    1  A    between atoms: C_2  and  O_1 
REMARK    2  A    between atoms: C_2  and  C_4 
REMARK    3  A    between atoms: C_4  and  O_5 
REMARK    4  A    between atoms: C_4  and  C_6 
REMARK    5  A    between atoms: C_11  and  O_12 
ROOT
HETATM    1  C   UNK N   1      30.783  17.396   8.016  0.00  0.00    -0.019 A 
HETATM    2  C   UNK N   1      31.875  18.024   8.637  0.00  0.00     0.013 A 
HETATM    3  C   UNK N   1      33.109  18.115   7.986  0.00  0.00     0.037 A 
HETATM    4  C   UNK N   1      30.951  16.870   6.724  0.00  0.00     0.013 A 
HETATM    5  C   UNK N   1      32.186  16.958   6.074  0.00  0.00     0.037 A 
HETATM    6  C   UNK N   1      33.266  17.574   6.709  0.00  0.00     0.065 A 
ENDROOT
BRANCH   1   7
HETATM    7  C   UNK N   1      29.486  17.268   8.797  0.00  0.00     0.248 C 
BRANCH   7   8
HETATM    8  C   UNK N   1      28.414  18.319   8.586  0.00  0.00     0.174 C 
HETATM    9  O   UNK N   1      28.505  19.169   7.716  0.00  0.00    -0.648 OA
BRANCH   8  10
HETATM   10  O   UNK N   1      27.331  18.315   9.388  0.00  0.00    -0.774 OA
HETATM   11  H   UNK N   1      26.562  17.827   9.172  0.00  0.00     0.167 HD
ENDBRANCH   8  10
ENDBRANCH   7   8
BRANCH   7  12
HETATM   12  O   UNK N   1      29.776  17.210  10.161  0.00  0.00    -0.380 OA
HETATM   13  H   UNK N   1      30.230  17.806  10.777  0.00  0.00     0.211 HD
ENDBRANCH   7  12
ENDBRANCH   1   7
BRANCH   6  14
HETATM   14  O   UNK N   1      34.459  17.639   6.095  0.00  0.00    -0.361 OA
HETATM   15  H   UNK N   1      35.107  18.250   6.387  0.00  0.00     0.217 HD
ENDBRANCH   6  14
TORSDOF 5
ENDMDL
MODEL 5
REMARK VINA RESULT:      -5.2     13.021     14.738
REMARK  5 active torsions:
REMARK  status: ('A' for Active; 'I' for Inactive)
REMARK    1  A    between atoms: C_2  and  O_1 
REMARK    2  A    between atoms: C_2  and  C_4 
REMARK    3  A    between atoms: C_4  and  O_5 
REMARK    4  A    between atoms: C_4  and  C_6 
REMARK    5  A    between atoms: C_11  and  O_12 
ROOT
HETATM    1  C   UNK N   1      35.287  12.258  16.433  0.00  0.00    -0.019 A 
HETATM    2  C   UNK N   1      35.178  13.561  16.945  0.00  0.00     0.013 A 
HETATM    3  C   UNK N   1      35.178  13.788  18.324  0.00  0.00     0.037 A 
HETATM    4  C   UNK N   1      35.404  11.186  17.334  0.00  0.00     0.013 A 
HETATM    5  C   UNK N   1      35.399  11.412  18.714  0.00  0.00     0.037 A 
HETATM    6  C   UNK N   1      35.278  12.712  19.208  0.00  0.00     0.065 A 
ENDROOT
BRANCH   1   7
HETATM    7  C   UNK N   1      35.217  12.067  14.927  0.00  0.00     0.248 C 
BRANCH   7   8
HETATM    8  C   UNK N   1      35.781  13.157  14.037  0.00  0.00     0.174 C 
HETATM    9  O   UNK N   1      35.065  13.860  13.345  0.00  0.00    -0.648 OA
BRANCH   8  10
HETATM   10  O   UNK N   1      37.114  13.349  14.010  0.00  0.00    -0.774 OA
HETATM   11  H   UNK N   1      37.716  12.634  14.071  0.00  0.00     0.167 HD
ENDBRANCH   8  10
ENDBRANCH   7   8
BRANCH   7  12
HETATM   12  O   UNK N   1      33.890  11.844  14.555  0.00  0.00    -0.380 OA
HETATM   13  H   UNK N   1      33.468  11.421  13.790  0.00  0.00     0.211 HD
ENDBRANCH   7  12
ENDBRANCH   1   7
BRANCH   6  14
HETATM   14  O   UNK N   1      35.251  12.927  20.533  0.00  0.00    -0.361 OA
HETATM   15  H   UNK N   1      34.457  13.203  20.949  0.00  0.00     0.217 HD
ENDBRANCH   6  14
TORSDOF 5
ENDMDL
MODEL 6
REMARK VINA RESULT:      -5.2      9.237     11.618
REMARK  5 active torsions:
REMARK  status: ('A' for Active; 'I' for Inactive)
REMARK    1  A    between atoms: C_2  and  O_1 
REMARK    2  A    between atoms: C_2  and  C_4 
REMARK    3  A    between atoms: C_4  and  O_5 
REMARK    4  A    between atoms: C_4  and  C_6 
REMARK    5  A    between atoms: C_11  and  O_12 
ROOT
HETATM    1  C   UNK N   1      22.989  19.880   3.157  0.00  0.00    -0.019 A 
HETATM    2  C   UNK N   1      24.192  20.529   2.837  0.00  0.00     0.013 A 
HETATM    3  C   UNK N   1      25.417  20.017   3.277  0.00  0.00     0.037 A 
HETATM    4  C   UNK N   1      23.039  18.701   3.920  0.00  0.00     0.013 A 
HETATM    5  C   UNK N   1      24.262  18.191   4.364  0.00  0.00     0.037 A 
HETATM    6  C   UNK N   1      25.450  18.853   4.048  0.00  0.00     0.065 A 
ENDROOT
BRANCH   1   7
HETATM    7  C   UNK N   1      21.685  20.518   2.708  0.00  0.00     0.248 C 
BRANCH   7   8
HETATM    8  C   UNK N   1      21.110  20.109   1.366  0.00  0.00     0.174 C 
HETATM    9  O   UNK N   1      21.356  20.726   0.344  0.00  0.00    -0.648 OA
BRANCH   8  10
HETATM   10  O   UNK N   1      20.300  19.033   1.305  0.00  0.00    -0.774 OA
HETATM   11  H   UNK N   1      19.567  19.003   0.724  0.00  0.00     0.167 HD
ENDBRANCH   8  10
ENDBRANCH   7   8
BRANCH   7  12
HETATM   12  O   UNK N   1      21.827  21.907   2.716  0.00  0.00    -0.380 OA
HETATM   13  H   UNK N   1      21.230  22.642   2.925  0.00  0.00     0.211 HD
ENDBRANCH   7  12
ENDBRANCH   1   7
BRANCH   6  14
HETATM   14  O   UNK N   1      26.624  18.377   4.492  0.00  0.00    -0.361 OA
HETATM   15  H   UNK N   1      27.189  17.901   3.915  0.00  0.00     0.217 HD
ENDBRANCH   6  14
TORSDOF 5
ENDMDL
MODEL 7
REMARK VINA RESULT:      -5.1      1.888      4.646
REMARK  5 active torsions:
REMARK  status: ('A' for Active; 'I' for Inactive)
REMARK    1  A    between atoms: C_2  and  O_1 
REMARK    2  A    between atoms: C_2  and  C_4 
REMARK    3  A    between atoms: C_4  and  O_5 
REMARK    4  A    between atoms: C_4  and  C_6 
REMARK    5  A    between atoms: C_11  and  O_12 
ROOT
HETATM    1  C   UNK N   1      22.263  13.341   9.265  0.00  0.00    -0.019 A 
HETATM    2  C   UNK N   1      23.605  13.399   8.854  0.00  0.00     0.013 A 
HETATM    3  C   UNK N   1      24.620  12.868   9.656  0.00  0.00     0.037 A 
HETATM    4  C   UNK N   1      21.959  12.729  10.493  0.00  0.00     0.013 A 
HETATM    5  C   UNK N   1      22.973  12.201  11.297  0.00  0.00     0.037 A 
HETATM    6  C   UNK N   1      24.304  12.278  10.881  0.00  0.00     0.065 A 
ENDROOT
BRANCH   1   7
HETATM    7  C   UNK N   1      21.211  13.992   8.384  0.00  0.00     0.248 C 
BRANCH   7   8
HETATM    8  C   UNK N   1      20.256  14.984   9.019  0.00  0.00     0.174 C 
HETATM    9  O   UNK N   1      20.451  16.186   8.976  0.00  0.00    -0.648 OA
BRANCH   8  10
HETATM   10  O   UNK N   1      19.161  14.519   9.653  0.00  0.00    -0.774 OA
HETATM   11  H   UNK N   1      19.214  14.123  10.499  0.00  0.00     0.167 HD
ENDBRANCH   8  10
ENDBRANCH   7   8
BRANCH   7  12
HETATM   12  O   UNK N   1      20.455  12.997   7.761  0.00  0.00    -0.380 OA
HETATM   13  H   UNK N   1      19.720  13.009   7.127  0.00  0.00     0.211 HD
ENDBRANCH   7  12
ENDBRANCH   1   7
BRANCH   6  14
HETATM   14  O   UNK N   1      25.281  11.791  11.662  0.00  0.00    -0.361 OA
HETATM   15  H   UNK N   1      25.301  10.880  11.881  0.00  0.00     0.217 HD
ENDBRANCH   6  14
TORSDOF 5
ENDMDL
MODEL 8
REMARK VINA RESULT:      -5.0      9.899     11.032
REMARK  5 active torsions:
REMARK  status: ('A' for Active; 'I' for Inactive)
REMARK    1  A    between atoms: C_2  and  O_1 
REMARK    2  A    between atoms: C_2  and  C_4 
REMARK    3  A    between atoms: C_4  and  O_5 
REMARK    4  A    between atoms: C_4  and  C_6 
REMARK    5  A    between atoms: C_11  and  O_12 
ROOT
HETATM    1  C   UNK N   1      31.271  17.317   7.606  0.00  0.00    -0.019 A 
HETATM    2  C   UNK N   1      30.085  17.031   6.911  0.00  0.00     0.013 A 
HETATM    3  C   UNK N   1      28.857  17.524   7.364  0.00  0.00     0.037 A 
HETATM    4  C   UNK N   1      31.203  18.117   8.760  0.00  0.00     0.013 A 
HETATM    5  C   UNK N   1      29.975  18.606   9.215  0.00  0.00     0.037 A 
HETATM    6  C   UNK N   1      28.803  18.304   8.521  0.00  0.00     0.065 A 
ENDROOT
BRANCH   1   7
HETATM    7  C   UNK N   1      32.567  16.701   7.104  0.00  0.00     0.248 C 
BRANCH   7   8
HETATM    8  C   UNK N   1      33.585  17.608   6.443  0.00  0.00     0.174 C 
HETATM    9  O   UNK N   1      33.554  17.851   5.249  0.00  0.00    -0.648 OA
BRANCH   8  10
HETATM   10  O   UNK N   1      34.556  18.158   7.200  0.00  0.00    -0.774 OA
HETATM   11  H   UNK N   1      35.068  17.644   7.792  0.00  0.00     0.167 HD
ENDBRANCH   8  10
ENDBRANCH   7   8
BRANCH   7  12
HETATM   12  O   UNK N   1      32.268  15.663   6.220  0.00  0.00    -0.380 OA
HETATM   13  H   UNK N   1      32.732  14.855   5.951  0.00  0.00     0.211 HD
ENDBRANCH   7  12
ENDBRANCH   1   7
BRANCH   6  14
HETATM   14  O   UNK N   1      27.620  18.755   8.969  0.00  0.00    -0.361 OA
HETATM   15  H   UNK N   1      27.104  18.229   9.549  0.00  0.00     0.217 HD
ENDBRANCH   6  14
TORSDOF 5
ENDMDL
MODEL 9
REMARK VINA RESULT:      -4.9     11.204     12.168
REMARK  5 active torsions:
REMARK  status: ('A' for Active; 'I' for Inactive)
REMARK    1  A    between atoms: C_2  and  O_1 
REMARK    2  A    between atoms: C_2  and  C_4 
REMARK    3  A    between atoms: C_4  and  O_5 
REMARK    4  A    between atoms: C_4  and  C_6 
REMARK    5  A    between atoms: C_11  and  O_12 
ROOT
HETATM    1  C   UNK N   1      32.596  17.491   6.893  0.00  0.00    -0.019 A 
HETATM    2  C   UNK N   1      31.234  17.268   6.639  0.00  0.00     0.013 A 
HETATM    3  C   UNK N   1      30.768  17.109   5.330  0.00  0.00     0.037 A 
HETATM    4  C   UNK N   1      33.486  17.544   5.806  0.00  0.00     0.013 A 
HETATM    5  C   UNK N   1      33.021  17.389   4.497  0.00  0.00     0.037 A 
HETATM    6  C   UNK N   1      31.661  17.179   4.259  0.00  0.00     0.065 A 
ENDROOT
BRANCH   1   7
HETATM    7  C   UNK N   1      33.034  17.722   8.330  0.00  0.00     0.248 C 
BRANCH   7   8
HETATM    8  C   UNK N   1      34.511  17.917   8.608  0.00  0.00     0.174 C 
HETATM    9  O   UNK N   1      35.213  17.014   9.031  0.00  0.00    -0.648 OA
BRANCH   8  10
HETATM   10  O   UNK N   1      35.062  19.126   8.384  0.00  0.00    -0.774 OA
HETATM   11  H   UNK N   1      34.814  19.880   8.881  0.00  0.00     0.167 HD
ENDBRANCH   8  10
ENDBRANCH   7   8
BRANCH   7  12
HETATM   12  O   UNK N   1      32.577  16.667   9.122  0.00  0.00    -0.380 OA
HETATM   13  H   UNK N   1      31.696  16.368   9.400  0.00  0.00     0.211 HD
ENDBRANCH   7  12
ENDBRANCH   1   7
BRANCH   6  14
HETATM   14  O   UNK N   1      31.210  17.053   3.001  0.00  0.00    -0.361 OA
HETATM   15  H   UNK N   1      30.350  16.717   2.840  0.00  0.00     0.217 HD
ENDBRANCH   6  14
TORSDOF 5
ENDMDL
