REMARK  11 active torsions:
REMARK  status: ('A' for Active; 'I' for Inactive)
REMARK    1  A    between atoms: N_1  and  C_2 
REMARK    2  A    between atoms: N_1  and  C_4 
REMARK    3  A    between atoms: C_2  and  O_3 
REMARK    4  A    between atoms: C_4  and  C_5 
REMARK    5  A    between atoms: C_5  and  C_6 
REMARK    6  A    between atoms: C_6  and  C_7 
REMARK    7  A    between atoms: C_7  and  C_8 
REMARK    8  A    between atoms: C_8  and  C_9 
REMARK    9  A    between atoms: C_9  and  C_10 
REMARK   10  A    between atoms: C_10  and  C_11 
REMARK   11  A    between atoms: C_11  and  O_12 
ROOT
HETATM    1  C   UNK N   1      -0.737   0.426  -0.000  0.00  0.00     0.002 C 
ENDROOT
BRANCH   1   2
HETATM    2  C   UNK N   1      -1.953  -0.466  -0.000  0.00  0.00     0.019 C 
BRANCH   2   3
HETATM    3  C   UNK N   1      -3.209   0.371   0.000  0.00  0.00     0.115 C 
BRANCH   3   4
HETATM    4  N   UNK N   1      -4.352  -0.518   0.000  0.00  0.00    -0.402 N 
HETATM    5  H   UNK N   1      -4.327  -1.538   0.000  0.00  0.00     0.155 HD
BRANCH   4   6
HETATM    6  C   UNK N   1      -5.540   0.313  -0.000  0.00  0.00     0.282 C 
BRANCH   6   7
HETATM    7  O   UNK N   1      -6.669  -0.502  -0.000  0.00  0.00    -0.383 OA
HETATM    8  H   UNK N   1      -7.554  -0.104  -0.000  0.00  0.00     0.211 HD
ENDBRANCH   6   7
ENDBRANCH   4   6
ENDBRANCH   3   4
ENDBRANCH   2   3
ENDBRANCH   1   2
BRANCH   1   9
HETATM    9  C   UNK N   1       0.490  -0.453  -0.000  0.00  0.00     0.000 C 
BRANCH   9  10
HETATM   10  C   UNK N   1       1.721   0.417   0.000  0.00  0.00     0.000 C 
BRANCH  10  11
HETATM   11  C   UNK N   1       2.949  -0.462   0.000  0.00  0.00     0.002 C 
BRANCH  11  12
HETATM   12  C   UNK N   1       4.171   0.426   0.000  0.00  0.00     0.026 C 
BRANCH  12  13
HETATM   13  C   UNK N   1       5.418  -0.427  -0.000  0.00  0.00     0.164 C 
BRANCH  13  14
HETATM   14  O   UNK N   1       6.537   0.403  -0.000  0.00  0.00    -0.401 OA
HETATM   15  H   UNK N   1       7.427   0.017  -0.000  0.00  0.00     0.209 HD
ENDBRANCH  13  14
ENDBRANCH  12  13
ENDBRANCH  11  12
ENDBRANCH  10  11
ENDBRANCH   9  10
ENDBRANCH   1   9
TORSDOF 11
