MODEL 1
REMARK VINA RESULT:      -4.4      0.000      0.000
REMARK  11 active torsions:
REMARK  status: ('A' for Active; 'I' for Inactive)
REMARK    1  A    between atoms: N_1  and  C_2 
REMARK    2  A    between atoms: N_1  and  C_4 
REMARK    3  A    between atoms: C_2  and  O_3 
REMARK    4  A    between atoms: C_4  and  C_5 
REMARK    5  A    between atoms: C_5  and  C_6 
REMARK    6  A    between atoms: C_6  and  C_7 
REMARK    7  A    between atoms: C_7  and  C_8 
REMARK    8  A    between atoms: C_8  and  C_9 
REMARK    9  A    between atoms: C_9  and  C_10 
REMARK   10  A    between atoms: C_10  and  C_11 
REMARK   11  A    between atoms: C_11  and  O_12 
ROOT
HETATM    1  C   UNK N   1      23.894  19.902   3.358  0.00  0.00     0.002 C 
ENDROOT
BRANCH   1   2
HETATM    2  C   UNK N   1      22.620  20.401   2.724  0.00  0.00     0.019 C 
BRANCH   2   3
HETATM    3  C   UNK N   1      21.499  19.421   2.975  0.00  0.00     0.115 C 
BRANCH   3   4
HETATM    4  N   UNK N   1      20.453  19.663   2.003  0.00  0.00    -0.402 N 
HETATM    5  H   UNK N   1      19.581  19.142   1.909  0.00  0.00     0.155 HD
BRANCH   4   6
HETATM    6  C   UNK N   1      20.878  20.784   1.188  0.00  0.00     0.282 C 
BRANCH   6   7
HETATM    7  O   UNK N   1      20.629  20.496  -0.152  0.00  0.00    -0.383 OA
HETATM    8  H   UNK N   1      21.189  20.885  -0.843  0.00  0.00     0.211 HD
ENDBRANCH   6   7
ENDBRANCH   4   6
ENDBRANCH   3   4
ENDBRANCH   2   3
ENDBRANCH   1   2
BRANCH   1   9
HETATM    9  C   UNK N   1      25.058  20.508   2.612  0.00  0.00     0.000 C 
BRANCH   9  10
HETATM   10  C   UNK N   1      26.305  20.372   3.448  0.00  0.00     0.000 C 
BRANCH  10  11
HETATM   11  C   UNK N   1      25.917  20.265   4.904  0.00  0.00     0.002 C 
BRANCH  11  12
HETATM   12  C   UNK N   1      27.041  20.830   5.740  0.00  0.00     0.026 C 
BRANCH  12  13
HETATM   13  C   UNK N   1      26.469  21.560   6.933  0.00  0.00     0.164 C 
BRANCH  13  14
HETATM   14  O   UNK N   1      26.274  20.652   7.971  0.00  0.00    -0.401 OA
HETATM   15  H   UNK N   1      26.537  19.724   7.860  0.00  0.00     0.209 HD
ENDBRANCH  13  14
ENDBRANCH  12  13
ENDBRANCH  11  12
ENDBRANCH  10  11
ENDBRANCH   9  10
ENDBRANCH   1   9
TORSDOF 11
ENDMDL
MODEL 2
REMARK VINA RESULT:      -4.3      3.516      6.945
REMARK  11 active torsions:
REMARK  status: ('A' for Active; 'I' for Inactive)
REMARK    1  A    between atoms: N_1  and  C_2 
REMARK    2  A    between atoms: N_1  and  C_4 
REMARK    3  A    between atoms: C_2  and  O_3 
REMARK    4  A    between atoms: C_4  and  C_5 
REMARK    5  A    between atoms: C_5  and  C_6 
REMARK    6  A    between atoms: C_6  and  C_7 
REMARK    7  A    between atoms: C_7  and  C_8 
REMARK    8  A    between atoms: C_8  and  C_9 
REMARK    9  A    between atoms: C_9  and  C_10 
REMARK   10  A    between atoms: C_10  and  C_11 
REMARK   11  A    between atoms: C_11  and  O_12 
ROOT
HETATM    1  C   UNK N   1      27.100  21.268   5.480  0.00  0.00     0.002 C 
ENDROOT
BRANCH   1   2
HETATM    2  C   UNK N   1      27.524  20.990   6.901  0.00  0.00     0.019 C 
BRANCH   2   3
HETATM    3  C   UNK N   1      27.763  19.512   7.090  0.00  0.00     0.115 C 
BRANCH   3   4
HETATM    4  N   UNK N   1      27.481  19.175   8.469  0.00  0.00    -0.402 N 
HETATM    5  H   UNK N   1      26.863  19.681   9.103  0.00  0.00     0.155 HD
BRANCH   4   6
HETATM    6  C   UNK N   1      28.243  17.982   8.782  0.00  0.00     0.282 C 
BRANCH   6   7
HETATM    7  O   UNK N   1      27.400  17.040   9.366  0.00  0.00    -0.383 OA
HETATM    8  H   UNK N   1      27.711  16.131   9.505  0.00  0.00     0.211 HD
ENDBRANCH   6   7
ENDBRANCH   4   6
ENDBRANCH   3   4
ENDBRANCH   2   3
ENDBRANCH   1   2
BRANCH   1   9
HETATM    9  C   UNK N   1      27.391  20.038   4.655  0.00  0.00     0.000 C 
BRANCH   9  10
HETATM   10  C   UNK N   1      26.596  20.103   3.375  0.00  0.00     0.000 C 
BRANCH  10  11
HETATM   11  C   UNK N   1      25.140  19.849   3.683  0.00  0.00     0.002 C 
BRANCH  11  12
HETATM   12  C   UNK N   1      24.302  20.740   2.796  0.00  0.00     0.026 C 
BRANCH  12  13
HETATM   13  C   UNK N   1      22.848  20.347   2.911  0.00  0.00     0.164 C 
BRANCH  13  14
HETATM   14  O   UNK N   1      22.057  21.488   2.788  0.00  0.00    -0.401 OA
HETATM   15  H   UNK N   1      21.570  21.826   3.555  0.00  0.00     0.209 HD
ENDBRANCH  13  14
ENDBRANCH  12  13
ENDBRANCH  11  12
ENDBRANCH  10  11
ENDBRANCH   9  10
ENDBRANCH   1   9
TORSDOF 11
ENDMDL
MODEL 3
REMARK VINA RESULT:      -4.2      8.561      9.357
REMARK  11 active torsions:
REMARK  status: ('A' for Active; 'I' for Inactive)
REMARK    1  A    between atoms: N_1  and  C_2 
REMARK    2  A    between atoms: N_1  and  C_4 
REMARK    3  A    between atoms: C_2  and  O_3 
REMARK    4  A    between atoms: C_4  and  C_5 
REMARK    5  A    between atoms: C_5  and  C_6 
REMARK    6  A    between atoms: C_6  and  C_7 
REMARK    7  A    between atoms: C_7  and  C_8 
REMARK    8  A    between atoms: C_8  and  C_9 
REMARK    9  A    between atoms: C_9  and  C_10 
REMARK   10  A    between atoms: C_10  and  C_11 
REMARK   11  A    between atoms: C_11  and  O_12 
ROOT
HETATM    1  C   UNK N   1      20.084  14.151   9.719  0.00  0.00     0.002 C 
ENDROOT
BRANCH   1   2
HETATM    2  C   UNK N   1      21.169  14.941   9.031  0.00  0.00     0.019 C 
BRANCH   2   3
HETATM    3  C   UNK N   1      20.606  16.234   8.493  0.00  0.00     0.115 C 
BRANCH   3   4
HETATM    4  N   UNK N   1      19.228  16.348   8.924  0.00  0.00    -0.402 N 
HETATM    5  H   UNK N   1      18.574  15.579   9.075  0.00  0.00     0.155 HD
BRANCH   4   6
HETATM    6  C   UNK N   1      18.950  17.760   9.101  0.00  0.00     0.282 C 
BRANCH   6   7
HETATM    7  O   UNK N   1      20.079  18.496   8.749  0.00  0.00    -0.383 OA
HETATM    8  H   UNK N   1      20.771  18.666   9.407  0.00  0.00     0.211 HD
ENDBRANCH   6   7
ENDBRANCH   4   6
ENDBRANCH   3   4
ENDBRANCH   2   3
ENDBRANCH   1   2
BRANCH   1   9
HETATM    9  C   UNK N   1      20.723  12.957  10.385  0.00  0.00     0.000 C 
BRANCH   9  10
HETATM   10  C   UNK N   1      22.221  13.124  10.365  0.00  0.00     0.000 C 
BRANCH  10  11
HETATM   11  C   UNK N   1      22.871  11.762  10.305  0.00  0.00     0.002 C 
BRANCH  11  12
HETATM   12  C   UNK N   1      24.118  11.866   9.458  0.00  0.00     0.026 C 
BRANCH  12  13
HETATM   13  C   UNK N   1      25.028  12.930  10.024  0.00  0.00     0.164 C 
BRANCH  13  14
HETATM   14  O   UNK N   1      25.379  12.582  11.327  0.00  0.00    -0.401 OA
HETATM   15  H   UNK N   1      24.733  12.142  11.902  0.00  0.00     0.209 HD
ENDBRANCH  13  14
ENDBRANCH  12  13
ENDBRANCH  11  12
ENDBRANCH  10  11
ENDBRANCH   9  10
ENDBRANCH   1   9
TORSDOF 11
ENDMDL
MODEL 4
REMARK VINA RESULT:      -4.2      8.709     10.471
REMARK  11 active torsions:
REMARK  status: ('A' for Active; 'I' for Inactive)
REMARK    1  A    between atoms: N_1  and  C_2 
REMARK    2  A    between atoms: N_1  and  C_4 
REMARK    3  A    between atoms: C_2  and  O_3 
REMARK    4  A    between atoms: C_4  and  C_5 
REMARK    5  A    between atoms: C_5  and  C_6 
REMARK    6  A    between atoms: C_6  and  C_7 
REMARK    7  A    between atoms: C_7  and  C_8 
REMARK    8  A    between atoms: C_8  and  C_9 
REMARK    9  A    between atoms: C_9  and  C_10 
REMARK   10  A    between atoms: C_10  and  C_11 
REMARK   11  A    between atoms: C_11  and  O_12 
ROOT
HETATM    1  C   UNK N   1      21.419  12.892   8.752  0.00  0.00     0.002 C 
ENDROOT
BRANCH   1   2
HETATM    2  C   UNK N   1      21.531  13.053  10.247  0.00  0.00     0.019 C 
BRANCH   2   3
HETATM    3  C   UNK N   1      22.622  12.158  10.783  0.00  0.00     0.115 C 
BRANCH   3   4
HETATM    4  N   UNK N   1      22.192  11.627  12.060  0.00  0.00    -0.402 N 
HETATM    5  H   UNK N   1      21.328  11.116  12.245  0.00  0.00     0.155 HD
BRANCH   4   6
HETATM    6  C   UNK N   1      23.220  11.956  13.028  0.00  0.00     0.282 C 
BRANCH   6   7
HETATM    7  O   UNK N   1      24.382  12.322  12.355  0.00  0.00    -0.383 OA
HETATM    8  H   UNK N   1      24.519  12.042  11.436  0.00  0.00     0.211 HD
ENDBRANCH   6   7
ENDBRANCH   4   6
ENDBRANCH   3   4
ENDBRANCH   2   3
ENDBRANCH   1   2
BRANCH   1   9
HETATM    9  C   UNK N   1      21.201  14.258   8.147  0.00  0.00     0.000 C 
BRANCH   9  10
HETATM   10  C   UNK N   1      20.537  15.149   9.166  0.00  0.00     0.000 C 
BRANCH  10  11
HETATM   11  C   UNK N   1      20.345  16.523   8.571  0.00  0.00     0.002 C 
BRANCH  11  12
HETATM   12  C   UNK N   1      20.588  16.437   7.082  0.00  0.00     0.026 C 
BRANCH  12  13
HETATM   13  C   UNK N   1      21.261  17.702   6.604  0.00  0.00     0.164 C 
BRANCH  13  14
HETATM   14  O   UNK N   1      20.810  18.775   7.370  0.00  0.00    -0.401 OA
HETATM   15  H   UNK N   1      20.936  19.684   7.054  0.00  0.00     0.209 HD
ENDBRANCH  13  14
ENDBRANCH  12  13
ENDBRANCH  11  12
ENDBRANCH  10  11
ENDBRANCH   9  10
ENDBRANCH   1   9
TORSDOF 11
ENDMDL
MODEL 5
REMARK VINA RESULT:      -4.1      8.076      8.830
REMARK  11 active torsions:
REMARK  status: ('A' for Active; 'I' for Inactive)
REMARK    1  A    between atoms: N_1  and  C_2 
REMARK    2  A    between atoms: N_1  and  C_4 
REMARK    3  A    between atoms: C_2  and  O_3 
REMARK    4  A    between atoms: C_4  and  C_5 
REMARK    5  A    between atoms: C_5  and  C_6 
REMARK    6  A    between atoms: C_6  and  C_7 
REMARK    7  A    between atoms: C_7  and  C_8 
REMARK    8  A    between atoms: C_8  and  C_9 
REMARK    9  A    between atoms: C_9  and  C_10 
REMARK   10  A    between atoms: C_10  and  C_11 
REMARK   11  A    between atoms: C_11  and  O_12 
ROOT
HETATM    1  C   UNK N   1      20.246  15.320   8.940  0.00  0.00     0.002 C 
ENDROOT
BRANCH   1   2
HETATM    2  C   UNK N   1      21.371  15.190   7.944  0.00  0.00     0.019 C 
BRANCH   2   3
HETATM    3  C   UNK N   1      21.049  15.975   6.695  0.00  0.00     0.115 C 
BRANCH   3   4
HETATM    4  N   UNK N   1      22.218  16.747   6.327  0.00  0.00    -0.402 N 
HETATM    5  H   UNK N   1      23.182  16.415   6.305  0.00  0.00     0.155 HD
BRANCH   4   6
HETATM    6  C   UNK N   1      21.761  18.082   5.993  0.00  0.00     0.282 C 
BRANCH   6   7
HETATM    7  O   UNK N   1      21.122  18.637   7.099  0.00  0.00    -0.383 OA
HETATM    8  H   UNK N   1      20.485  18.109   7.606  0.00  0.00     0.211 HD
ENDBRANCH   6   7
ENDBRANCH   4   6
ENDBRANCH   3   4
ENDBRANCH   2   3
ENDBRANCH   1   2
BRANCH   1   9
HETATM    9  C   UNK N   1      20.248  14.090   9.814  0.00  0.00     0.000 C 
BRANCH   9  10
HETATM   10  C   UNK N   1      21.663  13.588   9.958  0.00  0.00     0.000 C 
BRANCH  10  11
HETATM   11  C   UNK N   1      21.638  12.201  10.556  0.00  0.00     0.002 C 
BRANCH  11  12
HETATM   12  C   UNK N   1      23.045  11.652  10.542  0.00  0.00     0.026 C 
BRANCH  12  13
HETATM   13  C   UNK N   1      23.736  11.994  11.841  0.00  0.00     0.164 C 
BRANCH  13  14
HETATM   14  O   UNK N   1      25.047  12.382  11.571  0.00  0.00    -0.401 OA
HETATM   15  H   UNK N   1      25.490  12.067  10.767  0.00  0.00     0.209 HD
ENDBRANCH  13  14
ENDBRANCH  12  13
ENDBRANCH  11  12
ENDBRANCH  10  11
ENDBRANCH   9  10
ENDBRANCH   1   9
TORSDOF 11
ENDMDL
MODEL 6
REMARK VINA RESULT:      -4.1      8.628     11.776
REMARK  11 active torsions:
REMARK  status: ('A' for Active; 'I' for Inactive)
REMARK    1  A    between atoms: N_1  and  C_2 
REMARK    2  A    between atoms: N_1  and  C_4 
REMARK    3  A    between atoms: C_2  and  O_3 
REMARK    4  A    between atoms: C_4  and  C_5 
REMARK    5  A    between atoms: C_5  and  C_6 
REMARK    6  A    between atoms: C_6  and  C_7 
REMARK    7  A    between atoms: C_7  and  C_8 
REMARK    8  A    between atoms: C_8  and  C_9 
REMARK    9  A    between atoms: C_9  and  C_10 
REMARK   10  A    between atoms: C_10  and  C_11 
REMARK   11  A    between atoms: C_11  and  O_12 
ROOT
HETATM    1  C   UNK N   1      32.595  16.424   8.274  0.00  0.00     0.002 C 
ENDROOT
BRANCH   1   2
HETATM    2  C   UNK N   1      33.549  15.285   8.016  0.00  0.00     0.019 C 
BRANCH   2   3
HETATM    3  C   UNK N   1      34.674  15.314   9.022  0.00  0.00     0.115 C 
BRANCH   3   4
HETATM    4  N   UNK N   1      34.166  15.865  10.261  0.00  0.00    -0.402 N 
HETATM    5  H   UNK N   1      33.208  15.802  10.606  0.00  0.00     0.155 HD
BRANCH   4   6
HETATM    6  C   UNK N   1      35.275  16.525  10.922  0.00  0.00     0.282 C 
BRANCH   6   7
HETATM    7  O   UNK N   1      35.630  17.660  10.199  0.00  0.00    -0.383 OA
HETATM    8  H   UNK N   1      35.343  17.757   9.277  0.00  0.00     0.211 HD
ENDBRANCH   6   7
ENDBRANCH   4   6
ENDBRANCH   3   4
ENDBRANCH   2   3
ENDBRANCH   1   2
BRANCH   1   9
HETATM    9  C   UNK N   1      31.492  16.354   7.246  0.00  0.00     0.000 C 
BRANCH   9  10
HETATM   10  C   UNK N   1      30.420  17.353   7.602  0.00  0.00     0.000 C 
BRANCH  10  11
HETATM   11  C   UNK N   1      30.891  18.190   8.768  0.00  0.00     0.002 C 
BRANCH  11  12
HETATM   12  C   UNK N   1      29.690  18.557   9.607  0.00  0.00     0.026 C 
BRANCH  12  13
HETATM   13  C   UNK N   1      28.461  18.627   8.731  0.00  0.00     0.164 C 
BRANCH  13  14
HETATM   14  O   UNK N   1      27.384  18.064   9.413  0.00  0.00    -0.401 OA
HETATM   15  H   UNK N   1      27.420  17.962  10.377  0.00  0.00     0.209 HD
ENDBRANCH  13  14
ENDBRANCH  12  13
ENDBRANCH  11  12
ENDBRANCH  10  11
ENDBRANCH   9  10
ENDBRANCH   1   9
TORSDOF 11
ENDMDL
MODEL 7
REMARK VINA RESULT:      -4.1      7.038      9.374
REMARK  11 active torsions:
REMARK  status: ('A' for Active; 'I' for Inactive)
REMARK    1  A    between atoms: N_1  and  C_2 
REMARK    2  A    between atoms: N_1  and  C_4 
REMARK    3  A    between atoms: C_2  and  O_3 
REMARK    4  A    between atoms: C_4  and  C_5 
REMARK    5  A    between atoms: C_5  and  C_6 
REMARK    6  A    between atoms: C_6  and  C_7 
REMARK    7  A    between atoms: C_7  and  C_8 
REMARK    8  A    between atoms: C_8  and  C_9 
REMARK    9  A    between atoms: C_9  and  C_10 
REMARK   10  A    between atoms: C_10  and  C_11 
REMARK   11  A    between atoms: C_11  and  O_12 
ROOT
HETATM    1  C   UNK N   1      30.988  17.258   8.620  0.00  0.00     0.002 C 
ENDROOT
BRANCH   1   2
HETATM    2  C   UNK N   1      30.004  18.379   8.845  0.00  0.00     0.019 C 
BRANCH   2   3
HETATM    3  C   UNK N   1      28.814  17.875   9.625  0.00  0.00     0.115 C 
BRANCH   3   4
HETATM    4  N   UNK N   1      27.609  18.370   8.993  0.00  0.00    -0.402 N 
HETATM    5  H   UNK N   1      26.651  18.213   9.306  0.00  0.00     0.155 HD
BRANCH   4   6
HETATM    6  C   UNK N   1      28.019  19.133   7.830  0.00  0.00     0.282 C 
BRANCH   6   7
HETATM    7  O   UNK N   1      26.994  20.004   7.470  0.00  0.00    -0.383 OA
HETATM    8  H   UNK N   1      27.197  20.930   7.261  0.00  0.00     0.211 HD
ENDBRANCH   6   7
ENDBRANCH   4   6
ENDBRANCH   3   4
ENDBRANCH   2   3
ENDBRANCH   1   2
BRANCH   1   9
HETATM    9  C   UNK N   1      31.291  17.188   7.143  0.00  0.00     0.000 C 
BRANCH   9  10
HETATM   10  C   UNK N   1      32.773  17.367   6.934  0.00  0.00     0.000 C 
BRANCH  10  11
HETATM   11  C   UNK N   1      33.307  18.326   7.970  0.00  0.00     0.002 C 
BRANCH  11  12
HETATM   12  C   UNK N   1      34.721  17.919   8.312  0.00  0.00     0.026 C 
BRANCH  12  13
HETATM   13  C   UNK N   1      34.702  16.932   9.457  0.00  0.00     0.164 C 
BRANCH  13  14
HETATM   14  O   UNK N   1      35.603  17.351  10.433  0.00  0.00    -0.401 OA
HETATM   15  H   UNK N   1      35.980  16.707  11.053  0.00  0.00     0.209 HD
ENDBRANCH  13  14
ENDBRANCH  12  13
ENDBRANCH  11  12
ENDBRANCH  10  11
ENDBRANCH   9  10
ENDBRANCH   1   9
TORSDOF 11
ENDMDL
MODEL 8
REMARK VINA RESULT:      -4.1     15.751     18.429
REMARK  11 active torsions:
REMARK  status: ('A' for Active; 'I' for Inactive)
REMARK    1  A    between atoms: N_1  and  C_2 
REMARK    2  A    between atoms: N_1  and  C_4 
REMARK    3  A    between atoms: C_2  and  O_3 
REMARK    4  A    between atoms: C_4  and  C_5 
REMARK    5  A    between atoms: C_5  and  C_6 
REMARK    6  A    between atoms: C_6  and  C_7 
REMARK    7  A    between atoms: C_7  and  C_8 
REMARK    8  A    between atoms: C_8  and  C_9 
REMARK    9  A    between atoms: C_9  and  C_10 
REMARK   10  A    between atoms: C_10  and  C_11 
REMARK   11  A    between atoms: C_11  and  O_12 
ROOT
HETATM    1  C   UNK N   1      36.210  12.100  14.398  0.00  0.00     0.002 C 
ENDROOT
BRANCH   1   2
HETATM    2  C   UNK N   1      35.402  12.991  13.487  0.00  0.00     0.019 C 
BRANCH   2   3
HETATM    3  C   UNK N   1      36.312  13.684  12.502  0.00  0.00     0.115 C 
BRANCH   3   4
HETATM    4  N   UNK N   1      36.288  15.105  12.780  0.00  0.00    -0.402 N 
HETATM    5  H   UNK N   1      36.514  15.554  13.668  0.00  0.00     0.155 HD
BRANCH   4   6
HETATM    6  C   UNK N   1      35.884  15.773  11.558  0.00  0.00     0.282 C 
BRANCH   6   7
HETATM    7  O   UNK N   1      37.015  16.067  10.801  0.00  0.00    -0.383 OA
HETATM    8  H   UNK N   1      36.918  16.458   9.918  0.00  0.00     0.211 HD
ENDBRANCH   6   7
ENDBRANCH   4   6
ENDBRANCH   3   4
ENDBRANCH   2   3
ENDBRANCH   1   2
BRANCH   1   9
HETATM    9  C   UNK N   1      36.344  12.792  15.732  0.00  0.00     0.000 C 
BRANCH   9  10
HETATM   10  C   UNK N   1      34.970  13.065  16.288  0.00  0.00     0.000 C 
BRANCH  10  11
HETATM   11  C   UNK N   1      35.045  13.110  17.796  0.00  0.00     0.002 C 
BRANCH  11  12
HETATM   12  C   UNK N   1      35.400  11.729  18.297  0.00  0.00     0.026 C 
BRANCH  12  13
HETATM   13  C   UNK N   1      35.228  11.674  19.797  0.00  0.00     0.164 C 
BRANCH  13  14
HETATM   14  O   UNK N   1      35.838  12.789  20.366  0.00  0.00    -0.401 OA
HETATM   15  H   UNK N   1      36.778  12.759  20.605  0.00  0.00     0.209 HD
ENDBRANCH  13  14
ENDBRANCH  12  13
ENDBRANCH  11  12
ENDBRANCH  10  11
ENDBRANCH   9  10
ENDBRANCH   1   9
TORSDOF 11
ENDMDL
MODEL 9
REMARK VINA RESULT:      -4.0     14.785     17.437
REMARK  11 active torsions:
REMARK  status: ('A' for Active; 'I' for Inactive)
REMARK    1  A    between atoms: N_1  and  C_2 
REMARK    2  A    between atoms: N_1  and  C_4 
REMARK    3  A    between atoms: C_2  and  O_3 
REMARK    4  A    between atoms: C_4  and  C_5 
REMARK    5  A    between atoms: C_5  and  C_6 
REMARK    6  A    between atoms: C_6  and  C_7 
REMARK    7  A    between atoms: C_7  and  C_8 
REMARK    8  A    between atoms: C_8  and  C_9 
REMARK    9  A    between atoms: C_9  and  C_10 
REMARK   10  A    between atoms: C_10  and  C_11 
REMARK   11  A    between atoms: C_11  and  O_12 
ROOT
HETATM    1  C   UNK N   1      36.795  13.368  14.947  0.00  0.00     0.002 C 
ENDROOT
BRANCH   1   2
HETATM    2  C   UNK N   1      36.031  14.064  13.849  0.00  0.00     0.019 C 
BRANCH   2   3
HETATM    3  C   UNK N   1      36.100  13.254  12.577  0.00  0.00     0.115 C 
BRANCH   3   4
HETATM    4  N   UNK N   1      34.753  13.060  12.084  0.00  0.00    -0.402 N 
HETATM    5  H   UNK N   1      34.060  12.408  12.453  0.00  0.00     0.155 HD
BRANCH   4   6
HETATM    6  C   UNK N   1      34.571  13.966  10.966  0.00  0.00     0.282 C 
BRANCH   6   7
HETATM    7  O   UNK N   1      33.621  14.926  11.304  0.00  0.00    -0.383 OA
HETATM    8  H   UNK N   1      32.695  14.804  11.043  0.00  0.00     0.211 HD
ENDBRANCH   6   7
ENDBRANCH   4   6
ENDBRANCH   3   4
ENDBRANCH   2   3
ENDBRANCH   1   2
BRANCH   1   9
HETATM    9  C   UNK N   1      35.969  13.436  16.209  0.00  0.00     0.000 C 
BRANCH   9  10
HETATM   10  C   UNK N   1      34.750  12.564  16.048  0.00  0.00     0.000 C 
BRANCH  10  11
HETATM   11  C   UNK N   1      35.114  11.137  16.379  0.00  0.00     0.002 C 
BRANCH  11  12
HETATM   12  C   UNK N   1      34.684  10.256  15.229  0.00  0.00     0.026 C 
BRANCH  12  13
HETATM   13  C   UNK N   1      33.423  10.811  14.609  0.00  0.00     0.164 C 
BRANCH  13  14
HETATM   14  O   UNK N   1      33.472  10.620  13.230  0.00  0.00    -0.401 OA
HETATM   15  H   UNK N   1      33.736  11.350  12.648  0.00  0.00     0.209 HD
ENDBRANCH  13  14
ENDBRANCH  12  13
ENDBRANCH  11  12
ENDBRANCH  10  11
ENDBRANCH   9  10
ENDBRANCH   1   9
TORSDOF 11
ENDMDL
