MODEL 1
REMARK VINA RESULT:      -5.4      0.000      0.000
REMARK  16 active torsions:
REMARK  status: ('A' for Active; 'I' for Inactive)
REMARK    1  A    between atoms: P_1  and  O_2 
REMARK    2  A    between atoms: P_1  and  O_3 
REMARK    3  A    between atoms: P_1  and  O_4 
REMARK    4  A    between atoms: P_1  and  O_5 
REMARK    5  A    between atoms: P_1  and  O_6 
REMARK    6  A    between atoms: O_4  and  C_7 
REMARK    7  A    between atoms: C_7  and  C_8 
REMARK    8  A    between atoms: C_8  and  C_9 
REMARK    9  A    between atoms: C_8  and  O_16 
REMARK   10  A    between atoms: C_9  and  O_10 
REMARK   11  A    between atoms: O_10  and  C_11 
REMARK   12  A    between atoms: C_11  and  C_13 
REMARK   13  A    between atoms: C_13  and  C_14 
REMARK   14  A    between atoms: O_16  and  C_17 
REMARK   15  A    between atoms: C_17  and  C_18 
REMARK   16  A    between atoms: C_18  and  C_19 
ROOT
HETATM    1  C   UNK N   1      22.364  17.831   5.193  0.00  0.00     0.180 C 
ENDROOT
BRANCH   1   2
HETATM    2  C   UNK N   1      21.755  17.518   3.831  0.00  0.00     0.216 C 
BRANCH   2   3
HETATM    3  O   UNK N   1      20.414  17.928   3.809  0.00  0.00    -0.289 OA
BRANCH   3   4
HETATM    4  P   UNK N   1      20.121  19.114   2.548  0.00  0.00     0.399 P 
BRANCH   4   5
HETATM    5  O   UNK N   1      21.202  20.136   1.631  0.00  0.00    -0.302 OA
HETATM    6  H   UNK N   1      20.949  20.437   0.743  0.00  0.00     0.223 HD
ENDBRANCH   4   5
BRANCH   4   7
HETATM    7  O   UNK N   1      20.364  20.315   3.790  0.00  0.00    -0.302 OA
HETATM    8  H   UNK N   1      21.193  20.732   4.073  0.00  0.00     0.223 HD
ENDBRANCH   4   7
BRANCH   4   9
HETATM    9  O   UNK N   1      20.138  18.139   1.103  0.00  0.00    -0.302 OA
HETATM   10  H   UNK N   1      20.895  17.899   0.545  0.00  0.00     0.223 HD
ENDBRANCH   4   9
BRANCH   4  11
HETATM   11  O   UNK N   1      18.396  18.964   2.500  0.00  0.00    -0.302 OA
HETATM   12  H   UNK N   1      17.822  18.205   2.691  0.00  0.00     0.223 HD
ENDBRANCH   4  11
ENDBRANCH   3   4
ENDBRANCH   2   3
ENDBRANCH   1   2
BRANCH   1  13
HETATM   13  C   UNK N   1      23.745  18.469   5.054  0.00  0.00     0.213 C 
BRANCH  13  14
HETATM   14  O   UNK N   1      24.107  18.762   3.756  0.00  0.00    -0.319 OA
BRANCH  14  15
HETATM   15  C   UNK N   1      24.314  20.040   3.343  0.00  0.00     0.258 C 
HETATM   16  O   UNK N   1      23.377  20.822   3.323  0.00  0.00    -0.265 OA
BRANCH  15  17
HETATM   17  C   UNK N   1      25.669  20.488   2.859  0.00  0.00     0.111 C 
BRANCH  17  18
HETATM   18  C   UNK N   1      26.795  20.009   3.756  0.00  0.00     0.005 C 
HETATM   19  C   UNK N   1      26.741  20.718   5.094  0.00  0.00     0.005 C 
ENDBRANCH  17  18
ENDBRANCH  15  17
ENDBRANCH  14  15
ENDBRANCH  13  14
ENDBRANCH   1  13
BRANCH   1  20
HETATM   20  O   UNK N   1      21.491  18.622   5.927  0.00  0.00    -0.312 OA
BRANCH  20  21
HETATM   21  C   UNK N   1      20.832  18.187   7.041  0.00  0.00     0.259 C 
HETATM   22  O   UNK N   1      20.584  18.957   7.959  0.00  0.00    -0.265 OA
BRANCH  21  23
HETATM   23  C   UNK N   1      20.454  16.737   7.154  0.00  0.00     0.111 C 
BRANCH  23  24
HETATM   24  C   UNK N   1      20.499  16.244   8.596  0.00  0.00     0.005 C 
HETATM   25  C   UNK N   1      21.203  14.907   8.668  0.00  0.00     0.005 C 
ENDBRANCH  23  24
ENDBRANCH  21  23
ENDBRANCH  20  21
ENDBRANCH   1  20
TORSDOF 16
ENDMDL
MODEL 2
REMARK VINA RESULT:      -5.2      1.500      5.313
REMARK  16 active torsions:
REMARK  status: ('A' for Active; 'I' for Inactive)
REMARK    1  A    between atoms: P_1  and  O_2 
REMARK    2  A    between atoms: P_1  and  O_3 
REMARK    3  A    between atoms: P_1  and  O_4 
REMARK    4  A    between atoms: P_1  and  O_5 
REMARK    5  A    between atoms: P_1  and  O_6 
REMARK    6  A    between atoms: O_4  and  C_7 
REMARK    7  A    between atoms: C_7  and  C_8 
REMARK    8  A    between atoms: C_8  and  C_9 
REMARK    9  A    between atoms: C_8  and  O_16 
REMARK   10  A    between atoms: C_9  and  O_10 
REMARK   11  A    between atoms: O_10  and  C_11 
REMARK   12  A    between atoms: C_11  and  C_13 
REMARK   13  A    between atoms: C_13  and  C_14 
REMARK   14  A    between atoms: O_16  and  C_17 
REMARK   15  A    between atoms: C_17  and  C_18 
REMARK   16  A    between atoms: C_18  and  C_19 
ROOT
HETATM    1  C   UNK N   1      24.029  19.556   3.769  0.00  0.00     0.180 C 
ENDROOT
BRANCH   1   2
HETATM    2  C   UNK N   1      23.074  20.371   2.904  0.00  0.00     0.216 C 
BRANCH   2   3
HETATM    3  O   UNK N   1      22.084  19.530   2.374  0.00  0.00    -0.289 OA
BRANCH   3   4
HETATM    4  P   UNK N   1      20.730  20.447   1.736  0.00  0.00     0.399 P 
BRANCH   4   5
HETATM    5  O   UNK N   1      20.635  22.029   0.997  0.00  0.00    -0.302 OA
HETATM    6  H   UNK N   1      19.810  22.319   0.576  0.00  0.00     0.223 HD
ENDBRANCH   4   5
BRANCH   4   7
HETATM    7  O   UNK N   1      20.812  21.366   3.216  0.00  0.00    -0.302 OA
HETATM    8  H   UNK N   1      20.090  21.796   3.701  0.00  0.00     0.223 HD
ENDBRANCH   4   7
BRANCH   4   9
HETATM    9  O   UNK N   1      20.644  19.891   0.085  0.00  0.00    -0.302 OA
HETATM   10  H   UNK N   1      21.268  19.324  -0.394  0.00  0.00     0.223 HD
ENDBRANCH   4   9
BRANCH   4  11
HETATM   11  O   UNK N   1      19.494  19.285   2.079  0.00  0.00    -0.302 OA
HETATM   12  H   UNK N   1      19.514  18.484   2.626  0.00  0.00     0.223 HD
ENDBRANCH   4  11
ENDBRANCH   3   4
ENDBRANCH   2   3
ENDBRANCH   1   2
BRANCH   1  13
HETATM   13  C   UNK N   1      23.408  18.223   4.183  0.00  0.00     0.213 C 
BRANCH  13  14
HETATM   14  O   UNK N   1      22.876  18.215   5.455  0.00  0.00    -0.319 OA
BRANCH  14  15
HETATM   15  C   UNK N   1      21.535  18.274   5.670  0.00  0.00     0.258 C 
HETATM   16  O   UNK N   1      20.955  19.340   5.539  0.00  0.00    -0.265 OA
BRANCH  15  17
HETATM   17  C   UNK N   1      20.768  17.058   6.118  0.00  0.00     0.111 C 
BRANCH  17  18
HETATM   18  C   UNK N   1      21.525  16.239   7.148  0.00  0.00     0.005 C 
HETATM   19  C   UNK N   1      22.014  14.942   6.534  0.00  0.00     0.005 C 
ENDBRANCH  17  18
ENDBRANCH  15  17
ENDBRANCH  14  15
ENDBRANCH  13  14
ENDBRANCH   1  13
BRANCH   1  20
HETATM   20  O   UNK N   1      25.237  19.389   3.106  0.00  0.00    -0.312 OA
BRANCH  20  21
HETATM   21  C   UNK N   1      26.262  20.289   3.167  0.00  0.00     0.259 C 
HETATM   22  O   UNK N   1      26.283  21.261   2.424  0.00  0.00    -0.265 OA
BRANCH  21  23
HETATM   23  C   UNK N   1      27.396  20.050   4.124  0.00  0.00     0.111 C 
BRANCH  23  24
HETATM   24  C   UNK N   1      26.946  20.140   5.578  0.00  0.00     0.005 C 
HETATM   25  C   UNK N   1      27.096  21.558   6.084  0.00  0.00     0.005 C 
ENDBRANCH  23  24
ENDBRANCH  21  23
ENDBRANCH  20  21
ENDBRANCH   1  20
TORSDOF 16
ENDMDL
MODEL 3
REMARK VINA RESULT:      -5.1      9.888     12.906
REMARK  16 active torsions:
REMARK  status: ('A' for Active; 'I' for Inactive)
REMARK    1  A    between atoms: P_1  and  O_2 
REMARK    2  A    between atoms: P_1  and  O_3 
REMARK    3  A    between atoms: P_1  and  O_4 
REMARK    4  A    between atoms: P_1  and  O_5 
REMARK    5  A    between atoms: P_1  and  O_6 
REMARK    6  A    between atoms: O_4  and  C_7 
REMARK    7  A    between atoms: C_7  and  C_8 
REMARK    8  A    between atoms: C_8  and  C_9 
REMARK    9  A    between atoms: C_8  and  O_16 
REMARK   10  A    between atoms: C_9  and  O_10 
REMARK   11  A    between atoms: O_10  and  C_11 
REMARK   12  A    between atoms: C_11  and  C_13 
REMARK   13  A    between atoms: C_13  and  C_14 
REMARK   14  A    between atoms: O_16  and  C_17 
REMARK   15  A    between atoms: C_17  and  C_18 
REMARK   16  A    between atoms: C_18  and  C_19 
ROOT
HETATM    1  C   UNK N   1      32.377  16.026   8.324  0.00  0.00     0.180 C 
ENDROOT
BRANCH   1   2
HETATM    2  C   UNK N   1      33.125  14.993   9.159  0.00  0.00     0.216 C 
BRANCH   2   3
HETATM    3  O   UNK N   1      34.494  15.302   9.176  0.00  0.00    -0.289 OA
BRANCH   3   4
HETATM    4  P   UNK N   1      35.098  15.471  10.816  0.00  0.00     0.399 P 
BRANCH   4   5
HETATM    5  O   UNK N   1      35.643  14.295  11.988  0.00  0.00    -0.302 OA
HETATM    6  H   UNK N   1      35.018  13.649  12.354  0.00  0.00     0.223 HD
ENDBRANCH   4   5
BRANCH   4   7
HETATM    7  O   UNK N   1      33.514  14.946  11.325  0.00  0.00    -0.302 OA
HETATM    8  H   UNK N   1      33.120  14.986  12.210  0.00  0.00     0.223 HD
ENDBRANCH   4   7
BRANCH   4   9
HETATM    9  O   UNK N   1      36.806  15.716  10.564  0.00  0.00    -0.302 OA
HETATM   10  H   UNK N   1      37.308  16.546  10.592  0.00  0.00     0.223 HD
ENDBRANCH   4   9
BRANCH   4  11
HETATM   11  O   UNK N   1      34.976  17.196  10.919  0.00  0.00    -0.302 OA
HETATM   12  H   UNK N   1      34.757  17.855  10.242  0.00  0.00     0.223 HD
ENDBRANCH   4  11
ENDBRANCH   3   4
ENDBRANCH   2   3
ENDBRANCH   1   2
BRANCH   1  13
HETATM   13  C   UNK N   1      31.210  16.632   9.100  0.00  0.00     0.213 C 
BRANCH  13  14
HETATM   14  O   UNK N   1      30.781  17.852   8.620  0.00  0.00    -0.319 OA
BRANCH  14  15
HETATM   15  C   UNK N   1      29.658  18.452   9.096  0.00  0.00     0.258 C 
HETATM   16  O   UNK N   1      29.593  18.751  10.278  0.00  0.00    -0.265 OA
BRANCH  15  17
HETATM   17  C   UNK N   1      28.475  18.703   8.198  0.00  0.00     0.111 C 
BRANCH  17  18
HETATM   18  C   UNK N   1      28.291  17.612   7.158  0.00  0.00     0.005 C 
HETATM   19  C   UNK N   1      28.688  18.120   5.786  0.00  0.00     0.005 C 
ENDBRANCH  17  18
ENDBRANCH  15  17
ENDBRANCH  14  15
ENDBRANCH  13  14
ENDBRANCH   1  13
BRANCH   1  20
HETATM   20  O   UNK N   1      33.264  16.992   7.868  0.00  0.00    -0.312 OA
BRANCH  20  21
HETATM   21  C   UNK N   1      33.419  17.313   6.551  0.00  0.00     0.259 C 
HETATM   22  O   UNK N   1      34.397  17.947   6.175  0.00  0.00    -0.265 OA
BRANCH  21  23
HETATM   23  C   UNK N   1      32.353  16.923   5.566  0.00  0.00     0.111 C 
BRANCH  23  24
HETATM   24  C   UNK N   1      32.518  17.637   4.230  0.00  0.00     0.005 C 
HETATM   25  C   UNK N   1      32.925  16.649   3.157  0.00  0.00     0.005 C 
ENDBRANCH  23  24
ENDBRANCH  21  23
ENDBRANCH  20  21
ENDBRANCH   1  20
TORSDOF 16
ENDMDL
MODEL 4
REMARK VINA RESULT:      -5.0      2.428      5.507
REMARK  16 active torsions:
REMARK  status: ('A' for Active; 'I' for Inactive)
REMARK    1  A    between atoms: P_1  and  O_2 
REMARK    2  A    between atoms: P_1  and  O_3 
REMARK    3  A    between atoms: P_1  and  O_4 
REMARK    4  A    between atoms: P_1  and  O_5 
REMARK    5  A    between atoms: P_1  and  O_6 
REMARK    6  A    between atoms: O_4  and  C_7 
REMARK    7  A    between atoms: C_7  and  C_8 
REMARK    8  A    between atoms: C_8  and  C_9 
REMARK    9  A    between atoms: C_8  and  O_16 
REMARK   10  A    between atoms: C_9  and  O_10 
REMARK   11  A    between atoms: O_10  and  C_11 
REMARK   12  A    between atoms: C_11  and  C_13 
REMARK   13  A    between atoms: C_13  and  C_14 
REMARK   14  A    between atoms: O_16  and  C_17 
REMARK   15  A    between atoms: C_17  and  C_18 
REMARK   16  A    between atoms: C_18  and  C_19 
ROOT
HETATM    1  C   UNK N   1      21.780  17.606   3.797  0.00  0.00     0.180 C 
ENDROOT
BRANCH   1   2
HETATM    2  C   UNK N   1      21.656  19.123   3.717  0.00  0.00     0.216 C 
BRANCH   2   3
HETATM    3  O   UNK N   1      21.988  19.556   2.424  0.00  0.00    -0.289 OA
BRANCH   3   4
HETATM    4  P   UNK N   1      20.693  20.497   1.705  0.00  0.00     0.399 P 
BRANCH   4   5
HETATM    5  O   UNK N   1      20.693  22.010   0.830  0.00  0.00    -0.302 OA
HETATM    6  H   UNK N   1      21.029  22.045  -0.080  0.00  0.00     0.223 HD
ENDBRANCH   4   5
BRANCH   4   7
HETATM    7  O   UNK N   1      20.835  21.535   3.100  0.00  0.00    -0.302 OA
HETATM    8  H   UNK N   1      20.483  22.430   3.225  0.00  0.00     0.223 HD
ENDBRANCH   4   7
BRANCH   4   9
HETATM    9  O   UNK N   1      20.567  19.805   0.109  0.00  0.00    -0.302 OA
HETATM   10  H   UNK N   1      21.276  19.466  -0.460  0.00  0.00     0.223 HD
ENDBRANCH   4   9
BRANCH   4  11
HETATM   11  O   UNK N   1      19.387  19.448   2.146  0.00  0.00    -0.302 OA
HETATM   12  H   UNK N   1      18.507  19.649   2.500  0.00  0.00     0.223 HD
ENDBRANCH   4  11
ENDBRANCH   3   4
ENDBRANCH   2   3
ENDBRANCH   1   2
BRANCH   1  13
HETATM   13  C   UNK N   1      22.032  17.141   5.230  0.00  0.00     0.213 C 
BRANCH  13  14
HETATM   14  O   UNK N   1      20.886  16.877   5.951  0.00  0.00    -0.319 OA
BRANCH  14  15
HETATM   15  C   UNK N   1      20.934  16.506   7.258  0.00  0.00     0.258 C 
HETATM   16  O   UNK N   1      20.683  17.330   8.123  0.00  0.00    -0.265 OA
BRANCH  15  17
HETATM   17  C   UNK N   1      21.345  15.112   7.653  0.00  0.00     0.111 C 
BRANCH  17  18
HETATM   18  C   UNK N   1      20.490  14.549   8.774  0.00  0.00     0.005 C 
HETATM   19  C   UNK N   1      21.361  13.857   9.803  0.00  0.00     0.005 C 
ENDBRANCH  17  18
ENDBRANCH  15  17
ENDBRANCH  14  15
ENDBRANCH  13  14
ENDBRANCH   1  13
BRANCH   1  20
HETATM   20  O   UNK N   1      20.654  17.013   3.242  0.00  0.00    -0.312 OA
BRANCH  20  21
HETATM   21  C   UNK N   1      20.670  16.307   2.074  0.00  0.00     0.259 C 
HETATM   22  O   UNK N   1      20.392  16.850   1.013  0.00  0.00    -0.265 OA
BRANCH  21  23
HETATM   23  C   UNK N   1      20.988  14.839   2.105  0.00  0.00     0.111 C 
BRANCH  23  24
HETATM   24  C   UNK N   1      21.923  14.431   0.972  0.00  0.00     0.005 C 
HETATM   25  C   UNK N   1      23.359  14.443   1.450  0.00  0.00     0.005 C 
ENDBRANCH  23  24
ENDBRANCH  21  23
ENDBRANCH  20  21
ENDBRANCH   1  20
TORSDOF 16
ENDMDL
MODEL 5
REMARK VINA RESULT:      -5.0     11.077     13.844
REMARK  16 active torsions:
REMARK  status: ('A' for Active; 'I' for Inactive)
REMARK    1  A    between atoms: P_1  and  O_2 
REMARK    2  A    between atoms: P_1  and  O_3 
REMARK    3  A    between atoms: P_1  and  O_4 
REMARK    4  A    between atoms: P_1  and  O_5 
REMARK    5  A    between atoms: P_1  and  O_6 
REMARK    6  A    between atoms: O_4  and  C_7 
REMARK    7  A    between atoms: C_7  and  C_8 
REMARK    8  A    between atoms: C_8  and  C_9 
REMARK    9  A    between atoms: C_8  and  O_16 
REMARK   10  A    between atoms: C_9  and  O_10 
REMARK   11  A    between atoms: O_10  and  C_11 
REMARK   12  A    between atoms: C_11  and  C_13 
REMARK   13  A    between atoms: C_13  and  C_14 
REMARK   14  A    between atoms: O_16  and  C_17 
REMARK   15  A    between atoms: C_17  and  C_18 
REMARK   16  A    between atoms: C_18  and  C_19 
ROOT
HETATM    1  C   UNK N   1      35.012  15.271   7.791  0.00  0.00     0.180 C 
ENDROOT
BRANCH   1   2
HETATM    2  C   UNK N   1      35.909  14.572   8.805  0.00  0.00     0.216 C 
BRANCH   2   3
HETATM    3  O   UNK N   1      35.152  14.196   9.925  0.00  0.00    -0.289 OA
BRANCH   3   4
HETATM    4  P   UNK N   1      35.697  15.015  11.379  0.00  0.00     0.399 P 
BRANCH   4   5
HETATM    5  O   UNK N   1      36.753  14.512  12.678  0.00  0.00    -0.302 OA
HETATM    6  H   UNK N   1      36.635  13.642  13.090  0.00  0.00     0.223 HD
ENDBRANCH   4   5
BRANCH   4   7
HETATM    7  O   UNK N   1      34.525  14.038  12.224  0.00  0.00    -0.302 OA
HETATM    8  H   UNK N   1      33.984  13.311  11.879  0.00  0.00     0.223 HD
ENDBRANCH   4   7
BRANCH   4   9
HETATM    9  O   UNK N   1      37.116  15.864  10.823  0.00  0.00    -0.302 OA
HETATM   10  H   UNK N   1      37.190  16.784  10.524  0.00  0.00     0.223 HD
ENDBRANCH   4   9
BRANCH   4  11
HETATM   11  O   UNK N   1      34.843  16.500  11.129  0.00  0.00    -0.302 OA
HETATM   12  H   UNK N   1      35.133  17.338  10.736  0.00  0.00     0.223 HD
ENDBRANCH   4  11
ENDBRANCH   3   4
ENDBRANCH   2   3
ENDBRANCH   1   2
BRANCH   1  13
HETATM   13  C   UNK N   1      33.880  14.358   7.325  0.00  0.00     0.213 C 
BRANCH  13  14
HETATM   14  O   UNK N   1      33.628  14.411   5.970  0.00  0.00    -0.319 OA
BRANCH  14  15
HETATM   15  C   UNK N   1      32.362  14.393   5.477  0.00  0.00     0.258 C 
HETATM   16  O   UNK N   1      31.496  13.772   6.072  0.00  0.00    -0.265 OA
BRANCH  15  17
HETATM   17  C   UNK N   1      32.026  15.083   4.180  0.00  0.00     0.111 C 
BRANCH  17  18
HETATM   18  C   UNK N   1      32.969  16.232   3.871  0.00  0.00     0.005 C 
HETATM   19  C   UNK N   1      32.210  17.543   3.843  0.00  0.00     0.005 C 
ENDBRANCH  17  18
ENDBRANCH  15  17
ENDBRANCH  14  15
ENDBRANCH  13  14
ENDBRANCH   1  13
BRANCH   1  20
HETATM   20  O   UNK N   1      34.540  16.463   8.325  0.00  0.00    -0.312 OA
BRANCH  20  21
HETATM   21  C   UNK N   1      34.034  17.481   7.569  0.00  0.00     0.259 C 
HETATM   22  O   UNK N   1      34.546  17.775   6.497  0.00  0.00    -0.265 OA
BRANCH  21  23
HETATM   23  C   UNK N   1      32.867  18.273   8.087  0.00  0.00     0.111 C 
BRANCH  23  24
HETATM   24  C   UNK N   1      31.690  17.380   8.462  0.00  0.00     0.005 C 
HETATM   25  C   UNK N   1      30.827  17.116   7.246  0.00  0.00     0.005 C 
ENDBRANCH  23  24
ENDBRANCH  21  23
ENDBRANCH  20  21
ENDBRANCH   1  20
TORSDOF 16
ENDMDL
MODEL 6
REMARK VINA RESULT:      -5.0      2.629      5.174
REMARK  16 active torsions:
REMARK  status: ('A' for Active; 'I' for Inactive)
REMARK    1  A    between atoms: P_1  and  O_2 
REMARK    2  A    between atoms: P_1  and  O_3 
REMARK    3  A    between atoms: P_1  and  O_4 
REMARK    4  A    between atoms: P_1  and  O_5 
REMARK    5  A    between atoms: P_1  and  O_6 
REMARK    6  A    between atoms: O_4  and  C_7 
REMARK    7  A    between atoms: C_7  and  C_8 
REMARK    8  A    between atoms: C_8  and  C_9 
REMARK    9  A    between atoms: C_8  and  O_16 
REMARK   10  A    between atoms: C_9  and  O_10 
REMARK   11  A    between atoms: O_10  and  C_11 
REMARK   12  A    between atoms: C_11  and  C_13 
REMARK   13  A    between atoms: C_13  and  C_14 
REMARK   14  A    between atoms: O_16  and  C_17 
REMARK   15  A    between atoms: C_17  and  C_18 
REMARK   16  A    between atoms: C_18  and  C_19 
ROOT
HETATM    1  C   UNK N   1      22.619  18.006   4.146  0.00  0.00     0.180 C 
ENDROOT
BRANCH   1   2
HETATM    2  C   UNK N   1      21.795  19.236   3.785  0.00  0.00     0.216 C 
BRANCH   2   3
HETATM    3  O   UNK N   1      22.082  19.626   2.468  0.00  0.00    -0.289 OA
BRANCH   3   4
HETATM    4  P   UNK N   1      20.721  20.451   1.727  0.00  0.00     0.399 P 
BRANCH   4   5
HETATM    5  O   UNK N   1      20.603  21.964   0.859  0.00  0.00    -0.302 OA
HETATM    6  H   UNK N   1      19.766  22.218   0.438  0.00  0.00     0.223 HD
ENDBRANCH   4   5
BRANCH   4   7
HETATM    7  O   UNK N   1      20.742  21.489   3.128  0.00  0.00    -0.302 OA
HETATM    8  H   UNK N   1      20.877  21.247   4.058  0.00  0.00     0.223 HD
ENDBRANCH   4   7
BRANCH   4   9
HETATM    9  O   UNK N   1      20.689  19.761   0.126  0.00  0.00    -0.302 OA
HETATM   10  H   UNK N   1      20.400  18.874  -0.144  0.00  0.00     0.223 HD
ENDBRANCH   4   9
BRANCH   4  11
HETATM   11  O   UNK N   1      19.507  19.287   2.137  0.00  0.00    -0.302 OA
HETATM   12  H   UNK N   1      18.924  18.756   1.572  0.00  0.00     0.223 HD
ENDBRANCH   4  11
ENDBRANCH   3   4
ENDBRANCH   2   3
ENDBRANCH   1   2
BRANCH   1  13
HETATM   13  C   UNK N   1      21.865  16.716   3.829  0.00  0.00     0.213 C 
BRANCH  13  14
HETATM   14  O   UNK N   1      20.849  16.864   2.908  0.00  0.00    -0.319 OA
BRANCH  14  15
HETATM   15  C   UNK N   1      20.817  16.141   1.757  0.00  0.00     0.258 C 
HETATM   16  O   UNK N   1      20.579  16.706   0.701  0.00  0.00    -0.265 OA
BRANCH  15  17
HETATM   17  C   UNK N   1      21.017  14.648   1.774  0.00  0.00     0.111 C 
BRANCH  17  18
HETATM   18  C   UNK N   1      22.046  14.187   0.758  0.00  0.00     0.005 C 
HETATM   19  C   UNK N   1      23.447  14.388   1.299  0.00  0.00     0.005 C 
ENDBRANCH  17  18
ENDBRANCH  15  17
ENDBRANCH  14  15
ENDBRANCH  13  14
ENDBRANCH   1  13
BRANCH   1  20
HETATM   20  O   UNK N   1      23.852  18.064   3.511  0.00  0.00    -0.312 OA
BRANCH  20  21
HETATM   21  C   UNK N   1      25.008  18.430   4.137  0.00  0.00     0.259 C 
HETATM   22  O   UNK N   1      25.613  17.635   4.844  0.00  0.00    -0.265 OA
BRANCH  21  23
HETATM   23  C   UNK N   1      25.511  19.839   3.990  0.00  0.00     0.111 C 
BRANCH  23  24
HETATM   24  C   UNK N   1      26.092  20.378   5.292  0.00  0.00     0.005 C 
HETATM   25  C   UNK N   1      27.591  20.544   5.165  0.00  0.00     0.005 C 
ENDBRANCH  23  24
ENDBRANCH  21  23
ENDBRANCH  20  21
ENDBRANCH   1  20
TORSDOF 16
ENDMDL
MODEL 7
REMARK VINA RESULT:      -5.0      8.238     10.866
REMARK  16 active torsions:
REMARK  status: ('A' for Active; 'I' for Inactive)
REMARK    1  A    between atoms: P_1  and  O_2 
REMARK    2  A    between atoms: P_1  and  O_3 
REMARK    3  A    between atoms: P_1  and  O_4 
REMARK    4  A    between atoms: P_1  and  O_5 
REMARK    5  A    between atoms: P_1  and  O_6 
REMARK    6  A    between atoms: O_4  and  C_7 
REMARK    7  A    between atoms: C_7  and  C_8 
REMARK    8  A    between atoms: C_8  and  C_9 
REMARK    9  A    between atoms: C_8  and  O_16 
REMARK   10  A    between atoms: C_9  and  O_10 
REMARK   11  A    between atoms: O_10  and  C_11 
REMARK   12  A    between atoms: C_11  and  C_13 
REMARK   13  A    between atoms: C_13  and  C_14 
REMARK   14  A    between atoms: O_16  and  C_17 
REMARK   15  A    between atoms: C_17  and  C_18 
REMARK   16  A    between atoms: C_18  and  C_19 
ROOT
HETATM    1  C   UNK N   1      30.603  17.300   7.467  0.00  0.00     0.180 C 
ENDROOT
BRANCH   1   2
HETATM    2  C   UNK N   1      31.581  17.418   8.630  0.00  0.00     0.216 C 
BRANCH   2   3
HETATM    3  O   UNK N   1      32.521  18.422   8.356  0.00  0.00    -0.289 OA
BRANCH   3   4
HETATM    4  P   UNK N   1      34.133  17.760   8.146  0.00  0.00     0.399 P 
BRANCH   4   5
HETATM    5  O   UNK N   1      34.696  16.141   7.801  0.00  0.00    -0.302 OA
HETATM    6  H   UNK N   1      35.646  15.968   7.703  0.00  0.00     0.223 HD
ENDBRANCH   4   5
BRANCH   4   7
HETATM    7  O   UNK N   1      33.955  17.135   9.765  0.00  0.00    -0.302 OA
HETATM    8  H   UNK N   1      34.611  16.671  10.309  0.00  0.00     0.223 HD
ENDBRANCH   4   7
BRANCH   4   9
HETATM    9  O   UNK N   1      34.424  18.009   6.445  0.00  0.00    -0.302 OA
HETATM   10  H   UNK N   1      34.786  17.384   5.796  0.00  0.00     0.223 HD
ENDBRANCH   4   9
BRANCH   4  11
HETATM   11  O   UNK N   1      35.011  19.230   8.402  0.00  0.00    -0.302 OA
HETATM   12  H   UNK N   1      35.962  19.415   8.351  0.00  0.00     0.223 HD
ENDBRANCH   4  11
ENDBRANCH   3   4
ENDBRANCH   2   3
ENDBRANCH   1   2
BRANCH   1  13
HETATM   13  C   UNK N   1      31.074  16.269   6.443  0.00  0.00     0.213 C 
BRANCH  13  14
HETATM   14  O   UNK N   1      31.884  16.782   5.452  0.00  0.00    -0.319 OA
BRANCH  14  15
HETATM   15  C   UNK N   1      32.543  15.975   4.579  0.00  0.00     0.258 C 
HETATM   16  O   UNK N   1      33.685  15.625   4.831  0.00  0.00    -0.265 OA
BRANCH  15  17
HETATM   17  C   UNK N   1      31.904  15.553   3.281  0.00  0.00     0.111 C 
BRANCH  17  18
HETATM   18  C   UNK N   1      30.881  16.557   2.782  0.00  0.00     0.005 C 
HETATM   19  C   UNK N   1      29.508  15.919   2.710  0.00  0.00     0.005 C 
ENDBRANCH  17  18
ENDBRANCH  15  17
ENDBRANCH  14  15
ENDBRANCH  13  14
ENDBRANCH   1  13
BRANCH   1  20
HETATM   20  O   UNK N   1      29.331  17.019   7.948  0.00  0.00    -0.312 OA
BRANCH  20  21
HETATM   21  C   UNK N   1      28.517  17.953   8.520  0.00  0.00     0.259 C 
HETATM   22  O   UNK N   1      27.882  17.691   9.533  0.00  0.00    -0.265 OA
BRANCH  21  23
HETATM   23  C   UNK N   1      28.366  19.298   7.866  0.00  0.00     0.111 C 
BRANCH  23  24
HETATM   24  C   UNK N   1      27.713  19.197   6.493  0.00  0.00     0.005 C 
HETATM   25  C   UNK N   1      27.492  20.579   5.917  0.00  0.00     0.005 C 
ENDBRANCH  23  24
ENDBRANCH  21  23
ENDBRANCH  20  21
ENDBRANCH   1  20
TORSDOF 16
ENDMDL
MODEL 8
REMARK VINA RESULT:      -4.9     14.041     16.050
REMARK  16 active torsions:
REMARK  status: ('A' for Active; 'I' for Inactive)
REMARK    1  A    between atoms: P_1  and  O_2 
REMARK    2  A    between atoms: P_1  and  O_3 
REMARK    3  A    between atoms: P_1  and  O_4 
REMARK    4  A    between atoms: P_1  and  O_5 
REMARK    5  A    between atoms: P_1  and  O_6 
REMARK    6  A    between atoms: O_4  and  C_7 
REMARK    7  A    between atoms: C_7  and  C_8 
REMARK    8  A    between atoms: C_8  and  C_9 
REMARK    9  A    between atoms: C_8  and  O_16 
REMARK   10  A    between atoms: C_9  and  O_10 
REMARK   11  A    between atoms: O_10  and  C_11 
REMARK   12  A    between atoms: C_11  and  C_13 
REMARK   13  A    between atoms: C_13  and  C_14 
REMARK   14  A    between atoms: O_16  and  C_17 
REMARK   15  A    between atoms: C_17  and  C_18 
REMARK   16  A    between atoms: C_18  and  C_19 
ROOT
HETATM    1  C   UNK N   1      35.023  13.960  11.491  0.00  0.00     0.180 C 
ENDROOT
BRANCH   1   2
HETATM    2  C   UNK N   1      34.915  12.835  10.468  0.00  0.00     0.216 C 
BRANCH   2   3
HETATM    3  O   UNK N   1      36.153  12.183  10.353  0.00  0.00    -0.289 OA
BRANCH   3   4
HETATM    4  P   UNK N   1      37.451  13.316  10.016  0.00  0.00     0.399 P 
BRANCH   4   5
HETATM    5  O   UNK N   1      37.583  15.044  10.241  0.00  0.00    -0.302 OA
HETATM    6  H   UNK N   1      37.811  15.615   9.491  0.00  0.00     0.223 HD
ENDBRANCH   4   5
BRANCH   4   7
HETATM    7  O   UNK N   1      36.525  13.773   8.610  0.00  0.00    -0.302 OA
HETATM    8  H   UNK N   1      36.376  13.268   7.795  0.00  0.00     0.223 HD
ENDBRANCH   4   7
BRANCH   4   9
HETATM    9  O   UNK N   1      38.393  13.254  11.482  0.00  0.00    -0.302 OA
HETATM   10  H   UNK N   1      39.319  13.512  11.616  0.00  0.00     0.223 HD
ENDBRANCH   4   9
BRANCH   4  11
HETATM   11  O   UNK N   1      38.580  12.172   9.371  0.00  0.00    -0.302 OA
HETATM   12  H   UNK N   1      38.520  11.208   9.279  0.00  0.00     0.223 HD
ENDBRANCH   4  11
ENDBRANCH   3   4
ENDBRANCH   2   3
ENDBRANCH   1   2
BRANCH   1  13
HETATM   13  C   UNK N   1      34.185  15.169  11.080  0.00  0.00     0.213 C 
BRANCH  13  14
HETATM   14  O   UNK N   1      34.451  15.641   9.812  0.00  0.00    -0.319 OA
BRANCH  14  15
HETATM   15  C   UNK N   1      34.839  16.925   9.594  0.00  0.00     0.258 C 
HETATM   16  O   UNK N   1      35.642  17.445  10.353  0.00  0.00    -0.265 OA
BRANCH  15  17
HETATM   17  C   UNK N   1      34.253  17.731   8.464  0.00  0.00     0.111 C 
BRANCH  17  18
HETATM   18  C   UNK N   1      32.970  17.125   7.922  0.00  0.00     0.005 C 
HETATM   19  C   UNK N   1      31.767  17.877   8.454  0.00  0.00     0.005 C 
ENDBRANCH  17  18
ENDBRANCH  15  17
ENDBRANCH  14  15
ENDBRANCH  13  14
ENDBRANCH   1  13
BRANCH   1  20
HETATM   20  O   UNK N   1      34.679  13.486  12.749  0.00  0.00    -0.312 OA
BRANCH  20  21
HETATM   21  C   UNK N   1      35.562  13.385  13.785  0.00  0.00     0.259 C 
HETATM   22  O   UNK N   1      36.583  14.059  13.802  0.00  0.00    -0.265 OA
BRANCH  21  23
HETATM   23  C   UNK N   1      35.294  12.401  14.889  0.00  0.00     0.111 C 
BRANCH  23  24
HETATM   24  C   UNK N   1      34.446  13.006  16.002  0.00  0.00     0.005 C 
HETATM   25  C   UNK N   1      35.305  13.294  17.214  0.00  0.00     0.005 C 
ENDBRANCH  23  24
ENDBRANCH  21  23
ENDBRANCH  20  21
ENDBRANCH   1  20
TORSDOF 16
ENDMDL
MODEL 9
REMARK VINA RESULT:      -4.8      3.153      5.968
REMARK  16 active torsions:
REMARK  status: ('A' for Active; 'I' for Inactive)
REMARK    1  A    between atoms: P_1  and  O_2 
REMARK    2  A    between atoms: P_1  and  O_3 
REMARK    3  A    between atoms: P_1  and  O_4 
REMARK    4  A    between atoms: P_1  and  O_5 
REMARK    5  A    between atoms: P_1  and  O_6 
REMARK    6  A    between atoms: O_4  and  C_7 
REMARK    7  A    between atoms: C_7  and  C_8 
REMARK    8  A    between atoms: C_8  and  C_9 
REMARK    9  A    between atoms: C_8  and  O_16 
REMARK   10  A    between atoms: C_9  and  O_10 
REMARK   11  A    between atoms: O_10  and  C_11 
REMARK   12  A    between atoms: C_11  and  C_13 
REMARK   13  A    between atoms: C_13  and  C_14 
REMARK   14  A    between atoms: O_16  and  C_17 
REMARK   15  A    between atoms: C_17  and  C_18 
REMARK   16  A    between atoms: C_18  and  C_19 
ROOT
HETATM    1  C   UNK N   1      21.186  17.140   2.893  0.00  0.00     0.180 C 
ENDROOT
BRANCH   1   2
HETATM    2  C   UNK N   1      21.013  18.615   3.237  0.00  0.00     0.216 C 
BRANCH   2   3
HETATM    3  O   UNK N   1      20.206  19.233   2.270  0.00  0.00    -0.289 OA
BRANCH   3   4
HETATM    4  P   UNK N   1      20.976  20.662   1.601  0.00  0.00     0.399 P 
BRANCH   4   5
HETATM    5  O   UNK N   1      20.324  22.091   0.834  0.00  0.00    -0.302 OA
HETATM    6  H   UNK N   1      20.743  22.954   0.980  0.00  0.00     0.223 HD
ENDBRANCH   4   5
BRANCH   4   7
HETATM    7  O   UNK N   1      20.688  19.938   0.040  0.00  0.00    -0.302 OA
HETATM    8  H   UNK N   1      20.802  19.012  -0.227  0.00  0.00     0.223 HD
ENDBRANCH   4   7
BRANCH   4   9
HETATM    9  O   UNK N   1      21.100  21.708   2.991  0.00  0.00    -0.302 OA
HETATM   10  H   UNK N   1      21.728  21.660   3.729  0.00  0.00     0.223 HD
ENDBRANCH   4   9
BRANCH   4  11
HETATM   11  O   UNK N   1      22.613  20.206   1.934  0.00  0.00    -0.302 OA
HETATM   12  H   UNK N   1      23.010  19.808   2.724  0.00  0.00     0.223 HD
ENDBRANCH   4  11
ENDBRANCH   3   4
ENDBRANCH   2   3
ENDBRANCH   1   2
BRANCH   1  13
HETATM   13  C   UNK N   1      21.378  16.293   4.149  0.00  0.00     0.213 C 
BRANCH  13  14
HETATM   14  O   UNK N   1      20.307  15.482   4.458  0.00  0.00    -0.319 OA
BRANCH  14  15
HETATM   15  C   UNK N   1      19.462  15.773   5.482  0.00  0.00     0.258 C 
HETATM   16  O   UNK N   1      18.305  16.076   5.237  0.00  0.00    -0.265 OA
BRANCH  15  17
HETATM   17  C   UNK N   1      19.948  15.779   6.908  0.00  0.00     0.111 C 
BRANCH  17  18
HETATM   18  C   UNK N   1      20.621  14.476   7.300  0.00  0.00     0.005 C 
HETATM   19  C   UNK N   1      22.112  14.683   7.468  0.00  0.00     0.005 C 
ENDBRANCH  17  18
ENDBRANCH  15  17
ENDBRANCH  14  15
ENDBRANCH  13  14
ENDBRANCH   1  13
BRANCH   1  20
HETATM   20  O   UNK N   1      20.112  16.708   2.127  0.00  0.00    -0.312 OA
BRANCH  20  21
HETATM   21  C   UNK N   1      20.242  16.169   0.879  0.00  0.00     0.259 C 
HETATM   22  O   UNK N   1      20.209  16.883  -0.114  0.00  0.00    -0.265 OA
BRANCH  21  23
HETATM   23  C   UNK N   1      20.379  14.680   0.730  0.00  0.00     0.111 C 
BRANCH  23  24
HETATM   24  C   UNK N   1      19.131  13.941   1.200  0.00  0.00     0.005 C 
HETATM   25  C   UNK N   1      18.060  13.994   0.132  0.00  0.00     0.005 C 
ENDBRANCH  23  24
ENDBRANCH  21  23
ENDBRANCH  20  21
ENDBRANCH   1  20
TORSDOF 16
ENDMDL
