MODEL 1
REMARK VINA RESULT:      -6.2      0.000      0.000
REMARK  8 active torsions:
REMARK  status: ('A' for Active; 'I' for Inactive)
REMARK    1  A    between atoms: C_1  and  C_2 
REMARK    2  A    between atoms: C_2  and  C_3 
REMARK    3  A    between atoms: C_3  and  C_4 
REMARK    4  A    between atoms: C_4  and  N_5 
REMARK    5  A    between atoms: C_4  and  C_12 
REMARK       I    between atoms: N_5  and  C_6 
REMARK    6  A    between atoms: C_6  and  C_7 
REMARK    7  A    between atoms: C_7  and  N_8 
REMARK       I    between atoms: N_8  and  C_9 
REMARK    8  A    between atoms: C_12  and  C_13 
ROOT
HETATM    1  C   UNK N   1      22.061  18.554   4.703  0.00  0.00     0.158 C 
ENDROOT
BRANCH   1   2
HETATM    2  C   UNK N   1      21.128  19.304   3.779  0.00  0.00     0.150 C 
HETATM    3  O   UNK N   1      20.538  20.288   4.202  0.00  0.00    -0.296 OA
BRANCH   2   4
HETATM    4  C   UNK N   1      20.924  18.844   2.359  0.00  0.00     0.095 C 
BRANCH   4   5
HETATM    5  C   UNK N   1      19.816  17.805   2.216  0.00  0.00     0.122 C 
HETATM    6 Cl   UNK N   1      20.501  16.174   1.982  0.00  0.00    -0.130 Cl
ENDBRANCH   4   5
ENDBRANCH   2   4
ENDBRANCH   1   2
BRANCH   1   7
HETATM    7  N   UNK N   1      21.346  17.567   5.493  0.00  0.00    -0.348 N 
HETATM    8  C   UNK N   1      20.870  17.793   6.749  0.00  0.00     0.240 C 
HETATM    9  O   UNK N   1      20.967  18.899   7.262  0.00  0.00    -0.271 OA
HETATM   10  H   UNK N   1      21.196  16.680   5.096  0.00  0.00     0.163 HD
BRANCH   8  11
HETATM   11  C   UNK N   1      20.180  16.677   7.487  0.00  0.00     0.172 C 
HETATM   12  C   UNK N   1      21.215  15.643   7.908  0.00  0.00     0.042 C 
BRANCH  11  13
HETATM   13  N   UNK N   1      19.476  17.198   8.644  0.00  0.00    -0.349 N 
HETATM   14  C   UNK N   1      18.129  17.128   8.796  0.00  0.00     0.214 C 
HETATM   15  C   UNK N   1      17.493  17.744   9.992  0.00  0.00     0.117 C 
HETATM   16  O   UNK N   1      17.430  16.583   7.955  0.00  0.00    -0.274 OA
HETATM   17  H   UNK N   1      20.003  17.626   9.357  0.00  0.00     0.163 HD
ENDBRANCH  11  13
ENDBRANCH   8  11
ENDBRANCH   1   7
BRANCH   1  18
HETATM   18  C   UNK N   1      23.167  17.838   3.918  0.00  0.00     0.071 C 
BRANCH  18  19
HETATM   19  C   UNK N   1      24.467  18.584   3.932  0.00  0.00    -0.056 A 
HETATM   20  C   UNK N   1      25.552  18.075   4.654  0.00  0.00     0.007 A 
HETATM   21  C   UNK N   1      26.762  18.774   4.685  0.00  0.00     0.001 A 
HETATM   22  C   UNK N   1      26.892  19.981   3.990  0.00  0.00     0.000 A 
HETATM   23  C   UNK N   1      25.813  20.487   3.260  0.00  0.00     0.001 A 
HETATM   24  C   UNK N   1      24.603  19.789   3.230  0.00  0.00     0.007 A 
ENDBRANCH  18  19
ENDBRANCH   1  18
TORSDOF 8
ENDMDL
MODEL 2
REMARK VINA RESULT:      -6.1     13.679     15.005
REMARK  8 active torsions:
REMARK  status: ('A' for Active; 'I' for Inactive)
REMARK    1  A    between atoms: C_1  and  C_2 
REMARK    2  A    between atoms: C_2  and  C_3 
REMARK    3  A    between atoms: C_3  and  C_4 
REMARK    4  A    between atoms: C_4  and  N_5 
REMARK    5  A    between atoms: C_4  and  C_12 
REMARK       I    between atoms: N_5  and  C_6 
REMARK    6  A    between atoms: C_6  and  C_7 
REMARK    7  A    between atoms: C_7  and  N_8 
REMARK       I    between atoms: N_8  and  C_9 
REMARK    8  A    between atoms: C_12  and  C_13 
ROOT
HETATM    1  C   UNK N   1      25.955  24.518  -7.261  0.00  0.00     0.158 C 
ENDROOT
BRANCH   1   2
HETATM    2  C   UNK N   1      25.614  23.556  -8.377  0.00  0.00     0.150 C 
HETATM    3  O   UNK N   1      24.762  23.872  -9.194  0.00  0.00    -0.296 OA
BRANCH   2   4
HETATM    4  C   UNK N   1      26.312  22.224  -8.478  0.00  0.00     0.095 C 
BRANCH   4   5
HETATM    5  C   UNK N   1      25.378  21.037  -8.263  0.00  0.00     0.122 C 
HETATM    6 Cl   UNK N   1      24.387  21.267  -6.798  0.00  0.00    -0.130 Cl
ENDBRANCH   4   5
ENDBRANCH   2   4
ENDBRANCH   1   2
BRANCH   1   7
HETATM    7  N   UNK N   1      27.224  24.182  -6.639  0.00  0.00    -0.348 N 
HETATM    8  C   UNK N   1      27.378  23.911  -5.313  0.00  0.00     0.240 C 
HETATM    9  O   UNK N   1      26.408  23.872  -4.570  0.00  0.00    -0.271 OA
HETATM   10  H   UNK N   1      28.022  24.146  -7.213  0.00  0.00     0.163 HD
BRANCH   8  11
HETATM   11  C   UNK N   1      28.753  23.615  -4.777  0.00  0.00     0.172 C 
HETATM   12  C   UNK N   1      29.456  22.646  -5.716  0.00  0.00     0.042 C 
BRANCH  11  13
HETATM   13  N   UNK N   1      29.515  24.844  -4.643  0.00  0.00    -0.349 N 
HETATM   14  C   UNK N   1      30.329  25.109  -3.589  0.00  0.00     0.214 C 
HETATM   15  C   UNK N   1      31.024  26.423  -3.513  0.00  0.00     0.117 C 
HETATM   16  O   UNK N   1      30.483  24.293  -2.694  0.00  0.00    -0.274 OA
HETATM   17  H   UNK N   1      29.438  25.520  -5.354  0.00  0.00     0.163 HD
ENDBRANCH  11  13
ENDBRANCH   8  11
ENDBRANCH   1   7
BRANCH   1  18
HETATM   18  C   UNK N   1      26.032  25.962  -7.772  0.00  0.00     0.071 C 
BRANCH  18  19
HETATM   19  C   UNK N   1      26.147  26.965  -6.666  0.00  0.00    -0.056 A 
HETATM   20  C   UNK N   1      27.214  27.870  -6.657  0.00  0.00     0.007 A 
HETATM   21  C   UNK N   1      27.337  28.798  -5.619  0.00  0.00     0.001 A 
HETATM   22  C   UNK N   1      26.390  28.828  -4.590  0.00  0.00     0.000 A 
HETATM   23  C   UNK N   1      25.317  27.932  -4.600  0.00  0.00     0.001 A 
HETATM   24  C   UNK N   1      25.195  27.004  -5.637  0.00  0.00     0.007 A 
ENDBRANCH  18  19
ENDBRANCH   1  18
TORSDOF 8
ENDMDL
MODEL 3
REMARK VINA RESULT:      -6.0     13.201     15.363
REMARK  8 active torsions:
REMARK  status: ('A' for Active; 'I' for Inactive)
REMARK    1  A    between atoms: C_1  and  C_2 
REMARK    2  A    between atoms: C_2  and  C_3 
REMARK    3  A    between atoms: C_3  and  C_4 
REMARK    4  A    between atoms: C_4  and  N_5 
REMARK    5  A    between atoms: C_4  and  C_12 
REMARK       I    between atoms: N_5  and  C_6 
REMARK    6  A    between atoms: C_6  and  C_7 
REMARK    7  A    between atoms: C_7  and  N_8 
REMARK       I    between atoms: N_8  and  C_9 
REMARK    8  A    between atoms: C_12  and  C_13 
ROOT
HETATM    1  C   UNK N   1      26.481  25.706  -5.529  0.00  0.00     0.158 C 
ENDROOT
BRANCH   1   2
HETATM    2  C   UNK N   1      26.869  24.829  -4.359  0.00  0.00     0.150 C 
HETATM    3  O   UNK N   1      26.234  24.913  -3.317  0.00  0.00    -0.296 OA
BRANCH   2   4
HETATM    4  C   UNK N   1      28.025  23.869  -4.473  0.00  0.00     0.095 C 
BRANCH   4   5
HETATM    5  C   UNK N   1      29.116  24.114  -3.435  0.00  0.00     0.122 C 
HETATM    6 Cl   UNK N   1      28.955  22.983  -2.065  0.00  0.00    -0.130 Cl
ENDBRANCH   4   5
ENDBRANCH   2   4
ENDBRANCH   1   2
BRANCH   1   7
HETATM    7  N   UNK N   1      25.813  24.941  -6.567  0.00  0.00    -0.348 N 
HETATM    8  C   UNK N   1      26.012  25.126  -7.902  0.00  0.00     0.240 C 
HETATM    9  O   UNK N   1      26.843  25.929  -8.300  0.00  0.00    -0.271 OA
HETATM   10  H   UNK N   1      25.177  24.244  -6.287  0.00  0.00     0.163 HD
BRANCH   8  11
HETATM   11  C   UNK N   1      25.229  24.298  -8.884  0.00  0.00     0.172 C 
HETATM   12  C   UNK N   1      25.383  24.897 -10.275  0.00  0.00     0.042 C 
BRANCH  11  13
HETATM   13  N   UNK N   1      25.692  22.922  -8.865  0.00  0.00    -0.349 N 
HETATM   14  C   UNK N   1      24.983  21.901  -8.319  0.00  0.00     0.214 C 
HETATM   15  C   UNK N   1      25.569  20.533  -8.295  0.00  0.00     0.117 C 
HETATM   16  O   UNK N   1      23.880  22.093  -7.831  0.00  0.00    -0.274 OA
HETATM   17  H   UNK N   1      26.567  22.718  -9.267  0.00  0.00     0.163 HD
ENDBRANCH  11  13
ENDBRANCH   8  11
ENDBRANCH   1   7
BRANCH   1  18
HETATM   18  C   UNK N   1      25.552  26.844  -5.090  0.00  0.00     0.071 C 
BRANCH  18  19
HETATM   19  C   UNK N   1      26.263  28.156  -4.954  0.00  0.00    -0.056 A 
HETATM   20  C   UNK N   1      27.223  28.527  -5.901  0.00  0.00     0.007 A 
HETATM   21  C   UNK N   1      27.902  29.742  -5.771  0.00  0.00     0.001 A 
HETATM   22  C   UNK N   1      27.617  30.592  -4.697  0.00  0.00     0.000 A 
HETATM   23  C   UNK N   1      26.651  30.230  -3.755  0.00  0.00     0.001 A 
HETATM   24  C   UNK N   1      25.973  29.015  -3.884  0.00  0.00     0.007 A 
ENDBRANCH  18  19
ENDBRANCH   1  18
TORSDOF 8
ENDMDL
MODEL 4
REMARK VINA RESULT:      -6.0      1.393      2.045
REMARK  8 active torsions:
REMARK  status: ('A' for Active; 'I' for Inactive)
REMARK    1  A    between atoms: C_1  and  C_2 
REMARK    2  A    between atoms: C_2  and  C_3 
REMARK    3  A    between atoms: C_3  and  C_4 
REMARK    4  A    between atoms: C_4  and  N_5 
REMARK    5  A    between atoms: C_4  and  C_12 
REMARK       I    between atoms: N_5  and  C_6 
REMARK    6  A    between atoms: C_6  and  C_7 
REMARK    7  A    between atoms: C_7  and  N_8 
REMARK       I    between atoms: N_8  and  C_9 
REMARK    8  A    between atoms: C_12  and  C_13 
ROOT
HETATM    1  C   UNK N   1      22.039  18.573   4.677  0.00  0.00     0.158 C 
ENDROOT
BRANCH   1   2
HETATM    2  C   UNK N   1      21.147  19.366   3.747  0.00  0.00     0.150 C 
HETATM    3  O   UNK N   1      20.540  20.332   4.187  0.00  0.00    -0.296 OA
BRANCH   2   4
HETATM    4  C   UNK N   1      21.006  18.969   2.300  0.00  0.00     0.095 C 
BRANCH   4   5
HETATM    5  C   UNK N   1      19.891  17.955   2.061  0.00  0.00     0.122 C 
HETATM    6 Cl   UNK N   1      20.084  17.163   0.474  0.00  0.00    -0.130 Cl
ENDBRANCH   4   5
ENDBRANCH   2   4
ENDBRANCH   1   2
BRANCH   1   7
HETATM    7  N   UNK N   1      21.291  17.548   5.384  0.00  0.00    -0.348 N 
HETATM    8  C   UNK N   1      20.810  17.688   6.651  0.00  0.00     0.240 C 
HETATM    9  O   UNK N   1      20.934  18.747   7.249  0.00  0.00    -0.271 OA
HETATM   10  H   UNK N   1      21.119  16.699   4.917  0.00  0.00     0.163 HD
BRANCH   8  11
HETATM   11  C   UNK N   1      20.084  16.537   7.294  0.00  0.00     0.172 C 
HETATM   12  C   UNK N   1      19.338  15.756   6.221  0.00  0.00     0.042 C 
BRANCH  11  13
HETATM   13  N   UNK N   1      21.022  15.678   7.994  0.00  0.00    -0.349 N 
HETATM   14  C   UNK N   1      20.652  14.785   8.946  0.00  0.00     0.214 C 
HETATM   15  C   UNK N   1      21.696  13.990   9.650  0.00  0.00     0.117 C 
HETATM   16  O   UNK N   1      19.478  14.638   9.247  0.00  0.00    -0.274 OA
HETATM   17  H   UNK N   1      21.977  15.748   7.767  0.00  0.00     0.163 HD
ENDBRANCH  11  13
ENDBRANCH   8  11
ENDBRANCH   1   7
BRANCH   1  18
HETATM   18  C   UNK N   1      23.184  17.898   3.913  0.00  0.00     0.071 C 
BRANCH  18  19
HETATM   19  C   UNK N   1      24.459  18.684   3.961  0.00  0.00    -0.056 A 
HETATM   20  C   UNK N   1      24.619  19.799   3.132  0.00  0.00     0.007 A 
HETATM   21  C   UNK N   1      25.812  20.527   3.160  0.00  0.00     0.001 A 
HETATM   22  C   UNK N   1      26.846  20.145   4.022  0.00  0.00     0.000 A 
HETATM   23  C   UNK N   1      26.685  19.037   4.859  0.00  0.00     0.001 A 
HETATM   24  C   UNK N   1      25.493  18.309   4.831  0.00  0.00     0.007 A 
ENDBRANCH  18  19
ENDBRANCH   1  18
TORSDOF 8
ENDMDL
MODEL 5
REMARK VINA RESULT:      -6.0     10.664     13.414
REMARK  8 active torsions:
REMARK  status: ('A' for Active; 'I' for Inactive)
REMARK    1  A    between atoms: C_1  and  C_2 
REMARK    2  A    between atoms: C_2  and  C_3 
REMARK    3  A    between atoms: C_3  and  C_4 
REMARK    4  A    between atoms: C_4  and  N_5 
REMARK    5  A    between atoms: C_4  and  C_12 
REMARK       I    between atoms: N_5  and  C_6 
REMARK    6  A    between atoms: C_6  and  C_7 
REMARK    7  A    between atoms: C_7  and  N_8 
REMARK       I    between atoms: N_8  and  C_9 
REMARK    8  A    between atoms: C_12  and  C_13 
ROOT
HETATM    1  C   UNK N   1      33.446  17.423   8.831  0.00  0.00     0.158 C 
ENDROOT
BRANCH   1   2
HETATM    2  C   UNK N   1      31.985  17.183   8.522  0.00  0.00     0.150 C 
HETATM    3  O   UNK N   1      31.611  16.048   8.262  0.00  0.00    -0.296 OA
BRANCH   2   4
HETATM    4  C   UNK N   1      31.004  18.326   8.531  0.00  0.00     0.095 C 
BRANCH   4   5
HETATM    5  C   UNK N   1      29.796  18.075   9.429  0.00  0.00     0.122 C 
HETATM    6 Cl   UNK N   1      28.300  18.676   8.664  0.00  0.00    -0.130 Cl
ENDBRANCH   4   5
ENDBRANCH   2   4
ENDBRANCH   1   2
BRANCH   1   7
HETATM    7  N   UNK N   1      34.102  16.206   9.275  0.00  0.00    -0.348 N 
HETATM    8  C   UNK N   1      35.185  16.178  10.102  0.00  0.00     0.240 C 
HETATM    9  O   UNK N   1      35.629  17.212  10.579  0.00  0.00    -0.271 OA
HETATM   10  H   UNK N   1      33.741  15.347   8.960  0.00  0.00     0.163 HD
BRANCH   8  11
HETATM   11  C   UNK N   1      35.804  14.853  10.460  0.00  0.00     0.172 C 
HETATM   12  C   UNK N   1      36.840  14.488   9.407  0.00  0.00     0.042 C 
BRANCH  11  13
HETATM   13  N   UNK N   1      36.412  14.922  11.776  0.00  0.00    -0.349 N 
HETATM   14  C   UNK N   1      35.854  14.379  12.888  0.00  0.00     0.214 C 
HETATM   15  C   UNK N   1      36.526  14.553  14.205  0.00  0.00     0.117 C 
HETATM   16  O   UNK N   1      34.799  13.767  12.826  0.00  0.00    -0.274 OA
HETATM   17  H   UNK N   1      37.274  15.387  11.868  0.00  0.00     0.163 HD
ENDBRANCH  11  13
ENDBRANCH   8  11
ENDBRANCH   1   7
BRANCH   1  18
HETATM   18  C   UNK N   1      34.195  17.959   7.605  0.00  0.00     0.071 C 
BRANCH  18  19
HETATM   19  C   UNK N   1      33.990  17.117   6.383  0.00  0.00    -0.056 A 
HETATM   20  C   UNK N   1      34.619  15.872   6.283  0.00  0.00     0.007 A 
HETATM   21  C   UNK N   1      34.445  15.089   5.139  0.00  0.00     0.001 A 
HETATM   22  C   UNK N   1      33.636  15.546   4.094  0.00  0.00     0.000 A 
HETATM   23  C   UNK N   1      32.997  16.785   4.194  0.00  0.00     0.001 A 
HETATM   24  C   UNK N   1      33.172  17.568   5.337  0.00  0.00     0.007 A 
ENDBRANCH  18  19
ENDBRANCH   1  18
TORSDOF 8
ENDMDL
MODEL 6
REMARK VINA RESULT:      -6.0      9.871     12.663
REMARK  8 active torsions:
REMARK  status: ('A' for Active; 'I' for Inactive)
REMARK    1  A    between atoms: C_1  and  C_2 
REMARK    2  A    between atoms: C_2  and  C_3 
REMARK    3  A    between atoms: C_3  and  C_4 
REMARK    4  A    between atoms: C_4  and  N_5 
REMARK    5  A    between atoms: C_4  and  C_12 
REMARK       I    between atoms: N_5  and  C_6 
REMARK    6  A    between atoms: C_6  and  C_7 
REMARK    7  A    between atoms: C_7  and  N_8 
REMARK       I    between atoms: N_8  and  C_9 
REMARK    8  A    between atoms: C_12  and  C_13 
ROOT
HETATM    1  C   UNK N   1      33.006  16.451   7.650  0.00  0.00     0.158 C 
ENDROOT
BRANCH   1   2
HETATM    2  C   UNK N   1      33.953  16.937   6.576  0.00  0.00     0.150 C 
HETATM    3  O   UNK N   1      34.555  17.988   6.746  0.00  0.00    -0.296 OA
BRANCH   2   4
HETATM    4  C   UNK N   1      34.151  16.140   5.313  0.00  0.00     0.095 C 
BRANCH   4   5
HETATM    5  C   UNK N   1      32.906  16.089   4.433  0.00  0.00     0.122 C 
HETATM    6 Cl   UNK N   1      32.253  17.726   4.161  0.00  0.00    -0.130 Cl
ENDBRANCH   4   5
ENDBRANCH   2   4
ENDBRANCH   1   2
BRANCH   1   7
HETATM    7  N   UNK N   1      33.669  15.550   8.576  0.00  0.00    -0.348 N 
HETATM    8  C   UNK N   1      33.296  14.257   8.786  0.00  0.00     0.240 C 
HETATM    9  O   UNK N   1      32.392  13.757   8.132  0.00  0.00    -0.271 OA
HETATM   10  H   UNK N   1      34.439  15.895   9.082  0.00  0.00     0.163 HD
BRANCH   8  11
HETATM   11  C   UNK N   1      34.037  13.432   9.804  0.00  0.00     0.172 C 
HETATM   12  C   UNK N   1      34.772  12.305   9.092  0.00  0.00     0.042 C 
BRANCH  11  13
HETATM   13  N   UNK N   1      34.968  14.265  10.543  0.00  0.00    -0.349 N 
HETATM   14  C   UNK N   1      35.153  14.171  11.885  0.00  0.00     0.214 C 
HETATM   15  C   UNK N   1      36.089  15.110  12.562  0.00  0.00     0.117 C 
HETATM   16  O   UNK N   1      34.548  13.341  12.545  0.00  0.00    -0.274 OA
HETATM   17  H   UNK N   1      35.493  14.933  10.046  0.00  0.00     0.163 HD
ENDBRANCH  11  13
ENDBRANCH   8  11
ENDBRANCH   1   7
BRANCH   1  18
HETATM   18  C   UNK N   1      32.418  17.621   8.448  0.00  0.00     0.071 C 
BRANCH  18  19
HETATM   19  C   UNK N   1      30.927  17.715   8.331  0.00  0.00    -0.056 A 
HETATM   20  C   UNK N   1      30.203  18.462   9.266  0.00  0.00     0.007 A 
HETATM   21  C   UNK N   1      28.810  18.541   9.172  0.00  0.00     0.001 A 
HETATM   22  C   UNK N   1      28.139  17.876   8.141  0.00  0.00     0.000 A 
HETATM   23  C   UNK N   1      28.860  17.136   7.199  0.00  0.00     0.001 A 
HETATM   24  C   UNK N   1      30.252  17.057   7.293  0.00  0.00     0.007 A 
ENDBRANCH  18  19
ENDBRANCH   1  18
TORSDOF 8
ENDMDL
MODEL 7
REMARK VINA RESULT:      -6.0     13.001     15.304
REMARK  8 active torsions:
REMARK  status: ('A' for Active; 'I' for Inactive)
REMARK    1  A    between atoms: C_1  and  C_2 
REMARK    2  A    between atoms: C_2  and  C_3 
REMARK    3  A    between atoms: C_3  and  C_4 
REMARK    4  A    between atoms: C_4  and  N_5 
REMARK    5  A    between atoms: C_4  and  C_12 
REMARK       I    between atoms: N_5  and  C_6 
REMARK    6  A    between atoms: C_6  and  C_7 
REMARK    7  A    between atoms: C_7  and  N_8 
REMARK       I    between atoms: N_8  and  C_9 
REMARK    8  A    between atoms: C_12  and  C_13 
ROOT
HETATM    1  C   UNK N   1      26.380  24.769  -5.501  0.00  0.00     0.158 C 
ENDROOT
BRANCH   1   2
HETATM    2  C   UNK N   1      26.833  24.384  -4.110  0.00  0.00     0.150 C 
HETATM    3  O   UNK N   1      26.001  24.008  -3.297  0.00  0.00    -0.296 OA
BRANCH   2   4
HETATM    4  C   UNK N   1      28.289  24.467  -3.730  0.00  0.00     0.095 C 
BRANCH   4   5
HETATM    5  C   UNK N   1      29.121  25.285  -4.713  0.00  0.00     0.122 C 
HETATM    6 Cl   UNK N   1      29.624  26.834  -3.985  0.00  0.00    -0.130 Cl
ENDBRANCH   4   5
ENDBRANCH   2   4
ENDBRANCH   1   2
BRANCH   1   7
HETATM    7  N   UNK N   1      25.800  23.637  -6.203  0.00  0.00    -0.348 N 
HETATM    8  C   UNK N   1      26.520  22.736  -6.928  0.00  0.00     0.240 C 
HETATM    9  O   UNK N   1      27.740  22.804  -6.968  0.00  0.00    -0.271 OA
HETATM   10  H   UNK N   1      24.826  23.513  -6.149  0.00  0.00     0.163 HD
BRANCH   8  11
HETATM   11  C   UNK N   1      25.801  21.626  -7.646  0.00  0.00     0.172 C 
HETATM   12  C   UNK N   1      24.462  21.378  -6.966  0.00  0.00     0.042 C 
BRANCH  11  13
HETATM   13  N   UNK N   1      25.610  21.972  -9.043  0.00  0.00    -0.349 N 
HETATM   14  C   UNK N   1      26.476  21.618 -10.027  0.00  0.00     0.214 C 
HETATM   15  C   UNK N   1      26.224  22.071 -11.422  0.00  0.00     0.117 C 
HETATM   16  O   UNK N   1      27.468  20.950  -9.779  0.00  0.00    -0.274 OA
HETATM   17  H   UNK N   1      24.811  22.491  -9.290  0.00  0.00     0.163 HD
ENDBRANCH  11  13
ENDBRANCH   8  11
ENDBRANCH   1   7
BRANCH   1  18
HETATM   18  C   UNK N   1      25.342  25.897  -5.459  0.00  0.00     0.071 C 
BRANCH  18  19
HETATM   19  C   UNK N   1      25.955  27.243  -5.219  0.00  0.00    -0.056 A 
HETATM   20  C   UNK N   1      26.843  27.779  -6.157  0.00  0.00     0.007 A 
HETATM   21  C   UNK N   1      27.431  29.027  -5.931  0.00  0.00     0.001 A 
HETATM   22  C   UNK N   1      27.129  29.744  -4.768  0.00  0.00     0.000 A 
HETATM   23  C   UNK N   1      26.234  29.215  -3.833  0.00  0.00     0.001 A 
HETATM   24  C   UNK N   1      25.647  27.968  -4.059  0.00  0.00     0.007 A 
ENDBRANCH  18  19
ENDBRANCH   1  18
TORSDOF 8
ENDMDL
MODEL 8
REMARK VINA RESULT:      -6.0     10.211     12.925
REMARK  8 active torsions:
REMARK  status: ('A' for Active; 'I' for Inactive)
REMARK    1  A    between atoms: C_1  and  C_2 
REMARK    2  A    between atoms: C_2  and  C_3 
REMARK    3  A    between atoms: C_3  and  C_4 
REMARK    4  A    between atoms: C_4  and  N_5 
REMARK    5  A    between atoms: C_4  and  C_12 
REMARK       I    between atoms: N_5  and  C_6 
REMARK    6  A    between atoms: C_6  and  C_7 
REMARK    7  A    between atoms: C_7  and  N_8 
REMARK       I    between atoms: N_8  and  C_9 
REMARK    8  A    between atoms: C_12  and  C_13 
ROOT
HETATM    1  C   UNK N   1      33.048  16.691   7.996  0.00  0.00     0.158 C 
ENDROOT
BRANCH   1   2
HETATM    2  C   UNK N   1      33.718  16.829   6.646  0.00  0.00     0.150 C 
HETATM    3  O   UNK N   1      34.525  17.731   6.473  0.00  0.00    -0.296 OA
BRANCH   2   4
HETATM    4  C   UNK N   1      33.392  15.870   5.529  0.00  0.00     0.095 C 
BRANCH   4   5
HETATM    5  C   UNK N   1      33.251  16.553   4.173  0.00  0.00     0.122 C 
HETATM    6 Cl   UNK N   1      31.958  17.782   4.212  0.00  0.00    -0.130 Cl
ENDBRANCH   4   5
ENDBRANCH   2   4
ENDBRANCH   1   2
BRANCH   1   7
HETATM    7  N   UNK N   1      34.005  16.335   9.029  0.00  0.00    -0.348 N 
HETATM    8  C   UNK N   1      34.137  15.083   9.551  0.00  0.00     0.240 C 
HETATM    9  O   UNK N   1      33.477  14.154   9.110  0.00  0.00    -0.271 OA
HETATM   10  H   UNK N   1      34.595  17.043   9.373  0.00  0.00     0.163 HD
BRANCH   8  11
HETATM   11  C   UNK N   1      35.138  14.846  10.650  0.00  0.00     0.172 C 
HETATM   12  C   UNK N   1      35.499  16.179  11.291  0.00  0.00     0.042 C 
BRANCH  11  13
HETATM   13  N   UNK N   1      34.593  13.933  11.638  0.00  0.00    -0.349 N 
HETATM   14  C   UNK N   1      35.349  13.056  12.345  0.00  0.00     0.214 C 
HETATM   15  C   UNK N   1      34.690  12.118  13.294  0.00  0.00     0.117 C 
HETATM   16  O   UNK N   1      36.561  13.011  12.197  0.00  0.00    -0.274 OA
HETATM   17  H   UNK N   1      33.623  13.951  11.805  0.00  0.00     0.163 HD
ENDBRANCH  11  13
ENDBRANCH   8  11
ENDBRANCH   1   7
BRANCH   1  18
HETATM   18  C   UNK N   1      32.349  17.991   8.408  0.00  0.00     0.071 C 
BRANCH  18  19
HETATM   19  C   UNK N   1      30.855  17.889   8.362  0.00  0.00    -0.056 A 
HETATM   20  C   UNK N   1      30.085  18.522   9.343  0.00  0.00     0.007 A 
HETATM   21  C   UNK N   1      28.691  18.417   9.316  0.00  0.00     0.001 A 
HETATM   22  C   UNK N   1      28.064  17.683   8.304  0.00  0.00     0.000 A 
HETATM   23  C   UNK N   1      28.830  17.057   7.316  0.00  0.00     0.001 A 
HETATM   24  C   UNK N   1      30.222  17.162   7.344  0.00  0.00     0.007 A 
ENDBRANCH  18  19
ENDBRANCH   1  18
TORSDOF 8
ENDMDL
MODEL 9
REMARK VINA RESULT:      -5.9      1.638      1.954
REMARK  8 active torsions:
REMARK  status: ('A' for Active; 'I' for Inactive)
REMARK    1  A    between atoms: C_1  and  C_2 
REMARK    2  A    between atoms: C_2  and  C_3 
REMARK    3  A    between atoms: C_3  and  C_4 
REMARK    4  A    between atoms: C_4  and  N_5 
REMARK    5  A    between atoms: C_4  and  C_12 
REMARK       I    between atoms: N_5  and  C_6 
REMARK    6  A    between atoms: C_6  and  C_7 
REMARK    7  A    between atoms: C_7  and  N_8 
REMARK       I    between atoms: N_8  and  C_9 
REMARK    8  A    between atoms: C_12  and  C_13 
ROOT
HETATM    1  C   UNK N   1      21.756  17.429   4.531  0.00  0.00     0.158 C 
ENDROOT
BRANCH   1   2
HETATM    2  C   UNK N   1      21.240  16.978   3.182  0.00  0.00     0.150 C 
HETATM    3  O   UNK N   1      21.332  15.799   2.875  0.00  0.00    -0.296 OA
BRANCH   2   4
HETATM    4  C   UNK N   1      20.624  17.970   2.229  0.00  0.00     0.095 C 
BRANCH   4   5
HETATM    5  C   UNK N   1      19.567  18.855   2.882  0.00  0.00     0.122 C 
HETATM    6 Cl   UNK N   1      20.259  20.431   3.351  0.00  0.00    -0.130 Cl
ENDBRANCH   4   5
ENDBRANCH   2   4
ENDBRANCH   1   2
BRANCH   1   7
HETATM    7  N   UNK N   1      21.025  16.799   5.616  0.00  0.00    -0.348 N 
HETATM    8  C   UNK N   1      20.785  17.389   6.821  0.00  0.00     0.240 C 
HETATM    9  O   UNK N   1      21.129  18.544   7.026  0.00  0.00    -0.271 OA
HETATM   10  H   UNK N   1      20.681  15.889   5.472  0.00  0.00     0.163 HD
BRANCH   8  11
HETATM   11  C   UNK N   1      20.050  16.618   7.884  0.00  0.00     0.172 C 
HETATM   12  C   UNK N   1      21.022  15.673   8.576  0.00  0.00     0.042 C 
BRANCH  11  13
HETATM   13  N   UNK N   1      19.451  17.529   8.843  0.00  0.00    -0.349 N 
HETATM   14  C   UNK N   1      18.222  17.342   9.387  0.00  0.00     0.214 C 
HETATM   15  C   UNK N   1      17.669  18.364  10.317  0.00  0.00     0.117 C 
HETATM   16  O   UNK N   1      17.555  16.357   9.108  0.00  0.00    -0.274 OA
HETATM   17  H   UNK N   1      19.963  18.325   9.112  0.00  0.00     0.163 HD
ENDBRANCH  11  13
ENDBRANCH   8  11
ENDBRANCH   1   7
BRANCH   1  18
HETATM   18  C   UNK N   1      23.246  17.105   4.696  0.00  0.00     0.071 C 
BRANCH  18  19
HETATM   19  C   UNK N   1      24.138  18.199   4.197  0.00  0.00    -0.056 A 
HETATM   20  C   UNK N   1      23.579  19.397   3.739  0.00  0.00     0.007 A 
HETATM   21  C   UNK N   1      24.406  20.416   3.256  0.00  0.00     0.001 A 
HETATM   22  C   UNK N   1      25.793  20.242   3.237  0.00  0.00     0.000 A 
HETATM   23  C   UNK N   1      26.356  19.051   3.703  0.00  0.00     0.001 A 
HETATM   24  C   UNK N   1      25.530  18.032   4.184  0.00  0.00     0.007 A 
ENDBRANCH  18  19
ENDBRANCH   1  18
TORSDOF 8
ENDMDL
