REMARK  7 active torsions:
REMARK  status: ('A' for Active; 'I' for Inactive)
REMARK    1  A    between atoms: N_1  and  O_2 
REMARK       I    between atoms: N_1  and  C_12 
REMARK    2  A    between atoms: C_3  and  C_4 
REMARK    3  A    between atoms: C_3  and  C_8 
REMARK    4  A    between atoms: C_3  and  C_10 
REMARK    5  A    between atoms: C_4  and  C_5 
REMARK    6  A    between atoms: C_10  and  O_11 
REMARK    7  A    between atoms: C_10  and  C_12 
ROOT
HETATM    1  C   UNK N   1      -1.187   1.060  -0.051  0.00  0.00     0.222 C 
ENDROOT
BRANCH   1   2
HETATM    2  C   UNK N   1      -0.004   0.068  -0.047  0.00  0.00     0.085 C 
BRANCH   2   3
HETATM    3  C   UNK N   1       1.299   0.878   0.087  0.00  0.00     0.018 C 
BRANCH   3   4
HETATM    4  C   UNK N   1       2.587   0.174  -0.338  0.00  0.00    -0.022 C 
HETATM    5  C   UNK N   1       3.751   1.123  -0.136  0.00  0.00     0.009 C 
HETATM    6  C   UNK N   1       2.835  -1.102   0.440  0.00  0.00     0.009 C 
ENDBRANCH   3   4
ENDBRANCH   2   3
BRANCH   2   7
HETATM    7  C   UNK N   1      -0.007  -0.754  -1.310  0.00  0.00     0.238 C 
HETATM    8  O   UNK N   1      -0.103  -1.970  -1.254  0.00  0.00    -0.306 OA
ENDBRANCH   2   7
ENDBRANCH   1   2
BRANCH   1   9
HETATM    9  O   UNK N   1      -1.035   1.966  -1.107  0.00  0.00    -0.385 OA
HETATM   10  H   UNK N   1      -0.438   2.189  -1.840  0.00  0.00     0.210 HD
ENDBRANCH   1   9
BRANCH   1  11
HETATM   11  C   UNK N   1      -2.524   0.363  -0.161  0.00  0.00     0.270 C 
HETATM   12  N   UNK N   1      -3.338   0.624  -1.213  0.00  0.00    -0.235 N 
HETATM   13  H   UNK N   1      -3.050   1.265  -1.902  0.00  0.00     0.197 HD
HETATM   14  O   UNK N   1      -2.870  -0.427   0.702  0.00  0.00    -0.268 OA
BRANCH  12  15
HETATM   15  O   UNK N   1      -4.529   0.019  -1.328  0.00  0.00    -0.287 OA
HETATM   16  H   UNK N   1      -5.339   0.547  -1.412  0.00  0.00     0.244 HD
ENDBRANCH  12  15
ENDBRANCH   1  11
TORSDOF 7
