MODEL 1
REMARK VINA RESULT:      -4.9      0.000      0.000
REMARK  7 active torsions:
REMARK  status: ('A' for Active; 'I' for Inactive)
REMARK    1  A    between atoms: N_1  and  O_2 
REMARK       I    between atoms: N_1  and  C_12 
REMARK    2  A    between atoms: C_3  and  C_4 
REMARK    3  A    between atoms: C_3  and  C_8 
REMARK    4  A    between atoms: C_3  and  C_10 
REMARK    5  A    between atoms: C_4  and  C_5 
REMARK    6  A    between atoms: C_10  and  O_11 
REMARK    7  A    between atoms: C_10  and  C_12 
ROOT
HETATM    1  C   UNK N   1      33.399  18.036   7.517  0.00  0.00     0.222 C 
ENDROOT
BRANCH   1   2
HETATM    2  C   UNK N   1      33.804  17.086   6.370  0.00  0.00     0.085 C 
BRANCH   2   3
HETATM    3  C   UNK N   1      33.255  17.665   5.052  0.00  0.00     0.018 C 
BRANCH   3   4
HETATM    4  C   UNK N   1      32.145  16.870   4.367  0.00  0.00    -0.022 C 
HETATM    5  C   UNK N   1      30.815  17.532   4.666  0.00  0.00     0.009 C 
HETATM    6  C   UNK N   1      32.338  16.778   2.867  0.00  0.00     0.009 C 
ENDBRANCH   3   4
ENDBRANCH   2   3
BRANCH   2   7
HETATM    7  C   UNK N   1      33.264  15.701   6.622  0.00  0.00     0.238 C 
HETATM    8  O   UNK N   1      33.688  15.035   7.553  0.00  0.00    -0.306 OA
ENDBRANCH   2   7
ENDBRANCH   1   2
BRANCH   1   9
HETATM    9  O   UNK N   1      32.239  17.555   8.136  0.00  0.00    -0.385 OA
HETATM   10  H   UNK N   1      31.750  16.733   8.306  0.00  0.00     0.210 HD
ENDBRANCH   1   9
BRANCH   1  11
HETATM   11  C   UNK N   1      34.497  18.202   8.543  0.00  0.00     0.270 C 
HETATM   12  N   UNK N   1      34.609  17.317   9.563  0.00  0.00    -0.235 N 
HETATM   13  H   UNK N   1      33.974  16.567   9.627  0.00  0.00     0.197 HD
HETATM   14  O   UNK N   1      35.274  19.138   8.454  0.00  0.00    -0.268 OA
BRANCH  12  15
HETATM   15  O   UNK N   1      35.573  17.448  10.485  0.00  0.00    -0.287 OA
HETATM   16  H   UNK N   1      35.415  17.971  11.287  0.00  0.00     0.244 HD
ENDBRANCH  12  15
ENDBRANCH   1  11
TORSDOF 7
ENDMDL
MODEL 2
REMARK VINA RESULT:      -4.8     12.291     13.811
REMARK  7 active torsions:
REMARK  status: ('A' for Active; 'I' for Inactive)
REMARK    1  A    between atoms: N_1  and  O_2 
REMARK       I    between atoms: N_1  and  C_12 
REMARK    2  A    between atoms: C_3  and  C_4 
REMARK    3  A    between atoms: C_3  and  C_8 
REMARK    4  A    between atoms: C_3  and  C_10 
REMARK    5  A    between atoms: C_4  and  C_5 
REMARK    6  A    between atoms: C_10  and  O_11 
REMARK    7  A    between atoms: C_10  and  C_12 
ROOT
HETATM    1  C   UNK N   1      20.496  19.332   3.152  0.00  0.00     0.222 C 
ENDROOT
BRANCH   1   2
HETATM    2  C   UNK N   1      21.223  17.971   3.132  0.00  0.00     0.085 C 
BRANCH   2   3
HETATM    3  C   UNK N   1      20.266  16.925   2.529  0.00  0.00     0.018 C 
BRANCH   3   4
HETATM    4  C   UNK N   1      20.612  16.407   1.134  0.00  0.00    -0.022 C 
HETATM    5  C   UNK N   1      20.954  14.934   1.232  0.00  0.00     0.009 C 
HETATM    6  C   UNK N   1      19.480  16.598   0.146  0.00  0.00     0.009 C 
ENDBRANCH   3   4
ENDBRANCH   2   3
BRANCH   2   7
HETATM    7  C   UNK N   1      21.646  17.583   4.525  0.00  0.00     0.238 C 
HETATM    8  O   UNK N   1      22.679  18.026   5.002  0.00  0.00    -0.306 OA
ENDBRANCH   2   7
ENDBRANCH   1   2
BRANCH   1   9
HETATM    9  O   UNK N   1      20.685  19.946   4.395  0.00  0.00    -0.385 OA
HETATM   10  H   UNK N   1      21.099  20.723   4.806  0.00  0.00     0.210 HD
ENDBRANCH   1   9
BRANCH   1  11
HETATM   11  C   UNK N   1      20.963  20.253   2.048  0.00  0.00     0.270 C 
HETATM   12  N   UNK N   1      20.407  20.167   0.815  0.00  0.00    -0.235 N 
HETATM   13  H   UNK N   1      19.697  19.506   0.647  0.00  0.00     0.197 HD
HETATM   14  O   UNK N   1      21.846  21.066   2.268  0.00  0.00    -0.268 OA
BRANCH  12  15
HETATM   15  O   UNK N   1      20.809  20.972  -0.179  0.00  0.00    -0.287 OA
HETATM   16  H   UNK N   1      21.191  20.596  -0.988  0.00  0.00     0.244 HD
ENDBRANCH  12  15
ENDBRANCH   1  11
TORSDOF 7
ENDMDL
MODEL 3
REMARK VINA RESULT:      -4.7      2.068      3.056
REMARK  7 active torsions:
REMARK  status: ('A' for Active; 'I' for Inactive)
REMARK    1  A    between atoms: N_1  and  O_2 
REMARK       I    between atoms: N_1  and  C_12 
REMARK    2  A    between atoms: C_3  and  C_4 
REMARK    3  A    between atoms: C_3  and  C_8 
REMARK    4  A    between atoms: C_3  and  C_10 
REMARK    5  A    between atoms: C_4  and  C_5 
REMARK    6  A    between atoms: C_10  and  O_11 
REMARK    7  A    between atoms: C_10  and  C_12 
ROOT
HETATM    1  C   UNK N   1      33.709  16.455   8.261  0.00  0.00     0.222 C 
ENDROOT
BRANCH   1   2
HETATM    2  C   UNK N   1      32.619  17.152   7.419  0.00  0.00     0.085 C 
BRANCH   2   3
HETATM    3  C   UNK N   1      31.295  16.395   7.630  0.00  0.00     0.018 C 
BRANCH   3   4
HETATM    4  C   UNK N   1      30.088  17.233   8.049  0.00  0.00    -0.022 C 
HETATM    5  C   UNK N   1      30.563  18.358   8.947  0.00  0.00     0.009 C 
HETATM    6  C   UNK N   1      29.345  17.814   6.863  0.00  0.00     0.009 C 
ENDBRANCH   3   4
ENDBRANCH   2   3
BRANCH   2   7
HETATM    7  C   UNK N   1      33.012  17.168   5.965  0.00  0.00     0.238 C 
HETATM    8  O   UNK N   1      33.949  17.853   5.586  0.00  0.00    -0.306 OA
ENDBRANCH   2   7
ENDBRANCH   1   2
BRANCH   1   9
HETATM    9  O   UNK N   1      34.504  15.658   7.430  0.00  0.00    -0.385 OA
HETATM   10  H   UNK N   1      34.461  15.116   6.625  0.00  0.00     0.210 HD
ENDBRANCH   1   9
BRANCH   1  11
HETATM   11  C   UNK N   1      34.577  17.441   9.010  0.00  0.00     0.270 C 
HETATM   12  N   UNK N   1      34.947  18.603   8.418  0.00  0.00    -0.235 N 
HETATM   13  H   UNK N   1      34.643  18.799   7.503  0.00  0.00     0.197 HD
HETATM   14  O   UNK N   1      34.950  17.184  10.143  0.00  0.00    -0.268 OA
BRANCH  12  15
HETATM   15  O   UNK N   1      35.719  19.489   9.064  0.00  0.00    -0.287 OA
HETATM   16  H   UNK N   1      36.193  19.228   9.869  0.00  0.00     0.244 HD
ENDBRANCH  12  15
ENDBRANCH   1  11
TORSDOF 7
ENDMDL
MODEL 4
REMARK VINA RESULT:      -4.6      1.632      2.866
REMARK  7 active torsions:
REMARK  status: ('A' for Active; 'I' for Inactive)
REMARK    1  A    between atoms: N_1  and  O_2 
REMARK       I    between atoms: N_1  and  C_12 
REMARK    2  A    between atoms: C_3  and  C_4 
REMARK    3  A    between atoms: C_3  and  C_8 
REMARK    4  A    between atoms: C_3  and  C_10 
REMARK    5  A    between atoms: C_4  and  C_5 
REMARK    6  A    between atoms: C_10  and  O_11 
REMARK    7  A    between atoms: C_10  and  C_12 
ROOT
HETATM    1  C   UNK N   1      33.507  15.931   7.580  0.00  0.00     0.222 C 
ENDROOT
BRANCH   1   2
HETATM    2  C   UNK N   1      33.154  17.343   7.062  0.00  0.00     0.085 C 
BRANCH   2   3
HETATM    3  C   UNK N   1      33.664  17.463   5.614  0.00  0.00     0.018 C 
BRANCH   3   4
HETATM    4  C   UNK N   1      32.603  17.630   4.528  0.00  0.00    -0.022 C 
HETATM    5  C   UNK N   1      32.945  16.719   3.367  0.00  0.00     0.009 C 
HETATM    6  C   UNK N   1      31.208  17.312   5.026  0.00  0.00     0.009 C 
ENDBRANCH   3   4
ENDBRANCH   2   3
BRANCH   2   7
HETATM    7  C   UNK N   1      33.773  18.394   7.947  0.00  0.00     0.238 C 
HETATM    8  O   UNK N   1      34.923  18.759   7.758  0.00  0.00    -0.306 OA
ENDBRANCH   2   7
ENDBRANCH   1   2
BRANCH   1   9
HETATM    9  O   UNK N   1      34.897  15.796   7.660  0.00  0.00    -0.385 OA
HETATM   10  H   UNK N   1      35.709  16.318   7.768  0.00  0.00     0.210 HD
ENDBRANCH   1   9
BRANCH   1  11
HETATM   11  C   UNK N   1      32.884  15.638   8.926  0.00  0.00     0.270 C 
HETATM   12  N   UNK N   1      33.671  15.298   9.975  0.00  0.00    -0.235 N 
HETATM   13  H   UNK N   1      34.647  15.249   9.854  0.00  0.00     0.197 HD
HETATM   14  O   UNK N   1      31.673  15.701   9.061  0.00  0.00    -0.268 OA
BRANCH  12  15
HETATM   15  O   UNK N   1      33.139  15.032  11.177  0.00  0.00    -0.287 OA
HETATM   16  H   UNK N   1      32.186  14.869  11.264  0.00  0.00     0.244 HD
ENDBRANCH  12  15
ENDBRANCH   1  11
TORSDOF 7
ENDMDL
MODEL 5
REMARK VINA RESULT:      -4.5      2.444      3.580
REMARK  7 active torsions:
REMARK  status: ('A' for Active; 'I' for Inactive)
REMARK    1  A    between atoms: N_1  and  O_2 
REMARK       I    between atoms: N_1  and  C_12 
REMARK    2  A    between atoms: C_3  and  C_4 
REMARK    3  A    between atoms: C_3  and  C_8 
REMARK    4  A    between atoms: C_3  and  C_10 
REMARK    5  A    between atoms: C_4  and  C_5 
REMARK    6  A    between atoms: C_10  and  O_11 
REMARK    7  A    between atoms: C_10  and  C_12 
ROOT
HETATM    1  C   UNK N   1      33.569  16.091   8.511  0.00  0.00     0.222 C 
ENDROOT
BRANCH   1   2
HETATM    2  C   UNK N   1      33.463  17.614   8.739  0.00  0.00     0.085 C 
BRANCH   2   3
HETATM    3  C   UNK N   1      32.065  18.070   8.280  0.00  0.00     0.018 C 
BRANCH   3   4
HETATM    4  C   UNK N   1      30.988  16.989   8.194  0.00  0.00    -0.022 C 
HETATM    5  C   UNK N   1      29.898  17.306   9.197  0.00  0.00     0.009 C 
HETATM    6  C   UNK N   1      30.385  16.881   6.809  0.00  0.00     0.009 C 
ENDBRANCH   3   4
ENDBRANCH   2   3
BRANCH   2   7
HETATM    7  C   UNK N   1      34.547  18.333   7.978  0.00  0.00     0.238 C 
HETATM    8  O   UNK N   1      35.253  19.155   8.540  0.00  0.00    -0.306 OA
ENDBRANCH   2   7
ENDBRANCH   1   2
BRANCH   1   9
HETATM    9  O   UNK N   1      34.293  15.842   7.340  0.00  0.00    -0.385 OA
HETATM   10  H   UNK N   1      35.202  15.749   7.011  0.00  0.00     0.210 HD
ENDBRANCH   1   9
BRANCH   1  11
HETATM   11  C   UNK N   1      34.215  15.377   9.676  0.00  0.00     0.270 C 
HETATM   12  N   UNK N   1      33.459  14.974  10.726  0.00  0.00    -0.235 N 
HETATM   13  H   UNK N   1      32.490  15.146  10.721  0.00  0.00     0.197 HD
HETATM   14  O   UNK N   1      35.418  15.172   9.672  0.00  0.00    -0.268 OA
BRANCH  12  15
HETATM   15  O   UNK N   1      34.013  14.342  11.771  0.00  0.00    -0.287 OA
HETATM   16  H   UNK N   1      33.921  14.705  12.666  0.00  0.00     0.244 HD
ENDBRANCH  12  15
ENDBRANCH   1  11
TORSDOF 7
ENDMDL
MODEL 6
REMARK VINA RESULT:      -4.5     15.269     17.013
REMARK  7 active torsions:
REMARK  status: ('A' for Active; 'I' for Inactive)
REMARK    1  A    between atoms: N_1  and  O_2 
REMARK       I    between atoms: N_1  and  C_12 
REMARK    2  A    between atoms: C_3  and  C_4 
REMARK    3  A    between atoms: C_3  and  C_8 
REMARK    4  A    between atoms: C_3  and  C_10 
REMARK    5  A    between atoms: C_4  and  C_5 
REMARK    6  A    between atoms: C_10  and  O_11 
REMARK    7  A    between atoms: C_10  and  C_12 
ROOT
HETATM    1  C   UNK N   1      27.030  24.284  -6.056  0.00  0.00     0.222 C 
ENDROOT
BRANCH   1   2
HETATM    2  C   UNK N   1      26.577  25.215  -4.911  0.00  0.00     0.085 C 
BRANCH   2   3
HETATM    3  C   UNK N   1      27.040  26.645  -5.244  0.00  0.00     0.018 C 
BRANCH   3   4
HETATM    4  C   UNK N   1      25.967  27.733  -5.222  0.00  0.00    -0.022 C 
HETATM    5  C   UNK N   1      24.656  27.134  -5.690  0.00  0.00     0.009 C 
HETATM    6  C   UNK N   1      25.783  28.338  -3.846  0.00  0.00     0.009 C 
ENDBRANCH   3   4
ENDBRANCH   2   3
BRANCH   2   7
HETATM    7  C   UNK N   1      27.153  24.748  -3.599  0.00  0.00     0.238 C 
HETATM    8  O   UNK N   1      26.552  23.932  -2.917  0.00  0.00    -0.306 OA
ENDBRANCH   2   7
ENDBRANCH   1   2
BRANCH   1   9
HETATM    9  O   UNK N   1      27.938  23.341  -5.562  0.00  0.00    -0.385 OA
HETATM   10  H   UNK N   1      28.413  23.091  -4.752  0.00  0.00     0.210 HD
ENDBRANCH   1   9
BRANCH   1  11
HETATM   11  C   UNK N   1      25.870  23.580  -6.722  0.00  0.00     0.270 C 
HETATM   12  N   UNK N   1      25.472  23.957  -7.962  0.00  0.00    -0.235 N 
HETATM   13  H   UNK N   1      25.946  24.686  -8.423  0.00  0.00     0.197 HD
HETATM   14  O   UNK N   1      25.289  22.680  -6.137  0.00  0.00    -0.268 OA
BRANCH  12  15
HETATM   15  O   UNK N   1      24.443  23.348  -8.568  0.00  0.00    -0.287 OA
HETATM   16  H   UNK N   1      24.437  22.382  -8.669  0.00  0.00     0.244 HD
ENDBRANCH  12  15
ENDBRANCH   1  11
TORSDOF 7
ENDMDL
MODEL 7
REMARK VINA RESULT:      -4.5      1.115      1.377
REMARK  7 active torsions:
REMARK  status: ('A' for Active; 'I' for Inactive)
REMARK    1  A    between atoms: N_1  and  O_2 
REMARK       I    between atoms: N_1  and  C_12 
REMARK    2  A    between atoms: C_3  and  C_4 
REMARK    3  A    between atoms: C_3  and  C_8 
REMARK    4  A    between atoms: C_3  and  C_10 
REMARK    5  A    between atoms: C_4  and  C_5 
REMARK    6  A    between atoms: C_10  and  O_11 
REMARK    7  A    between atoms: C_10  and  C_12 
ROOT
HETATM    1  C   UNK N   1      32.590  17.542   7.939  0.00  0.00     0.222 C 
ENDROOT
BRANCH   1   2
HETATM    2  C   UNK N   1      32.589  16.607   6.711  0.00  0.00     0.085 C 
BRANCH   2   3
HETATM    3  C   UNK N   1      31.266  16.817   5.950  0.00  0.00     0.018 C 
BRANCH   3   4
HETATM    4  C   UNK N   1      31.372  17.422   4.551  0.00  0.00    -0.022 C 
HETATM    5  C   UNK N   1      32.837  17.585   4.199  0.00  0.00     0.009 C 
HETATM    6  C   UNK N   1      30.691  16.573   3.498  0.00  0.00     0.009 C 
ENDBRANCH   3   4
ENDBRANCH   2   3
BRANCH   2   7
HETATM    7  C   UNK N   1      32.746  15.173   7.146  0.00  0.00     0.238 C 
HETATM    8  O   UNK N   1      31.763  14.468   7.312  0.00  0.00    -0.306 OA
ENDBRANCH   2   7
ENDBRANCH   1   2
BRANCH   1   9
HETATM    9  O   UNK N   1      31.815  16.976   8.959  0.00  0.00    -0.385 OA
HETATM   10  H   UNK N   1      30.916  16.983   9.325  0.00  0.00     0.210 HD
ENDBRANCH   1   9
BRANCH   1  11
HETATM   11  C   UNK N   1      33.985  17.823   8.450  0.00  0.00     0.270 C 
HETATM   12  N   UNK N   1      34.370  17.348   9.660  0.00  0.00    -0.235 N 
HETATM   13  H   UNK N   1      33.738  16.818  10.197  0.00  0.00     0.197 HD
HETATM   14  O   UNK N   1      34.757  18.483   7.775  0.00  0.00    -0.268 OA
BRANCH  12  15
HETATM   15  O   UNK N   1      35.602  17.588  10.132  0.00  0.00    -0.287 OA
HETATM   16  H   UNK N   1      36.119  16.871  10.534  0.00  0.00     0.244 HD
ENDBRANCH  12  15
ENDBRANCH   1  11
TORSDOF 7
ENDMDL
MODEL 8
REMARK VINA RESULT:      -4.5      2.467      3.494
REMARK  7 active torsions:
REMARK  status: ('A' for Active; 'I' for Inactive)
REMARK    1  A    between atoms: N_1  and  O_2 
REMARK       I    between atoms: N_1  and  C_12 
REMARK    2  A    between atoms: C_3  and  C_4 
REMARK    3  A    between atoms: C_3  and  C_8 
REMARK    4  A    between atoms: C_3  and  C_10 
REMARK    5  A    between atoms: C_4  and  C_5 
REMARK    6  A    between atoms: C_10  and  O_11 
REMARK    7  A    between atoms: C_10  and  C_12 
ROOT
HETATM    1  C   UNK N   1      33.351  16.343   7.850  0.00  0.00     0.222 C 
ENDROOT
BRANCH   1   2
HETATM    2  C   UNK N   1      31.905  16.464   7.323  0.00  0.00     0.085 C 
BRANCH   2   3
HETATM    3  C   UNK N   1      30.988  16.798   8.515  0.00  0.00     0.018 C 
BRANCH   3   4
HETATM    4  C   UNK N   1      30.242  18.130   8.450  0.00  0.00    -0.022 C 
HETATM    5  C   UNK N   1      29.076  17.989   7.492  0.00  0.00     0.009 C 
HETATM    6  C   UNK N   1      29.731  18.576   9.804  0.00  0.00     0.009 C 
ENDBRANCH   3   4
ENDBRANCH   2   3
BRANCH   2   7
HETATM    7  C   UNK N   1      31.483  15.181   6.655  0.00  0.00     0.238 C 
HETATM    8  O   UNK N   1      30.457  15.138   5.994  0.00  0.00    -0.306 OA
ENDBRANCH   2   7
ENDBRANCH   1   2
BRANCH   1   9
HETATM    9  O   UNK N   1      33.992  15.272   7.217  0.00  0.00    -0.385 OA
HETATM   10  H   UNK N   1      34.062  14.826   6.356  0.00  0.00     0.210 HD
ENDBRANCH   1   9
BRANCH   1  11
HETATM   11  C   UNK N   1      34.147  17.611   7.645  0.00  0.00     0.270 C 
HETATM   12  N   UNK N   1      34.691  18.248   8.710  0.00  0.00    -0.235 N 
HETATM   13  H   UNK N   1      34.566  17.877   9.613  0.00  0.00     0.197 HD
HETATM   14  O   UNK N   1      34.292  18.063   6.520  0.00  0.00    -0.268 OA
BRANCH  12  15
HETATM   15  O   UNK N   1      35.398  19.376   8.551  0.00  0.00    -0.287 OA
HETATM   16  H   UNK N   1      35.727  19.861   9.325  0.00  0.00     0.244 HD
ENDBRANCH  12  15
ENDBRANCH   1  11
TORSDOF 7
ENDMDL
MODEL 9
REMARK VINA RESULT:      -4.4      1.977      3.588
REMARK  7 active torsions:
REMARK  status: ('A' for Active; 'I' for Inactive)
REMARK    1  A    between atoms: N_1  and  O_2 
REMARK       I    between atoms: N_1  and  C_12 
REMARK    2  A    between atoms: C_3  and  C_4 
REMARK    3  A    between atoms: C_3  and  C_8 
REMARK    4  A    between atoms: C_3  and  C_10 
REMARK    5  A    between atoms: C_4  and  C_5 
REMARK    6  A    between atoms: C_10  and  O_11 
REMARK    7  A    between atoms: C_10  and  C_12 
ROOT
HETATM    1  C   UNK N   1      32.400  16.993   8.164  0.00  0.00     0.222 C 
ENDROOT
BRANCH   1   2
HETATM    2  C   UNK N   1      33.371  18.031   7.562  0.00  0.00     0.085 C 
BRANCH   2   3
HETATM    3  C   UNK N   1      33.716  17.588   6.128  0.00  0.00     0.018 C 
BRANCH   3   4
HETATM    4  C   UNK N   1      33.548  16.102   5.813  0.00  0.00    -0.022 C 
HETATM    5  C   UNK N   1      32.789  15.963   4.509  0.00  0.00     0.009 C 
HETATM    6  C   UNK N   1      34.874  15.378   5.705  0.00  0.00     0.009 C 
ENDBRANCH   3   4
ENDBRANCH   2   3
BRANCH   2   7
HETATM    7  C   UNK N   1      34.612  18.140   8.411  0.00  0.00     0.238 C 
HETATM    8  O   UNK N   1      35.243  19.184   8.450  0.00  0.00    -0.306 OA
ENDBRANCH   2   7
ENDBRANCH   1   2
BRANCH   1   9
HETATM    9  O   UNK N   1      32.889  16.556   9.401  0.00  0.00    -0.385 OA
HETATM   10  H   UNK N   1      33.704  16.257   9.835  0.00  0.00     0.210 HD
ENDBRANCH   1   9
BRANCH   1  11
HETATM   11  C   UNK N   1      31.001  17.540   8.329  0.00  0.00     0.270 C 
HETATM   12  N   UNK N   1      30.653  18.171   9.477  0.00  0.00    -0.235 N 
HETATM   13  H   UNK N   1      31.317  18.272  10.196  0.00  0.00     0.197 HD
HETATM   14  O   UNK N   1      30.186  17.405   7.431  0.00  0.00    -0.268 OA
BRANCH  12  15
HETATM   15  O   UNK N   1      29.416  18.661   9.645  0.00  0.00    -0.287 OA
HETATM   16  H   UNK N   1      28.899  18.956   8.879  0.00  0.00     0.244 HD
ENDBRANCH  12  15
ENDBRANCH   1  11
TORSDOF 7
ENDMDL
