MODEL 1
REMARK VINA RESULT:      -7.0      0.000      0.000
REMARK  5 active torsions:
REMARK  status: ('A' for Active; 'I' for Inactive)
REMARK    1  A    between atoms: N_7  and  C_14 
REMARK    2  A    between atoms: N_7  and  C_17 
REMARK    3  A    between atoms: C_12  and  C_13 
REMARK    4  A    between atoms: C_17  and  C_18 
REMARK    5  A    between atoms: C_18  and  C_19 
ROOT
HETATM    1  N   UNK N   1      28.838  17.972   5.237  0.00  0.00    -0.326 N 
ATOM      2  HN  UNK N   1      28.948  18.020   4.224  1.00  0.00     0.169 HD
HETATM    3  N   UNK N   1      27.546  18.420   7.134  0.00  0.00    -0.343 N 
ATOM      4  HN  UNK N   1      26.695  18.798   7.551  1.00  0.00     0.167 HD
HETATM    5  C   UNK N   1      27.713  18.472   5.788  0.00  0.00     0.134 A 
HETATM    6  C   UNK N   1      29.823  17.413   5.968  0.00  0.00     0.126 A 
HETATM    7  C   UNK N   1      28.502  17.868   7.936  0.00  0.00     0.032 A 
HETATM    8  C   UNK N   1      29.684  17.342   7.368  0.00  0.00     0.100 A 
HETATM    9  C   UNK N   1      28.276  17.830   9.408  0.00  0.00     0.070 C 
HETATM   10 Cl   UNK N   1      30.922  16.626   8.404  0.00  0.00    -0.078 Cl
ENDROOT
BRANCH   6  11
HETATM   11  N   UNK N   1      30.933  16.937   5.238  0.00  0.00    -0.374 N 
HETATM   12  H   UNK N   1      31.040  15.960   5.275  0.00  0.00     0.161 HD
BRANCH  11  13
HETATM   13  C   UNK N   1      31.932  17.594   4.457  0.00  0.00     0.126 C 
BRANCH  13  14
HETATM   14  C   UNK N   1      33.338  17.036   4.808  0.00  0.00     0.058 C 
BRANCH  14  15
HETATM   15  C   UNK N   1      33.805  16.858   6.256  0.00  0.00    -0.057 A 
HETATM   16  C   UNK N   1      33.932  18.001   7.055  0.00  0.00     0.007 A 
HETATM   17  C   UNK N   1      34.353  17.896   8.388  0.00  0.00     0.001 A 
HETATM   18  C   UNK N   1      34.652  16.647   8.937  0.00  0.00     0.000 A 
HETATM   19  C   UNK N   1      34.530  15.500   8.155  0.00  0.00     0.001 A 
HETATM   20  C   UNK N   1      34.111  15.608   6.830  0.00  0.00     0.007 A 
ENDBRANCH  14  15
ENDBRANCH  13  14
ENDBRANCH  11  13
ENDBRANCH   6  11
BRANCH   5  21
HETATM   21  C   UNK N   1      26.708  19.060   4.890  0.00  0.00     0.076 A 
HETATM   22  N   UNK N   1      25.399  18.711   5.047  0.00  0.00    -0.363 N 
HETATM   23  C   UNK N   1      24.418  19.216   4.253  0.00  0.00     0.088 A 
ATOM     24  HN  UNK N   1      25.148  18.050   5.783  1.00  0.00     0.165 HD
HETATM   25  C   UNK N   1      24.740  20.120   3.242  0.00  0.00     0.017 A 
HETATM   26  C   UNK N   1      26.073  20.494   3.059  0.00  0.00     0.004 A 
HETATM   27  C   UNK N   1      27.067  19.965   3.885  0.00  0.00     0.033 A 
ENDBRANCH   5  21
TORSDOF 5
ENDMDL
MODEL 2
REMARK VINA RESULT:      -6.9      5.845      9.521
REMARK  5 active torsions:
REMARK  status: ('A' for Active; 'I' for Inactive)
REMARK    1  A    between atoms: N_7  and  C_14 
REMARK    2  A    between atoms: N_7  and  C_17 
REMARK    3  A    between atoms: C_12  and  C_13 
REMARK    4  A    between atoms: C_17  and  C_18 
REMARK    5  A    between atoms: C_18  and  C_19 
ROOT
HETATM    1  N   UNK N   1      22.965  17.514   5.705  0.00  0.00    -0.326 N 
ATOM      2  HN  UNK N   1      23.733  17.399   6.366  1.00  0.00     0.169 HD
HETATM    3  N   UNK N   1      22.138  18.483   3.743  0.00  0.00    -0.343 N 
ATOM      4  HN  UNK N   1      22.276  19.089   2.934  1.00  0.00     0.167 HD
HETATM    5  C   UNK N   1      23.147  18.316   4.636  0.00  0.00     0.134 A 
HETATM    6  C   UNK N   1      21.811  16.857   5.936  0.00  0.00     0.126 A 
HETATM    7  C   UNK N   1      20.942  17.849   3.914  0.00  0.00     0.032 A 
HETATM    8  C   UNK N   1      20.741  17.007   5.031  0.00  0.00     0.100 A 
HETATM    9  C   UNK N   1      19.863  18.060   2.909  0.00  0.00     0.070 C 
HETATM   10 Cl   UNK N   1      19.194  16.185   5.254  0.00  0.00    -0.078 Cl
ENDROOT
BRANCH   6  11
HETATM   11  N   UNK N   1      21.783  16.058   7.098  0.00  0.00    -0.374 N 
HETATM   12  H   UNK N   1      22.469  15.353   7.109  0.00  0.00     0.161 HD
BRANCH  11  13
HETATM   13  C   UNK N   1      20.955  16.069   8.262  0.00  0.00     0.126 C 
BRANCH  13  14
HETATM   14  C   UNK N   1      20.472  14.630   8.589  0.00  0.00     0.058 C 
BRANCH  14  15
HETATM   15  C   UNK N   1      21.237  13.713   9.548  0.00  0.00    -0.057 A 
HETATM   16  C   UNK N   1      20.511  13.025  10.527  0.00  0.00     0.007 A 
HETATM   17  C   UNK N   1      21.160  12.171  11.429  0.00  0.00     0.001 A 
HETATM   18  C   UNK N   1      22.544  11.996  11.362  0.00  0.00     0.000 A 
HETATM   19  C   UNK N   1      23.283  12.673  10.394  0.00  0.00     0.001 A 
HETATM   20  C   UNK N   1      22.633  13.521   9.498  0.00  0.00     0.007 A 
ENDBRANCH  14  15
ENDBRANCH  13  14
ENDBRANCH  11  13
ENDBRANCH   6  11
BRANCH   5  21
HETATM   21  C   UNK N   1      24.450  18.982   4.488  0.00  0.00     0.076 A 
HETATM   22  N   UNK N   1      25.390  18.816   5.462  0.00  0.00    -0.363 N 
HETATM   23  C   UNK N   1      26.614  19.401   5.390  0.00  0.00     0.088 A 
ATOM     24  HN  UNK N   1      25.167  18.235   6.271  1.00  0.00     0.165 HD
HETATM   25  C   UNK N   1      26.939  20.199   4.293  0.00  0.00     0.017 A 
HETATM   26  C   UNK N   1      25.995  20.385   3.282  0.00  0.00     0.004 A 
HETATM   27  C   UNK N   1      24.742  19.775   3.373  0.00  0.00     0.033 A 
ENDBRANCH   5  21
TORSDOF 5
ENDMDL
MODEL 3
REMARK VINA RESULT:      -6.7      6.957     10.050
REMARK  5 active torsions:
REMARK  status: ('A' for Active; 'I' for Inactive)
REMARK    1  A    between atoms: N_7  and  C_14 
REMARK    2  A    between atoms: N_7  and  C_17 
REMARK    3  A    between atoms: C_12  and  C_13 
REMARK    4  A    between atoms: C_17  and  C_18 
REMARK    5  A    between atoms: C_18  and  C_19 
ROOT
HETATM    1  N   UNK N   1      34.449  14.265  11.097  0.00  0.00    -0.326 N 
ATOM      2  HN  UNK N   1      33.491  14.341  11.439  1.00  0.00     0.169 HD
HETATM    3  N   UNK N   1      36.086  14.927   9.562  0.00  0.00    -0.343 N 
ATOM      4  HN  UNK N   1      36.364  15.492   8.760  1.00  0.00     0.167 HD
HETATM    5  C   UNK N   1      34.816  15.012  10.036  0.00  0.00     0.134 A 
HETATM    6  C   UNK N   1      35.294  13.423  11.724  0.00  0.00     0.126 A 
HETATM    7  C   UNK N   1      36.995  14.095  10.148  0.00  0.00     0.032 A 
HETATM    8  C   UNK N   1      36.620  13.307  11.260  0.00  0.00     0.100 A 
HETATM    9  C   UNK N   1      38.378  14.034   9.597  0.00  0.00     0.070 C 
HETATM   10 Cl   UNK N   1      37.795  12.231  12.020  0.00  0.00    -0.078 Cl
ENDROOT
BRANCH   6  11
HETATM   11  N   UNK N   1      34.754  12.715  12.818  0.00  0.00    -0.374 N 
HETATM   12  H   UNK N   1      34.392  11.831  12.577  0.00  0.00     0.161 HD
BRANCH  11  13
HETATM   13  C   UNK N   1      34.628  13.026  14.206  0.00  0.00     0.126 C 
BRANCH  13  14
HETATM   14  C   UNK N   1      35.441  12.013  15.057  0.00  0.00     0.058 C 
BRANCH  14  15
HETATM   15  C   UNK N   1      35.430  12.044  16.589  0.00  0.00    -0.057 A 
HETATM   16  C   UNK N   1      35.183  13.267  17.224  0.00  0.00     0.007 A 
HETATM   17  C   UNK N   1      35.160  13.353  18.623  0.00  0.00     0.001 A 
HETATM   18  C   UNK N   1      35.383  12.216  19.403  0.00  0.00     0.000 A 
HETATM   19  C   UNK N   1      35.630  10.990  18.787  0.00  0.00     0.001 A 
HETATM   20  C   UNK N   1      35.652  10.910  17.395  0.00  0.00     0.007 A 
ENDBRANCH  14  15
ENDBRANCH  13  14
ENDBRANCH  11  13
ENDBRANCH   6  11
BRANCH   5  21
HETATM   21  C   UNK N   1      33.807  15.895   9.432  0.00  0.00     0.076 A 
HETATM   22  N   UNK N   1      32.499  15.507   9.443  0.00  0.00    -0.363 N 
HETATM   23  C   UNK N   1      31.515  16.274   8.904  0.00  0.00     0.088 A 
ATOM     24  HN  UNK N   1      32.252  14.613   9.868  1.00  0.00     0.165 HD
HETATM   25  C   UNK N   1      31.832  17.499   8.318  0.00  0.00     0.017 A 
HETATM   26  C   UNK N   1      33.163  17.920   8.293  0.00  0.00     0.004 A 
HETATM   27  C   UNK N   1      34.160  17.119   8.853  0.00  0.00     0.033 A 
ENDBRANCH   5  21
TORSDOF 5
ENDMDL
MODEL 4
REMARK VINA RESULT:      -6.5      5.657     10.603
REMARK  5 active torsions:
REMARK  status: ('A' for Active; 'I' for Inactive)
REMARK    1  A    between atoms: N_7  and  C_14 
REMARK    2  A    between atoms: N_7  and  C_17 
REMARK    3  A    between atoms: C_12  and  C_13 
REMARK    4  A    between atoms: C_17  and  C_18 
REMARK    5  A    between atoms: C_18  and  C_19 
ROOT
HETATM    1  N   UNK N   1      35.913  14.601  11.332  0.00  0.00    -0.326 N 
ATOM      2  HN  UNK N   1      35.141  15.114  11.759  1.00  0.00     0.169 HD
HETATM    3  N   UNK N   1      37.717  13.131  11.568  0.00  0.00    -0.343 N 
ATOM      4  HN  UNK N   1      38.300  12.541  12.161  1.00  0.00     0.167 HD
HETATM    5  C   UNK N   1      36.684  13.821  12.116  0.00  0.00     0.134 A 
HETATM    6  C   UNK N   1      36.119  14.733  10.006  0.00  0.00     0.126 A 
HETATM    7  C   UNK N   1      37.983  13.217  10.233  0.00  0.00     0.032 A 
HETATM    8  C   UNK N   1      37.182  14.033   9.402  0.00  0.00     0.100 A 
HETATM    9  C   UNK N   1      39.126  12.442   9.673  0.00  0.00     0.070 C 
HETATM   10 Cl   UNK N   1      37.525  14.145   7.674  0.00  0.00    -0.078 Cl
ENDROOT
BRANCH   6  11
HETATM   11  N   UNK N   1      35.223  15.587   9.328  0.00  0.00    -0.374 N 
HETATM   12  H   UNK N   1      34.931  15.241   8.454  0.00  0.00     0.161 HD
BRANCH  11  13
HETATM   13  C   UNK N   1      34.655  16.855   9.660  0.00  0.00     0.126 C 
BRANCH  13  14
HETATM   14  C   UNK N   1      34.520  17.731   8.385  0.00  0.00     0.058 C 
BRANCH  14  15
HETATM   15  C   UNK N   1      33.389  17.525   7.372  0.00  0.00    -0.057 A 
HETATM   16  C   UNK N   1      33.716  17.501   6.011  0.00  0.00     0.007 A 
HETATM   17  C   UNK N   1      32.722  17.314   5.042  0.00  0.00     0.001 A 
HETATM   18  C   UNK N   1      31.388  17.149   5.423  0.00  0.00     0.000 A 
HETATM   19  C   UNK N   1      31.045  17.171   6.773  0.00  0.00     0.001 A 
HETATM   20  C   UNK N   1      32.038  17.357   7.734  0.00  0.00     0.007 A 
ENDBRANCH  14  15
ENDBRANCH  13  14
ENDBRANCH  11  13
ENDBRANCH   6  11
BRANCH   5  21
HETATM   21  C   UNK N   1      36.364  13.756  13.550  0.00  0.00     0.076 A 
HETATM   22  N   UNK N   1      37.105  14.494  14.425  0.00  0.00    -0.363 N 
HETATM   23  C   UNK N   1      36.864  14.481  15.763  0.00  0.00     0.088 A 
ATOM     24  HN  UNK N   1      37.865  15.072  14.066  1.00  0.00     0.165 HD
HETATM   25  C   UNK N   1      35.832  13.697  16.275  0.00  0.00     0.017 A 
HETATM   26  C   UNK N   1      35.057  12.932  15.401  0.00  0.00     0.004 A 
HETATM   27  C   UNK N   1      35.319  12.958  14.029  0.00  0.00     0.033 A 
ENDBRANCH   5  21
TORSDOF 5
ENDMDL
MODEL 5
REMARK VINA RESULT:      -6.4      6.670      9.742
REMARK  5 active torsions:
REMARK  status: ('A' for Active; 'I' for Inactive)
REMARK    1  A    between atoms: N_7  and  C_14 
REMARK    2  A    between atoms: N_7  and  C_17 
REMARK    3  A    between atoms: C_12  and  C_13 
REMARK    4  A    between atoms: C_17  and  C_18 
REMARK    5  A    between atoms: C_18  and  C_19 
ROOT
HETATM    1  N   UNK N   1      35.058  14.728  10.944  0.00  0.00    -0.326 N 
ATOM      2  HN  UNK N   1      35.301  15.675  11.235  1.00  0.00     0.169 HD
HETATM    3  N   UNK N   1      33.831  13.317   9.538  0.00  0.00    -0.343 N 
ATOM      4  HN  UNK N   1      33.160  13.197   8.780  1.00  0.00     0.167 HD
HETATM    5  C   UNK N   1      34.170  14.569   9.942  0.00  0.00     0.134 A 
HETATM    6  C   UNK N   1      35.637  13.688  11.578  0.00  0.00     0.126 A 
HETATM    7  C   UNK N   1      34.379  12.219  10.135  0.00  0.00     0.032 A 
HETATM    8  C   UNK N   1      35.309  12.375  11.187  0.00  0.00     0.100 A 
HETATM    9  C   UNK N   1      33.979  10.865   9.660  0.00  0.00     0.070 C 
HETATM   10 Cl   UNK N   1      36.019  10.955  11.960  0.00  0.00    -0.078 Cl
ENDROOT
BRANCH   6  11
HETATM   11  N   UNK N   1      36.545  14.025  12.605  0.00  0.00    -0.374 N 
HETATM   12  H   UNK N   1      37.461  14.186  12.284  0.00  0.00     0.161 HD
BRANCH  11  13
HETATM   13  C   UNK N   1      36.396  14.179  14.017  0.00  0.00     0.126 C 
BRANCH  13  14
HETATM   14  C   UNK N   1      36.549  12.805  14.724  0.00  0.00     0.058 C 
BRANCH  14  15
HETATM   15  C   UNK N   1      36.057  12.567  16.155  0.00  0.00    -0.057 A 
HETATM   16  C   UNK N   1      36.092  11.262  16.659  0.00  0.00     0.007 A 
HETATM   17  C   UNK N   1      35.656  10.988  17.962  0.00  0.00     0.001 A 
HETATM   18  C   UNK N   1      35.180  12.017  18.777  0.00  0.00     0.000 A 
HETATM   19  C   UNK N   1      35.138  13.322  18.291  0.00  0.00     0.001 A 
HETATM   20  C   UNK N   1      35.572  13.590  16.994  0.00  0.00     0.007 A 
ENDBRANCH  14  15
ENDBRANCH  13  14
ENDBRANCH  11  13
ENDBRANCH   6  11
BRANCH   5  21
HETATM   21  C   UNK N   1      33.603  15.777   9.326  0.00  0.00     0.076 A 
HETATM   22  N   UNK N   1      32.249  15.875   9.191  0.00  0.00    -0.363 N 
HETATM   23  C   UNK N   1      31.657  16.964   8.632  0.00  0.00     0.088 A 
ATOM     24  HN  UNK N   1      31.662  15.108   9.519  1.00  0.00     0.165 HD
HETATM   25  C   UNK N   1      32.442  18.023   8.176  0.00  0.00     0.017 A 
HETATM   26  C   UNK N   1      33.830  17.948   8.301  0.00  0.00     0.004 A 
HETATM   27  C   UNK N   1      34.420  16.822   8.880  0.00  0.00     0.033 A 
ENDBRANCH   5  21
TORSDOF 5
ENDMDL
MODEL 6
REMARK VINA RESULT:      -6.4      3.631      5.578
REMARK  5 active torsions:
REMARK  status: ('A' for Active; 'I' for Inactive)
REMARK    1  A    between atoms: N_7  and  C_14 
REMARK    2  A    between atoms: N_7  and  C_17 
REMARK    3  A    between atoms: C_12  and  C_13 
REMARK    4  A    between atoms: C_17  and  C_18 
REMARK    5  A    between atoms: C_18  and  C_19 
ROOT
HETATM    1  N   UNK N   1      32.616  15.270   7.930  0.00  0.00    -0.326 N 
ATOM      2  HN  UNK N   1      31.892  14.967   7.279  1.00  0.00     0.169 HD
HETATM    3  N   UNK N   1      33.347  16.795   9.546  0.00  0.00    -0.343 N 
ATOM      4  HN  UNK N   1      33.180  17.630  10.109  1.00  0.00     0.167 HD
HETATM    5  C   UNK N   1      32.396  16.374   8.673  0.00  0.00     0.134 A 
HETATM    6  C   UNK N   1      33.754  14.551   8.011  0.00  0.00     0.126 A 
HETATM    7  C   UNK N   1      34.522  16.116   9.680  0.00  0.00     0.032 A 
HETATM    8  C   UNK N   1      34.763  14.959   8.906  0.00  0.00     0.100 A 
HETATM    9  C   UNK N   1      35.537  16.613  10.651  0.00  0.00     0.070 C 
HETATM   10 Cl   UNK N   1      36.283  14.077   9.078  0.00  0.00    -0.078 Cl
ENDROOT
BRANCH   6  11
HETATM   11  N   UNK N   1      33.827  13.423   7.166  0.00  0.00    -0.374 N 
HETATM   12  H   UNK N   1      33.323  12.646   7.500  0.00  0.00     0.161 HD
BRANCH  11  13
HETATM   13  C   UNK N   1      34.487  13.186   5.923  0.00  0.00     0.126 C 
BRANCH  13  14
HETATM   14  C   UNK N   1      34.950  14.530   5.298  0.00  0.00     0.058 C 
BRANCH  14  15
HETATM   15  C   UNK N   1      33.966  15.504   4.642  0.00  0.00    -0.057 A 
HETATM   16  C   UNK N   1      33.836  16.785   5.193  0.00  0.00     0.007 A 
HETATM   17  C   UNK N   1      32.952  17.716   4.632  0.00  0.00     0.001 A 
HETATM   18  C   UNK N   1      32.186  17.377   3.514  0.00  0.00     0.000 A 
HETATM   19  C   UNK N   1      32.303  16.107   2.954  0.00  0.00     0.001 A 
HETATM   20  C   UNK N   1      33.184  15.183   3.515  0.00  0.00     0.007 A 
ENDBRANCH  14  15
ENDBRANCH  13  14
ENDBRANCH  11  13
ENDBRANCH   6  11
BRANCH   5  21
HETATM   21  C   UNK N   1      31.118  17.079   8.498  0.00  0.00     0.076 A 
HETATM   22  N   UNK N   1      30.607  17.788   9.545  0.00  0.00    -0.363 N 
HETATM   23  C   UNK N   1      29.431  18.464   9.453  0.00  0.00     0.088 A 
ATOM     24  HN  UNK N   1      31.123  17.813  10.425  1.00  0.00     0.165 HD
HETATM   25  C   UNK N   1      28.710  18.442   8.260  0.00  0.00     0.017 A 
HETATM   26  C   UNK N   1      29.210  17.723   7.172  0.00  0.00     0.004 A 
HETATM   27  C   UNK N   1      30.421  17.036   7.286  0.00  0.00     0.033 A 
ENDBRANCH   5  21
TORSDOF 5
ENDMDL
MODEL 7
REMARK VINA RESULT:      -6.4     11.421     15.393
REMARK  5 active torsions:
REMARK  status: ('A' for Active; 'I' for Inactive)
REMARK    1  A    between atoms: N_7  and  C_14 
REMARK    2  A    between atoms: N_7  and  C_17 
REMARK    3  A    between atoms: C_12  and  C_13 
REMARK    4  A    between atoms: C_17  and  C_18 
REMARK    5  A    between atoms: C_18  and  C_19 
ROOT
HETATM    1  N   UNK N   1      27.702  25.028  -3.792  0.00  0.00    -0.326 N 
ATOM      2  HN  UNK N   1      28.181  25.178  -2.904  1.00  0.00     0.169 HD
HETATM    3  N   UNK N   1      27.487  23.796  -5.769  0.00  0.00    -0.343 N 
ATOM      4  HN  UNK N   1      27.795  23.029  -6.367  1.00  0.00     0.167 HD
HETATM    5  C   UNK N   1      28.110  24.014  -4.582  0.00  0.00     0.134 A 
HETATM    6  C   UNK N   1      26.688  25.852  -4.127  0.00  0.00     0.126 A 
HETATM    7  C   UNK N   1      26.454  24.591  -6.171  0.00  0.00     0.032 A 
HETATM    8  C   UNK N   1      26.019  25.657  -5.351  0.00  0.00     0.100 A 
HETATM    9  C   UNK N   1      25.798  24.315  -7.481  0.00  0.00     0.070 C 
HETATM   10 Cl   UNK N   1      24.681  26.686  -5.870  0.00  0.00    -0.078 Cl
ENDROOT
BRANCH   6  11
HETATM   11  N   UNK N   1      26.385  26.862  -3.189  0.00  0.00    -0.374 N 
HETATM   12  H   UNK N   1      25.680  26.609  -2.551  0.00  0.00     0.161 HD
BRANCH  11  13
HETATM   13  C   UNK N   1      26.899  28.179  -2.985  0.00  0.00     0.126 C 
BRANCH  13  14
HETATM   14  C   UNK N   1      26.500  29.099  -4.170  0.00  0.00     0.058 C 
BRANCH  14  15
HETATM   15  C   UNK N   1      27.480  29.447  -5.295  0.00  0.00    -0.057 A 
HETATM   16  C   UNK N   1      28.210  30.637  -5.192  0.00  0.00     0.007 A 
HETATM   17  C   UNK N   1      29.122  31.004  -6.191  0.00  0.00     0.001 A 
HETATM   18  C   UNK N   1      29.314  30.184  -7.305  0.00  0.00     0.000 A 
HETATM   19  C   UNK N   1      28.596  28.996  -7.424  0.00  0.00     0.001 A 
HETATM   20  C   UNK N   1      27.690  28.635  -6.428  0.00  0.00     0.007 A 
ENDBRANCH  14  15
ENDBRANCH  13  14
ENDBRANCH  11  13
ENDBRANCH   6  11
BRANCH   5  21
HETATM   21  C   UNK N   1      29.227  23.182  -4.113  0.00  0.00     0.076 A 
HETATM   22  N   UNK N   1      29.604  22.103  -4.857  0.00  0.00    -0.363 N 
HETATM   23  C   UNK N   1      30.628  21.291  -4.484  0.00  0.00     0.088 A 
ATOM     24  HN  UNK N   1      29.101  21.897  -5.721  1.00  0.00     0.165 HD
HETATM   25  C   UNK N   1      31.328  21.554  -3.307  0.00  0.00     0.017 A 
HETATM   26  C   UNK N   1      30.963  22.652  -2.526  0.00  0.00     0.004 A 
HETATM   27  C   UNK N   1      29.908  23.475  -2.927  0.00  0.00     0.033 A 
ENDBRANCH   5  21
TORSDOF 5
ENDMDL
MODEL 8
REMARK VINA RESULT:      -6.2      6.253      9.629
REMARK  5 active torsions:
REMARK  status: ('A' for Active; 'I' for Inactive)
REMARK    1  A    between atoms: N_7  and  C_14 
REMARK    2  A    between atoms: N_7  and  C_17 
REMARK    3  A    between atoms: C_12  and  C_13 
REMARK    4  A    between atoms: C_17  and  C_18 
REMARK    5  A    between atoms: C_18  and  C_19 
ROOT
HETATM    1  N   UNK N   1      35.001  15.079  11.163  0.00  0.00    -0.326 N 
ATOM      2  HN  UNK N   1      34.350  15.635  11.717  1.00  0.00     0.169 HD
HETATM    3  N   UNK N   1      35.866  14.504   9.067  0.00  0.00    -0.343 N 
ATOM      4  HN  UNK N   1      35.871  14.623   8.054  1.00  0.00     0.167 HD
HETATM    5  C   UNK N   1      35.008  15.235   9.824  0.00  0.00     0.134 A 
HETATM    6  C   UNK N   1      35.818  14.216  11.801  0.00  0.00     0.126 A 
HETATM    7  C   UNK N   1      36.721  13.612   9.646  0.00  0.00     0.032 A 
HETATM    8  C   UNK N   1      36.721  13.440  11.049  0.00  0.00     0.100 A 
HETATM    9  C   UNK N   1      37.646  12.831   8.778  0.00  0.00     0.070 C 
HETATM   10 Cl   UNK N   1      37.827  12.287  11.800  0.00  0.00    -0.078 Cl
ENDROOT
BRANCH   6  11
HETATM   11  N   UNK N   1      35.686  14.172  13.206  0.00  0.00    -0.374 N 
HETATM   12  H   UNK N   1      34.850  13.752  13.511  0.00  0.00     0.161 HD
BRANCH  11  13
HETATM   13  C   UNK N   1      36.527  14.617  14.271  0.00  0.00     0.126 C 
BRANCH  13  14
HETATM   14  C   UNK N   1      36.414  13.649  15.481  0.00  0.00     0.058 C 
BRANCH  14  15
HETATM   15  C   UNK N   1      35.914  12.209  15.326  0.00  0.00    -0.057 A 
HETATM   16  C   UNK N   1      36.862  11.196  15.136  0.00  0.00     0.007 A 
HETATM   17  C   UNK N   1      36.461   9.862  14.991  0.00  0.00     0.001 A 
HETATM   18  C   UNK N   1      35.106   9.524  15.034  0.00  0.00     0.000 A 
HETATM   19  C   UNK N   1      34.149  10.520  15.222  0.00  0.00     0.001 A 
HETATM   20  C   UNK N   1      34.553  11.846  15.366  0.00  0.00     0.007 A 
ENDBRANCH  14  15
ENDBRANCH  13  14
ENDBRANCH  11  13
ENDBRANCH   6  11
BRANCH   5  21
HETATM   21  C   UNK N   1      34.070  16.206   9.239  0.00  0.00     0.076 A 
HETATM   22  N   UNK N   1      32.735  15.932   9.267  0.00  0.00    -0.363 N 
HETATM   23  C   UNK N   1      31.813  16.784   8.746  0.00  0.00     0.088 A 
ATOM     24  HN  UNK N   1      32.417  15.060   9.692  1.00  0.00     0.165 HD
HETATM   25  C   UNK N   1      32.226  17.980   8.161  0.00  0.00     0.017 A 
HETATM   26  C   UNK N   1      33.588  18.285   8.118  0.00  0.00     0.004 A 
HETATM   27  C   UNK N   1      34.520  17.397   8.660  0.00  0.00     0.033 A 
ENDBRANCH   5  21
TORSDOF 5
ENDMDL
MODEL 9
REMARK VINA RESULT:      -6.2      4.959      7.337
REMARK  5 active torsions:
REMARK  status: ('A' for Active; 'I' for Inactive)
REMARK    1  A    between atoms: N_7  and  C_14 
REMARK    2  A    between atoms: N_7  and  C_17 
REMARK    3  A    between atoms: C_12  and  C_13 
REMARK    4  A    between atoms: C_17  and  C_18 
REMARK    5  A    between atoms: C_18  and  C_19 
ROOT
HETATM    1  N   UNK N   1      23.890  18.044   4.657  0.00  0.00    -0.326 N 
ATOM      2  HN  UNK N   1      24.863  18.155   4.943  1.00  0.00     0.169 HD
HETATM    3  N   UNK N   1      21.927  16.772   4.681  0.00  0.00    -0.343 N 
ATOM      4  HN  UNK N   1      21.422  15.938   4.980  1.00  0.00     0.167 HD
HETATM    5  C   UNK N   1      23.223  16.941   5.051  0.00  0.00     0.134 A 
HETATM    6  C   UNK N   1      23.326  19.006   3.900  0.00  0.00     0.126 A 
HETATM    7  C   UNK N   1      21.293  17.706   3.915  0.00  0.00     0.032 A 
HETATM    8  C   UNK N   1      21.983  18.865   3.496  0.00  0.00     0.100 A 
HETATM    9  C   UNK N   1      19.870  17.482   3.534  0.00  0.00     0.070 C 
HETATM   10 Cl   UNK N   1      21.164  20.076   2.506  0.00  0.00    -0.078 Cl
ENDROOT
BRANCH   6  11
HETATM   11  N   UNK N   1      24.160  20.097   3.573  0.00  0.00    -0.374 N 
HETATM   12  H   UNK N   1      24.055  20.868   4.176  0.00  0.00     0.161 HD
BRANCH  11  13
HETATM   13  C   UNK N   1      25.126  20.302   2.542  0.00  0.00     0.126 C 
BRANCH  13  14
HETATM   14  C   UNK N   1      26.483  20.738   3.159  0.00  0.00     0.058 C 
BRANCH  14  15
HETATM   15  C   UNK N   1      27.086  20.033   4.379  0.00  0.00    -0.057 A 
HETATM   16  C   UNK N   1      27.032  20.687   5.615  0.00  0.00     0.007 A 
HETATM   17  C   UNK N   1      27.566  20.088   6.763  0.00  0.00     0.001 A 
HETATM   18  C   UNK N   1      28.160  18.826   6.689  0.00  0.00     0.000 A 
HETATM   19  C   UNK N   1      28.223  18.161   5.466  0.00  0.00     0.001 A 
HETATM   20  C   UNK N   1      27.690  18.761   4.326  0.00  0.00     0.007 A 
ENDBRANCH  14  15
ENDBRANCH  13  14
ENDBRANCH  11  13
ENDBRANCH   6  11
BRANCH   5  21
HETATM   21  C   UNK N   1      23.942  15.958   5.874  0.00  0.00     0.076 A 
HETATM   22  N   UNK N   1      23.225  15.050   6.597  0.00  0.00    -0.363 N 
HETATM   23  C   UNK N   1      23.825  14.114   7.378  0.00  0.00     0.088 A 
ATOM     24  HN  UNK N   1      22.206  15.075   6.550  1.00  0.00     0.165 HD
HETATM   25  C   UNK N   1      25.216  14.063   7.456  0.00  0.00     0.017 A 
HETATM   26  C   UNK N   1      25.975  14.980   6.727  0.00  0.00     0.004 A 
HETATM   27  C   UNK N   1      25.340  15.935   5.929  0.00  0.00     0.033 A 
ENDBRANCH   5  21
TORSDOF 5
ENDMDL
