REMARK  5 active torsions:
REMARK  status: ('A' for Active; 'I' for Inactive)
REMARK    1  A    between atoms: N_4  and  C_10 
REMARK       I    between atoms: N_4  and  C_11 
REMARK    2  A    between atoms: N_7  and  C_16 
REMARK       I    between atoms: N_7  and  C_17 
REMARK    3  A    between atoms: C_11  and  C_12 
REMARK    4  A    between atoms: C_17  and  O_24 
REMARK    5  A    between atoms: C_18  and  O_24 
ROOT
HETATM    1  N   UNK N   1      -3.044  -0.305  -0.834  0.00  0.00    -0.360 N 
ATOM      2  HN  UNK N   1      -3.861  -0.898  -0.981  1.00  0.00     0.165 HD
HETATM    3  C   UNK N   1      -1.856  -0.897  -0.524  0.00  0.00     0.128 A 
HETATM    4  C   UNK N   1      -3.188   1.040  -0.956  0.00  0.00     0.088 A 
HETATM    5  C   UNK N   1      -2.096   1.877  -0.763  0.00  0.00     0.019 A 
HETATM    6  C   UNK N   1      -0.862   1.318  -0.453  0.00  0.00     0.033 A 
HETATM    7  C   UNK N   1      -0.717  -0.072  -0.337  0.00  0.00     0.069 A 
ENDROOT
BRANCH   3   8
HETATM    8  C   UNK N   1      -1.788  -2.394  -0.408  0.00  0.00     0.276 C 
HETATM    9  N   UNK N   1      -2.903  -3.180  -0.331  0.00  0.00    -0.302 N 
HETATM   10  H   UNK N   1      -2.782  -4.142  -0.507  0.00  0.00     0.171 HD
HETATM   11  O   UNK N   1      -0.699  -2.942  -0.432  0.00  0.00    -0.266 OA
BRANCH   9  12
HETATM   12  C   UNK N   1      -4.220  -2.745  -0.021  0.00  0.00     0.151 A 
HETATM   13  S   UNK N   1      -5.605  -3.464  -0.532  0.00  0.00    -0.064 SA
HETATM   14  C   UNK N   1      -6.680  -2.498   0.285  0.00  0.00     0.070 A 
HETATM   15  C   UNK N   1      -5.882  -1.590   1.009  0.00  0.00     0.097 A 
HETATM   16  N   UNK N   1      -4.521  -1.744   0.843  0.00  0.00    -0.346 N 
ATOM     17  HN  UNK N   1      -3.822  -1.172   1.316  1.00  0.00     0.167 HD
ENDBRANCH   9  12
ENDBRANCH   3   8
BRANCH   7  18
HETATM   18  N   UNK N   1       0.564  -0.609  -0.033  0.00  0.00    -0.300 N 
HETATM   19  C   UNK N   1       1.323  -0.142   0.997  0.00  0.00     0.366 C 
HETATM   20  O   UNK N   1       0.827   0.596   1.837  0.00  0.00    -0.238 OA
HETATM   21  H   UNK N   1       0.915  -1.344  -0.586  0.00  0.00     0.171 HD
BRANCH  19  22
HETATM   22  O   UNK N   1       2.612  -0.541   1.157  0.00  0.00    -0.294 OA
BRANCH  22  23
HETATM   23  C   UNK N   1       3.551  -0.770   0.157  0.00  0.00     0.061 C 
HETATM   24  C   UNK N   1       4.830  -0.062   0.554  0.00  0.00     0.046 C 
HETATM   25  C   UNK N   1       3.837  -2.253   0.054  0.00  0.00     0.046 C 
HETATM   26  C   UNK N   1       3.143  -0.238  -1.212  0.00  0.00     0.046 C 
ENDBRANCH  22  23
ENDBRANCH  19  22
ENDBRANCH   7  18
TORSDOF 5
