MODEL 1
REMARK VINA RESULT:      -6.7      0.000      0.000
REMARK  5 active torsions:
REMARK  status: ('A' for Active; 'I' for Inactive)
REMARK    1  A    between atoms: N_4  and  C_10 
REMARK       I    between atoms: N_4  and  C_11 
REMARK    2  A    between atoms: N_7  and  C_16 
REMARK       I    between atoms: N_7  and  C_17 
REMARK    3  A    between atoms: C_11  and  C_12 
REMARK    4  A    between atoms: C_17  and  O_24 
REMARK    5  A    between atoms: C_18  and  O_24 
ROOT
HETATM    1  N   UNK N   1      35.522  14.524   8.268  0.00  0.00    -0.360 N 
ATOM      2  HN  UNK N   1      35.827  15.291   7.669  1.00  0.00     0.165 HD
HETATM    3  C   UNK N   1      35.285  14.781   9.586  0.00  0.00     0.128 A 
HETATM    4  C   UNK N   1      35.369  13.292   7.719  0.00  0.00     0.088 A 
HETATM    5  C   UNK N   1      34.955  12.225   8.506  0.00  0.00     0.019 A 
HETATM    6  C   UNK N   1      34.694  12.441   9.854  0.00  0.00     0.033 A 
HETATM    7  C   UNK N   1      34.845  13.717  10.415  0.00  0.00     0.069 A 
ENDROOT
BRANCH   3   8
HETATM    8  C   UNK N   1      35.481  16.176  10.110  0.00  0.00     0.276 C 
HETATM    9  N   UNK N   1      34.584  17.182   9.886  0.00  0.00    -0.302 N 
HETATM   10  H   UNK N   1      34.657  17.980  10.460  0.00  0.00     0.171 HD
HETATM   11  O   UNK N   1      36.453  16.417  10.806  0.00  0.00    -0.266 OA
BRANCH   9  12
HETATM   12  C   UNK N   1      33.556  17.190   8.905  0.00  0.00     0.151 A 
HETATM   13  S   UNK N   1      33.741  17.636   7.335  0.00  0.00    -0.064 SA
HETATM   14  C   UNK N   1      32.202  17.293   6.816  0.00  0.00     0.070 A 
HETATM   15  C   UNK N   1      31.538  16.778   7.947  0.00  0.00     0.097 A 
HETATM   16  N   UNK N   1      32.301  16.713   9.095  0.00  0.00    -0.346 N 
ATOM     17  HN  UNK N   1      31.960  16.348   9.984  1.00  0.00     0.167 HD
ENDBRANCH   9  12
ENDBRANCH   3   8
BRANCH   7  18
HETATM   18  N   UNK N   1      34.554  13.904  11.794  0.00  0.00    -0.300 N 
HETATM   19  C   UNK N   1      35.470  13.653  12.771  0.00  0.00     0.366 C 
HETATM   20  O   UNK N   1      36.646  13.483  12.478  0.00  0.00    -0.238 OA
HETATM   21  H   UNK N   1      33.661  14.225  12.053  0.00  0.00     0.171 HD
BRANCH  19  22
HETATM   22  O   UNK N   1      35.118  13.662  14.083  0.00  0.00    -0.294 OA
BRANCH  22  23
HETATM   23  C   UNK N   1      35.092  12.577  14.953  0.00  0.00     0.061 C 
HETATM   24  C   UNK N   1      34.507  13.054  16.267  0.00  0.00     0.046 C 
HETATM   25  C   UNK N   1      34.194  11.495  14.394  0.00  0.00     0.046 C 
HETATM   26  C   UNK N   1      36.466  11.989  15.254  0.00  0.00     0.046 C 
ENDBRANCH  22  23
ENDBRANCH  19  22
ENDBRANCH   7  18
TORSDOF 5
ENDMDL
MODEL 2
REMARK VINA RESULT:      -6.3     19.234     21.642
REMARK  5 active torsions:
REMARK  status: ('A' for Active; 'I' for Inactive)
REMARK    1  A    between atoms: N_4  and  C_10 
REMARK       I    between atoms: N_4  and  C_11 
REMARK    2  A    between atoms: N_7  and  C_16 
REMARK       I    between atoms: N_7  and  C_17 
REMARK    3  A    between atoms: C_11  and  C_12 
REMARK    4  A    between atoms: C_17  and  O_24 
REMARK    5  A    between atoms: C_18  and  O_24 
ROOT
HETATM    1  N   UNK N   1      26.695  26.986  -3.231  0.00  0.00    -0.360 N 
ATOM      2  HN  UNK N   1      27.309  26.922  -2.419  1.00  0.00     0.165 HD
HETATM    3  C   UNK N   1      26.458  25.858  -3.958  0.00  0.00     0.128 A 
HETATM    4  C   UNK N   1      26.150  28.191  -3.540  0.00  0.00     0.088 A 
HETATM    5  C   UNK N   1      25.309  28.313  -4.638  0.00  0.00     0.019 A 
HETATM    6  C   UNK N   1      25.031  27.188  -5.406  0.00  0.00     0.033 A 
HETATM    7  C   UNK N   1      25.590  25.944  -5.077  0.00  0.00     0.069 A 
ENDROOT
BRANCH   3   8
HETATM    8  C   UNK N   1      27.104  24.565  -3.544  0.00  0.00     0.276 C 
HETATM    9  N   UNK N   1      28.424  24.295  -3.770  0.00  0.00    -0.302 N 
HETATM   10  H   UNK N   1      28.820  23.552  -3.258  0.00  0.00     0.171 HD
HETATM   11  O   UNK N   1      26.444  23.739  -2.939  0.00  0.00    -0.266 OA
BRANCH   9  12
HETATM   12  C   UNK N   1      29.282  24.981  -4.672  0.00  0.00     0.151 A 
HETATM   13  S   UNK N   1      30.499  25.997  -4.243  0.00  0.00    -0.064 SA
HETATM   14  C   UNK N   1      31.086  26.307  -5.765  0.00  0.00     0.070 A 
HETATM   15  C   UNK N   1      30.284  25.539  -6.632  0.00  0.00     0.097 A 
HETATM   16  N   UNK N   1      29.296  24.798  -6.016  0.00  0.00    -0.346 N 
ATOM     17  HN  UNK N   1      28.652  24.184  -6.513  1.00  0.00     0.167 HD
ENDBRANCH   9  12
ENDBRANCH   3   8
BRANCH   7  18
HETATM   18  N   UNK N   1      25.271  24.812  -5.876  0.00  0.00    -0.300 N 
HETATM   19  C   UNK N   1      25.787  24.634  -7.124  0.00  0.00     0.366 C 
HETATM   20  O   UNK N   1      26.722  25.325  -7.504  0.00  0.00    -0.238 OA
HETATM   21  H   UNK N   1      24.656  24.133  -5.515  0.00  0.00     0.171 HD
BRANCH  19  22
HETATM   22  O   UNK N   1      25.331  23.646  -7.938  0.00  0.00    -0.294 OA
BRANCH  22  23
HETATM   23  C   UNK N   1      25.787  22.334  -8.004  0.00  0.00     0.061 C 
HETATM   24  C   UNK N   1      24.761  21.454  -7.320  0.00  0.00     0.046 C 
HETATM   25  C   UNK N   1      25.899  21.903  -9.451  0.00  0.00     0.046 C 
HETATM   26  C   UNK N   1      27.122  22.105  -7.304  0.00  0.00     0.046 C 
ENDBRANCH  22  23
ENDBRANCH  19  22
ENDBRANCH   7  18
TORSDOF 5
ENDMDL
MODEL 3
REMARK VINA RESULT:      -6.2      3.456      6.620
REMARK  5 active torsions:
REMARK  status: ('A' for Active; 'I' for Inactive)
REMARK    1  A    between atoms: N_4  and  C_10 
REMARK       I    between atoms: N_4  and  C_11 
REMARK    2  A    between atoms: N_7  and  C_16 
REMARK       I    between atoms: N_7  and  C_17 
REMARK    3  A    between atoms: C_11  and  C_12 
REMARK    4  A    between atoms: C_17  and  O_24 
REMARK    5  A    between atoms: C_18  and  O_24 
ROOT
HETATM    1  N   UNK N   1      35.230  16.055   6.864  0.00  0.00    -0.360 N 
ATOM      2  HN  UNK N   1      36.183  16.128   7.222  1.00  0.00     0.165 HD
HETATM    3  C   UNK N   1      34.278  16.889   7.370  0.00  0.00     0.128 A 
HETATM    4  C   UNK N   1      34.967  15.132   5.904  0.00  0.00     0.088 A 
HETATM    5  C   UNK N   1      33.681  15.007   5.393  0.00  0.00     0.019 A 
HETATM    6  C   UNK N   1      32.678  15.841   5.873  0.00  0.00     0.033 A 
HETATM    7  C   UNK N   1      32.958  16.799   6.858  0.00  0.00     0.069 A 
ENDROOT
BRANCH   3   8
HETATM    8  C   UNK N   1      34.659  17.882   8.433  0.00  0.00     0.276 C 
HETATM    9  N   UNK N   1      35.148  17.506   9.652  0.00  0.00    -0.302 N 
HETATM   10  H   UNK N   1      35.598  18.202  10.184  0.00  0.00     0.171 HD
HETATM   11  O   UNK N   1      34.577  19.073   8.189  0.00  0.00    -0.266 OA
BRANCH   9  12
HETATM   12  C   UNK N   1      35.069  16.209  10.228  0.00  0.00     0.151 A 
HETATM   13  S   UNK N   1      36.350  15.241  10.573  0.00  0.00    -0.064 SA
HETATM   14  C   UNK N   1      35.513  13.999  11.288  0.00  0.00     0.070 A 
HETATM   15  C   UNK N   1      34.163  14.403  11.265  0.00  0.00     0.097 A 
HETATM   16  N   UNK N   1      33.930  15.635  10.688  0.00  0.00    -0.346 N 
ATOM     17  HN  UNK N   1      33.008  16.064  10.617  1.00  0.00     0.167 HD
ENDBRANCH   9  12
ENDBRANCH   3   8
BRANCH   7  18
HETATM   18  N   UNK N   1      31.910  17.645   7.315  0.00  0.00    -0.300 N 
HETATM   19  C   UNK N   1      31.069  17.283   8.322  0.00  0.00     0.366 C 
HETATM   20  O   UNK N   1      31.334  16.316   9.023  0.00  0.00    -0.238 OA
HETATM   21  H   UNK N   1      31.789  18.524   6.888  0.00  0.00     0.171 HD
BRANCH  19  22
HETATM   22  O   UNK N   1      29.968  18.023   8.618  0.00  0.00    -0.294 OA
BRANCH  22  23
HETATM   23  C   UNK N   1      28.686  17.866   8.102  0.00  0.00     0.061 C 
HETATM   24  C   UNK N   1      27.809  17.309   9.204  0.00  0.00     0.046 C 
HETATM   25  C   UNK N   1      28.135  19.213   7.686  0.00  0.00     0.046 C 
HETATM   26  C   UNK N   1      28.605  16.901   6.924  0.00  0.00     0.046 C 
ENDBRANCH  22  23
ENDBRANCH  19  22
ENDBRANCH   7  18
TORSDOF 5
ENDMDL
MODEL 4
REMARK VINA RESULT:      -6.1      2.804      6.437
REMARK  5 active torsions:
REMARK  status: ('A' for Active; 'I' for Inactive)
REMARK    1  A    between atoms: N_4  and  C_10 
REMARK       I    between atoms: N_4  and  C_11 
REMARK    2  A    between atoms: N_7  and  C_16 
REMARK       I    between atoms: N_7  and  C_17 
REMARK    3  A    between atoms: C_11  and  C_12 
REMARK    4  A    between atoms: C_17  and  O_24 
REMARK    5  A    between atoms: C_18  and  O_24 
ROOT
HETATM    1  N   UNK N   1      38.015  14.642  10.253  0.00  0.00    -0.360 N 
ATOM      2  HN  UNK N   1      38.414  15.077  11.084  1.00  0.00     0.165 HD
HETATM    3  C   UNK N   1      36.734  14.951   9.905  0.00  0.00     0.128 A 
HETATM    4  C   UNK N   1      38.785  13.779   9.540  0.00  0.00     0.088 A 
HETATM    5  C   UNK N   1      38.274  13.168   8.401  0.00  0.00     0.019 A 
HETATM    6  C   UNK N   1      36.974  13.459   8.004  0.00  0.00     0.033 A 
HETATM    7  C   UNK N   1      36.187  14.357   8.738  0.00  0.00     0.069 A 
ENDROOT
BRANCH   3   8
HETATM    8  C   UNK N   1      35.954  15.916  10.753  0.00  0.00     0.276 C 
HETATM    9  N   UNK N   1      35.563  15.627  12.030  0.00  0.00    -0.302 N 
HETATM   10  H   UNK N   1      35.283  16.387  12.592  0.00  0.00     0.171 HD
HETATM   11  O   UNK N   1      35.697  17.022  10.310  0.00  0.00    -0.266 OA
BRANCH   9  12
HETATM   12  C   UNK N   1      35.520  14.338  12.627  0.00  0.00     0.151 A 
HETATM   13  S   UNK N   1      36.289  13.904  14.011  0.00  0.00    -0.064 SA
HETATM   14  C   UNK N   1      35.704  12.354  14.122  0.00  0.00     0.070 A 
HETATM   15  C   UNK N   1      34.843  12.205  13.016  0.00  0.00     0.097 A 
HETATM   16  N   UNK N   1      34.738  13.315  12.202  0.00  0.00    -0.346 N 
ATOM     17  HN  UNK N   1      34.140  13.360  11.378  1.00  0.00     0.167 HD
ENDBRANCH   9  12
ENDBRANCH   3   8
BRANCH   7  18
HETATM   18  N   UNK N   1      34.867  14.641   8.293  0.00  0.00    -0.300 N 
HETATM   19  C   UNK N   1      34.619  15.407   7.194  0.00  0.00     0.366 C 
HETATM   20  O   UNK N   1      35.526  15.681   6.422  0.00  0.00    -0.238 OA
HETATM   21  H   UNK N   1      34.105  14.272   8.796  0.00  0.00     0.171 HD
BRANCH  19  22
HETATM   22  O   UNK N   1      33.358  15.816   6.893  0.00  0.00    -0.294 OA
BRANCH  22  23
HETATM   23  C   UNK N   1      32.909  17.126   6.760  0.00  0.00     0.061 C 
HETATM   24  C   UNK N   1      33.189  17.568   5.339  0.00  0.00     0.046 C 
HETATM   25  C   UNK N   1      31.414  17.179   6.992  0.00  0.00     0.046 C 
HETATM   26  C   UNK N   1      33.600  18.117   7.689  0.00  0.00     0.046 C 
ENDBRANCH  22  23
ENDBRANCH  19  22
ENDBRANCH   7  18
TORSDOF 5
ENDMDL
MODEL 5
REMARK VINA RESULT:      -6.0     11.028     13.540
REMARK  5 active torsions:
REMARK  status: ('A' for Active; 'I' for Inactive)
REMARK    1  A    between atoms: N_4  and  C_10 
REMARK       I    between atoms: N_4  and  C_11 
REMARK    2  A    between atoms: N_7  and  C_16 
REMARK       I    between atoms: N_7  and  C_17 
REMARK    3  A    between atoms: C_11  and  C_12 
REMARK    4  A    between atoms: C_17  and  O_24 
REMARK    5  A    between atoms: C_18  and  O_24 
ROOT
HETATM    1  N   UNK N   1      23.003  15.443   3.380  0.00  0.00    -0.360 N 
ATOM      2  HN  UNK N   1      22.046  15.087   3.386  1.00  0.00     0.165 HD
HETATM    3  C   UNK N   1      23.355  16.382   4.302  0.00  0.00     0.128 A 
HETATM    4  C   UNK N   1      23.868  14.958   2.452  0.00  0.00     0.088 A 
HETATM    5  C   UNK N   1      25.178  15.420   2.415  0.00  0.00     0.019 A 
HETATM    6  C   UNK N   1      25.586  16.373   3.341  0.00  0.00     0.033 A 
HETATM    7  C   UNK N   1      24.690  16.863   4.302  0.00  0.00     0.069 A 
ENDROOT
BRANCH   3   8
HETATM    8  C   UNK N   1      22.331  16.863   5.291  0.00  0.00     0.276 C 
HETATM    9  N   UNK N   1      21.315  17.710   4.950  0.00  0.00    -0.302 N 
HETATM   10  H   UNK N   1      20.560  17.775   5.580  0.00  0.00     0.171 HD
HETATM   11  O   UNK N   1      22.372  16.447   6.437  0.00  0.00    -0.266 OA
BRANCH   9  12
HETATM   12  C   UNK N   1      21.241  18.506   3.775  0.00  0.00     0.151 A 
HETATM   13  S   UNK N   1      20.241  18.234   2.501  0.00  0.00    -0.064 SA
HETATM   14  C   UNK N   1      20.634  19.577   1.609  0.00  0.00     0.070 A 
HETATM   15  C   UNK N   1      21.582  20.271   2.387  0.00  0.00     0.097 A 
HETATM   16  N   UNK N   1      21.901  19.676   3.591  0.00  0.00    -0.346 N 
ATOM     17  HN  UNK N   1      22.557  20.071   4.264  1.00  0.00     0.167 HD
ENDBRANCH   9  12
ENDBRANCH   3   8
BRANCH   7  18
HETATM   18  N   UNK N   1      25.147  17.826   5.243  0.00  0.00    -0.300 N 
HETATM   19  C   UNK N   1      25.265  19.147   4.932  0.00  0.00     0.366 C 
HETATM   20  O   UNK N   1      24.760  19.582   3.907  0.00  0.00    -0.238 OA
HETATM   21  H   UNK N   1      25.386  17.529   6.150  0.00  0.00     0.171 HD
BRANCH  19  22
HETATM   22  O   UNK N   1      25.872  20.017   5.782  0.00  0.00    -0.294 OA
BRANCH  22  23
HETATM   23  C   UNK N   1      27.235  20.270   5.892  0.00  0.00     0.061 C 
HETATM   24  C   UNK N   1      27.408  21.745   6.191  0.00  0.00     0.046 C 
HETATM   25  C   UNK N   1      27.812  19.477   7.045  0.00  0.00     0.046 C 
HETATM   26  C   UNK N   1      28.028  19.968   4.625  0.00  0.00     0.046 C 
ENDBRANCH  22  23
ENDBRANCH  19  22
ENDBRANCH   7  18
TORSDOF 5
ENDMDL
MODEL 6
REMARK VINA RESULT:      -5.8      2.942      5.275
REMARK  5 active torsions:
REMARK  status: ('A' for Active; 'I' for Inactive)
REMARK    1  A    between atoms: N_4  and  C_10 
REMARK       I    between atoms: N_4  and  C_11 
REMARK    2  A    between atoms: N_7  and  C_16 
REMARK       I    between atoms: N_7  and  C_17 
REMARK    3  A    between atoms: C_11  and  C_12 
REMARK    4  A    between atoms: C_17  and  O_24 
REMARK    5  A    between atoms: C_18  and  O_24 
ROOT
HETATM    1  N   UNK N   1      31.406  17.371   5.588  0.00  0.00    -0.360 N 
ATOM      2  HN  UNK N   1      31.765  17.562   4.652  1.00  0.00     0.165 HD
HETATM    3  C   UNK N   1      32.294  17.091   6.582  0.00  0.00     0.128 A 
HETATM    4  C   UNK N   1      30.063  17.408   5.787  0.00  0.00     0.088 A 
HETATM    5  C   UNK N   1      29.540  17.155   7.049  0.00  0.00     0.019 A 
HETATM    6  C   UNK N   1      30.408  16.872   8.097  0.00  0.00     0.033 A 
HETATM    7  C   UNK N   1      31.794  16.844   7.887  0.00  0.00     0.069 A 
ENDROOT
BRANCH   3   8
HETATM    8  C   UNK N   1      33.765  17.071   6.271  0.00  0.00     0.276 C 
HETATM    9  N   UNK N   1      34.347  16.088   5.521  0.00  0.00    -0.302 N 
HETATM   10  H   UNK N   1      35.244  16.277   5.160  0.00  0.00     0.171 HD
HETATM   11  O   UNK N   1      34.466  17.990   6.658  0.00  0.00    -0.266 OA
BRANCH   9  12
HETATM   12  C   UNK N   1      33.784  14.821   5.211  0.00  0.00     0.151 A 
HETATM   13  S   UNK N   1      33.243  14.355   3.731  0.00  0.00    -0.064 SA
HETATM   14  C   UNK N   1      32.850  12.788   4.113  0.00  0.00     0.070 A 
HETATM   15  C   UNK N   1      33.197  12.642   5.471  0.00  0.00     0.097 A 
HETATM   16  N   UNK N   1      33.725  13.770   6.066  0.00  0.00    -0.346 N 
ATOM     17  HN  UNK N   1      34.037  13.808   7.036  1.00  0.00     0.167 HD
ENDBRANCH   9  12
ENDBRANCH   3   8
BRANCH   7  18
HETATM   18  N   UNK N   1      32.653  16.566   8.985  0.00  0.00    -0.300 N 
HETATM   19  C   UNK N   1      32.912  15.295   9.403  0.00  0.00     0.366 C 
HETATM   20  O   UNK N   1      32.599  14.344   8.700  0.00  0.00    -0.238 OA
HETATM   21  H   UNK N   1      33.075  17.317   9.461  0.00  0.00     0.171 HD
BRANCH  19  22
HETATM   22  O   UNK N   1      33.584  15.060  10.560  0.00  0.00    -0.294 OA
BRANCH  22  23
HETATM   23  C   UNK N   1      34.962  15.074  10.749  0.00  0.00     0.061 C 
HETATM   24  C   UNK N   1      35.372  16.500  11.050  0.00  0.00     0.046 C 
HETATM   25  C   UNK N   1      35.324  14.210  11.939  0.00  0.00     0.046 C 
HETATM   26  C   UNK N   1      35.761  14.618   9.533  0.00  0.00     0.046 C 
ENDBRANCH  22  23
ENDBRANCH  19  22
ENDBRANCH   7  18
TORSDOF 5
ENDMDL
MODEL 7
REMARK VINA RESULT:      -5.7      3.688      4.823
REMARK  5 active torsions:
REMARK  status: ('A' for Active; 'I' for Inactive)
REMARK    1  A    between atoms: N_4  and  C_10 
REMARK       I    between atoms: N_4  and  C_11 
REMARK    2  A    between atoms: N_7  and  C_16 
REMARK       I    between atoms: N_7  and  C_17 
REMARK    3  A    between atoms: C_11  and  C_12 
REMARK    4  A    between atoms: C_17  and  O_24 
REMARK    5  A    between atoms: C_18  and  O_24 
ROOT
HETATM    1  N   UNK N   1      36.232   9.823  10.716  0.00  0.00    -0.360 N 
ATOM      2  HN  UNK N   1      37.174   9.728  10.336  1.00  0.00     0.165 HD
HETATM    3  C   UNK N   1      36.084  10.328  11.974  0.00  0.00     0.128 A 
HETATM    4  C   UNK N   1      35.180   9.440   9.947  0.00  0.00     0.088 A 
HETATM    5  C   UNK N   1      33.884   9.555  10.434  0.00  0.00     0.019 A 
HETATM    6  C   UNK N   1      33.683  10.073  11.708  0.00  0.00     0.033 A 
HETATM    7  C   UNK N   1      34.773  10.475  12.494  0.00  0.00     0.069 A 
ENDROOT
BRANCH   3   8
HETATM    8  C   UNK N   1      37.305  10.726  12.755  0.00  0.00     0.276 C 
HETATM    9  N   UNK N   1      37.900  11.949  12.624  0.00  0.00    -0.302 N 
HETATM   10  H   UNK N   1      38.527  12.217  13.335  0.00  0.00     0.171 HD
HETATM   11  O   UNK N   1      37.761   9.950  13.578  0.00  0.00    -0.266 OA
BRANCH   9  12
HETATM   12  C   UNK N   1      37.703  12.871  11.560  0.00  0.00     0.151 A 
HETATM   13  S   UNK N   1      38.351  12.742  10.057  0.00  0.00    -0.064 SA
HETATM   14  C   UNK N   1      37.617  14.067   9.377  0.00  0.00     0.070 A 
HETATM   15  C   UNK N   1      36.807  14.604  10.397  0.00  0.00     0.097 A 
HETATM   16  N   UNK N   1      36.852  13.926  11.598  0.00  0.00    -0.346 N 
ATOM     17  HN  UNK N   1      36.307  14.187  12.419  1.00  0.00     0.167 HD
ENDBRANCH   9  12
ENDBRANCH   3   8
BRANCH   7  18
HETATM   18  N   UNK N   1      34.528  11.013  13.788  0.00  0.00    -0.300 N 
HETATM   19  C   UNK N   1      34.535  12.353  14.031  0.00  0.00     0.366 C 
HETATM   20  O   UNK N   1      34.521  13.145  13.099  0.00  0.00    -0.238 OA
HETATM   21  H   UNK N   1      34.347  10.396  14.533  0.00  0.00     0.171 HD
BRANCH  19  22
HETATM   22  O   UNK N   1      34.481  12.837  15.300  0.00  0.00    -0.294 OA
BRANCH  22  23
HETATM   23  C   UNK N   1      35.514  12.870  16.231  0.00  0.00     0.061 C 
HETATM   24  C   UNK N   1      36.646  13.680  15.635  0.00  0.00     0.046 C 
HETATM   25  C   UNK N   1      35.042  13.563  17.492  0.00  0.00     0.046 C 
HETATM   26  C   UNK N   1      36.074  11.498  16.587  0.00  0.00     0.046 C 
ENDBRANCH  22  23
ENDBRANCH  19  22
ENDBRANCH   7  18
TORSDOF 5
ENDMDL
MODEL 8
REMARK VINA RESULT:      -5.7     18.875     21.192
REMARK  5 active torsions:
REMARK  status: ('A' for Active; 'I' for Inactive)
REMARK    1  A    between atoms: N_4  and  C_10 
REMARK       I    between atoms: N_4  and  C_11 
REMARK    2  A    between atoms: N_7  and  C_16 
REMARK       I    between atoms: N_7  and  C_17 
REMARK    3  A    between atoms: C_11  and  C_12 
REMARK    4  A    between atoms: C_17  and  O_24 
REMARK    5  A    between atoms: C_18  and  O_24 
ROOT
HETATM    1  N   UNK N   1      26.369  24.289  -5.856  0.00  0.00    -0.360 N 
ATOM      2  HN  UNK N   1      26.373  23.275  -5.745  1.00  0.00     0.165 HD
HETATM    3  C   UNK N   1      26.889  25.056  -4.856  0.00  0.00     0.128 A 
HETATM    4  C   UNK N   1      25.846  24.815  -6.993  0.00  0.00     0.088 A 
HETATM    5  C   UNK N   1      25.825  26.192  -7.177  0.00  0.00     0.019 A 
HETATM    6  C   UNK N   1      26.352  27.015  -6.188  0.00  0.00     0.033 A 
HETATM    7  C   UNK N   1      26.899  26.465  -5.020  0.00  0.00     0.069 A 
ENDROOT
BRANCH   3   8
HETATM    8  C   UNK N   1      27.446  24.389  -3.630  0.00  0.00     0.276 C 
HETATM    9  N   UNK N   1      28.729  23.922  -3.562  0.00  0.00    -0.302 N 
HETATM   10  H   UNK N   1      29.085  23.731  -2.664  0.00  0.00     0.171 HD
HETATM   11  O   UNK N   1      26.748  24.299  -2.634  0.00  0.00    -0.266 OA
BRANCH   9  12
HETATM   12  C   UNK N   1      29.598  23.685  -4.661  0.00  0.00     0.151 A 
HETATM   13  S   UNK N   1      29.762  22.257  -5.455  0.00  0.00    -0.064 SA
HETATM   14  C   UNK N   1      30.824  22.766  -6.625  0.00  0.00     0.070 A 
HETATM   15  C   UNK N   1      31.021  24.138  -6.372  0.00  0.00     0.097 A 
HETATM   16  N   UNK N   1      30.328  24.640  -5.290  0.00  0.00    -0.346 N 
ATOM     17  HN  UNK N   1      30.359  25.616  -4.998  1.00  0.00     0.167 HD
ENDBRANCH   9  12
ENDBRANCH   3   8
BRANCH   7  18
HETATM   18  N   UNK N   1      27.442  27.337  -4.036  0.00  0.00    -0.300 N 
HETATM   19  C   UNK N   1      26.657  28.044  -3.178  0.00  0.00     0.366 C 
HETATM   20  O   UNK N   1      25.468  27.774  -3.071  0.00  0.00    -0.238 OA
HETATM   21  H   UNK N   1      28.420  27.433  -3.974  0.00  0.00     0.171 HD
BRANCH  19  22
HETATM   22  O   UNK N   1      27.183  29.004  -2.373  0.00  0.00    -0.294 OA
BRANCH  22  23
HETATM   23  C   UNK N   1      27.587  30.283  -2.743  0.00  0.00     0.061 C 
HETATM   24  C   UNK N   1      27.870  31.062  -1.475  0.00  0.00     0.046 C 
HETATM   25  C   UNK N   1      28.865  30.201  -3.550  0.00  0.00     0.046 C 
HETATM   26  C   UNK N   1      26.540  31.061  -3.531  0.00  0.00     0.046 C 
ENDBRANCH  22  23
ENDBRANCH  19  22
ENDBRANCH   7  18
TORSDOF 5
ENDMDL
MODEL 9
REMARK VINA RESULT:      -5.6      3.104      6.233
REMARK  5 active torsions:
REMARK  status: ('A' for Active; 'I' for Inactive)
REMARK    1  A    between atoms: N_4  and  C_10 
REMARK       I    between atoms: N_4  and  C_11 
REMARK    2  A    between atoms: N_7  and  C_16 
REMARK       I    between atoms: N_7  and  C_17 
REMARK    3  A    between atoms: C_11  and  C_12 
REMARK    4  A    between atoms: C_17  and  O_24 
REMARK    5  A    between atoms: C_18  and  O_24 
ROOT
HETATM    1  N   UNK N   1      37.986  12.985  11.511  0.00  0.00    -0.360 N 
ATOM      2  HN  UNK N   1      38.111  12.512  12.406  1.00  0.00     0.165 HD
HETATM    3  C   UNK N   1      36.975  13.890  11.386  0.00  0.00     0.128 A 
HETATM    4  C   UNK N   1      38.837  12.684  10.495  0.00  0.00     0.088 A 
HETATM    5  C   UNK N   1      38.696  13.310   9.262  0.00  0.00     0.019 A 
HETATM    6  C   UNK N   1      37.684  14.246   9.090  0.00  0.00     0.033 A 
HETATM    7  C   UNK N   1      36.814  14.559  10.145  0.00  0.00     0.069 A 
ENDROOT
BRANCH   3   8
HETATM    8  C   UNK N   1      36.080  14.159  12.563  0.00  0.00     0.276 C 
HETATM    9  N   UNK N   1      35.282  13.200  13.120  0.00  0.00    -0.302 N 
HETATM   10  H   UNK N   1      34.926  13.384  14.020  0.00  0.00     0.171 HD
HETATM   11  O   UNK N   1      36.096  15.264  13.079  0.00  0.00    -0.266 OA
BRANCH   9  12
HETATM   12  C   UNK N   1      34.916  11.961  12.526  0.00  0.00     0.151 A 
HETATM   13  S   UNK N   1      35.072  10.486  13.230  0.00  0.00    -0.064 SA
HETATM   14  C   UNK N   1      34.367   9.583  12.028  0.00  0.00     0.070 A 
HETATM   15  C   UNK N   1      33.975  10.517  11.049  0.00  0.00     0.097 A 
HETATM   16  N   UNK N   1      34.271  11.832  11.340  0.00  0.00    -0.346 N 
ATOM     17  HN  UNK N   1      34.033  12.617  10.735  1.00  0.00     0.167 HD
ENDBRANCH   9  12
ENDBRANCH   3   8
BRANCH   7  18
HETATM   18  N   UNK N   1      35.799  15.533   9.937  0.00  0.00    -0.300 N 
HETATM   19  C   UNK N   1      34.586  15.217   9.405  0.00  0.00     0.366 C 
HETATM   20  O   UNK N   1      34.247  14.045   9.307  0.00  0.00    -0.238 OA
HETATM   21  H   UNK N   1      35.979  16.468  10.186  0.00  0.00     0.171 HD
BRANCH  19  22
HETATM   22  O   UNK N   1      33.702  16.185   9.047  0.00  0.00    -0.294 OA
BRANCH  22  23
HETATM   23  C   UNK N   1      33.731  16.965   7.896  0.00  0.00     0.061 C 
HETATM   24  C   UNK N   1      32.299  17.250   7.495  0.00  0.00     0.046 C 
HETATM   25  C   UNK N   1      34.417  18.282   8.189  0.00  0.00     0.046 C 
HETATM   26  C   UNK N   1      34.411  16.294   6.708  0.00  0.00     0.046 C 
ENDBRANCH  22  23
ENDBRANCH  19  22
ENDBRANCH   7  18
TORSDOF 5
ENDMDL
