REMARK  4 active torsions:
REMARK  status: ('A' for Active; 'I' for Inactive)
REMARK       I    between atoms: N_4  and  C_11 
REMARK    1  A    between atoms: N_4  and  C_10 
REMARK    2  A    between atoms: N_7  and  C_16 
REMARK       I    between atoms: N_7  and  C_17 
REMARK    3  A    between atoms: C_11  and  C_12 
REMARK    4  A    between atoms: C_17  and  C_18 
ROOT
HETATM    1  N   UNK N   1       3.701  -1.415   0.002  0.00  0.00    -0.360 N 
ATOM      2  HN  UNK N   1       4.707  -1.460  -0.158  1.00  0.00     0.165 HD
HETATM    3  C   UNK N   1       3.101  -0.191   0.086  0.00  0.00     0.128 A 
HETATM    4  C   UNK N   1       3.003  -2.574   0.125  0.00  0.00     0.088 A 
HETATM    5  C   UNK N   1       1.630  -2.542   0.346  0.00  0.00     0.019 A 
HETATM    6  C   UNK N   1       0.985  -1.312   0.439  0.00  0.00     0.033 A 
HETATM    7  C   UNK N   1       1.700  -0.118   0.307  0.00  0.00     0.067 A 
ENDROOT
BRANCH   3   8
HETATM    8  C   UNK N   1       3.952   1.024  -0.053  0.00  0.00     0.276 C 
HETATM    9  N   UNK N   1       3.384   2.260  -0.047  0.00  0.00    -0.302 N 
HETATM   10  H   UNK N   1       2.401   2.305  -0.036  0.00  0.00     0.171 HD
HETATM   11  O   UNK N   1       5.161   0.901  -0.174  0.00  0.00    -0.266 OA
BRANCH   9  12
HETATM   12  C   UNK N   1       4.090   3.488  -0.056  0.00  0.00     0.151 A 
HETATM   13  S   UNK N   1       3.388   4.967  -0.181  0.00  0.00    -0.064 SA
HETATM   14  C   UNK N   1       4.758   5.884  -0.012  0.00  0.00     0.070 A 
HETATM   15  C   UNK N   1       5.804   4.952   0.158  0.00  0.00     0.097 A 
HETATM   16  N   UNK N   1       5.422   3.626   0.137  0.00  0.00    -0.346 N 
ATOM     17  HN  UNK N   1       6.066   2.844   0.252  1.00  0.00     0.167 HD
ENDBRANCH   9  12
ENDBRANCH   3   8
BRANCH   7  18
HETATM   18  N   UNK N   1       1.071   1.159   0.444  0.00  0.00    -0.324 N 
HETATM   19  C   UNK N   1      -0.226   1.561   0.302  0.00  0.00     0.229 C 
HETATM   20  O   UNK N   1      -0.473   2.742   0.502  0.00  0.00    -0.272 OA
HETATM   21  H   UNK N   1       1.690   1.885   0.687  0.00  0.00     0.169 HD
BRANCH  19  22
HETATM   22  C   UNK N   1      -1.360   0.652  -0.158  0.00  0.00     0.030 C 
HETATM   23  C   UNK N   1      -2.639   1.447  -0.384  0.00  0.00     0.025 C 
HETATM   24  C   UNK N   1      -1.691  -0.397   0.886  0.00  0.00     0.025 C 
HETATM   25  C   UNK N   1      -1.009  -0.002  -1.483  0.00  0.00     0.025 C 
ENDBRANCH  19  22
ENDBRANCH   7  18
TORSDOF 4
