MODEL 1
REMARK VINA RESULT:      -6.0      0.000      0.000
REMARK  4 active torsions:
REMARK  status: ('A' for Active; 'I' for Inactive)
REMARK       I    between atoms: N_4  and  C_11 
REMARK    1  A    between atoms: N_4  and  C_10 
REMARK    2  A    between atoms: N_7  and  C_16 
REMARK       I    between atoms: N_7  and  C_17 
REMARK    3  A    between atoms: C_11  and  C_12 
REMARK    4  A    between atoms: C_17  and  C_18 
ROOT
HETATM    1  N   UNK N   1      37.170  15.183  14.889  0.00  0.00    -0.360 N 
ATOM      2  HN  UNK N   1      37.688  15.644  14.141  1.00  0.00     0.165 HD
HETATM    3  C   UNK N   1      36.273  14.206  14.564  0.00  0.00     0.128 A 
HETATM    4  C   UNK N   1      37.394  15.563  16.174  0.00  0.00     0.088 A 
HETATM    5  C   UNK N   1      36.698  14.953  17.213  0.00  0.00     0.019 A 
HETATM    6  C   UNK N   1      35.775  13.954  16.919  0.00  0.00     0.033 A 
HETATM    7  C   UNK N   1      35.547  13.557  15.598  0.00  0.00     0.067 A 
ENDROOT
BRANCH   3   8
HETATM    8  C   UNK N   1      36.090  13.865  13.125  0.00  0.00     0.276 C 
HETATM    9  N   UNK N   1      37.174  13.687  12.322  0.00  0.00    -0.302 N 
HETATM   10  H   UNK N   1      38.058  13.877  12.709  0.00  0.00     0.171 HD
HETATM   11  O   UNK N   1      34.961  13.749  12.673  0.00  0.00    -0.266 OA
BRANCH   9  12
HETATM   12  C   UNK N   1      37.135  13.252  10.975  0.00  0.00     0.151 A 
HETATM   13  S   UNK N   1      38.193  13.721   9.811  0.00  0.00    -0.064 SA
HETATM   14  C   UNK N   1      37.623  12.763   8.585  0.00  0.00     0.070 A 
HETATM   15  C   UNK N   1      36.550  12.043   9.151  0.00  0.00     0.097 A 
HETATM   16  N   UNK N   1      36.291  12.317  10.479  0.00  0.00    -0.346 N 
ATOM     17  HN  UNK N   1      35.552  11.870  11.021  1.00  0.00     0.167 HD
ENDBRANCH   9  12
ENDBRANCH   3   8
BRANCH   7  18
HETATM   18  N   UNK N   1      34.572  12.567  15.263  0.00  0.00    -0.324 N 
HETATM   19  C   UNK N   1      34.572  11.206  15.376  0.00  0.00     0.229 C 
HETATM   20  O   UNK N   1      33.566  10.612  15.014  0.00  0.00    -0.272 OA
HETATM   21  H   UNK N   1      33.743  12.935  14.879  0.00  0.00     0.169 HD
BRANCH  19  22
HETATM   22  C   UNK N   1      35.765  10.386  15.852  0.00  0.00     0.030 C 
HETATM   23  C   UNK N   1      35.550   8.902  15.583  0.00  0.00     0.025 C 
HETATM   24  C   UNK N   1      35.972  10.520  17.349  0.00  0.00     0.025 C 
HETATM   25  C   UNK N   1      37.020  10.791  15.100  0.00  0.00     0.025 C 
ENDBRANCH  19  22
ENDBRANCH   7  18
TORSDOF 4
ENDMDL
MODEL 2
REMARK VINA RESULT:      -6.0      6.708      9.519
REMARK  4 active torsions:
REMARK  status: ('A' for Active; 'I' for Inactive)
REMARK       I    between atoms: N_4  and  C_11 
REMARK    1  A    between atoms: N_4  and  C_10 
REMARK    2  A    between atoms: N_7  and  C_16 
REMARK       I    between atoms: N_7  and  C_17 
REMARK    3  A    between atoms: C_11  and  C_12 
REMARK    4  A    between atoms: C_17  and  C_18 
ROOT
HETATM    1  N   UNK N   1      30.848  17.510   9.441  0.00  0.00    -0.360 N 
ATOM      2  HN  UNK N   1      31.310  17.565  10.348  1.00  0.00     0.165 HD
HETATM    3  C   UNK N   1      31.195  16.505   8.583  0.00  0.00     0.128 A 
HETATM    4  C   UNK N   1      29.909  18.440   9.125  0.00  0.00     0.088 A 
HETATM    5  C   UNK N   1      29.264  18.391   7.893  0.00  0.00     0.019 A 
HETATM    6  C   UNK N   1      29.594  17.381   6.993  0.00  0.00     0.033 A 
HETATM    7  C   UNK N   1      30.556  16.420   7.318  0.00  0.00     0.067 A 
ENDROOT
BRANCH   3   8
HETATM    8  C   UNK N   1      32.243  15.538   9.016  0.00  0.00     0.276 C 
HETATM    9  N   UNK N   1      33.311  15.968   9.740  0.00  0.00    -0.302 N 
HETATM   10  H   UNK N   1      33.399  16.937   9.884  0.00  0.00     0.171 HD
HETATM   11  O   UNK N   1      32.136  14.360   8.713  0.00  0.00    -0.266 OA
BRANCH   9  12
HETATM   12  C   UNK N   1      34.308  15.135  10.305  0.00  0.00     0.151 A 
HETATM   13  S   UNK N   1      35.899  15.527  10.416  0.00  0.00    -0.064 SA
HETATM   14  C   UNK N   1      36.406  14.188  11.250  0.00  0.00     0.070 A 
HETATM   15  C   UNK N   1      35.241  13.414  11.444  0.00  0.00     0.097 A 
HETATM   16  N   UNK N   1      34.083  13.951  10.920  0.00  0.00    -0.346 N 
ATOM     17  HN  UNK N   1      33.166  13.509  10.988  1.00  0.00     0.167 HD
ENDBRANCH   9  12
ENDBRANCH   3   8
BRANCH   7  18
HETATM   18  N   UNK N   1      30.947  15.400   6.395  0.00  0.00    -0.324 N 
HETATM   19  C   UNK N   1      31.776  15.415   5.311  0.00  0.00     0.229 C 
HETATM   20  O   UNK N   1      31.934  14.362   4.709  0.00  0.00    -0.272 OA
HETATM   21  H   UNK N   1      30.543  14.521   6.577  0.00  0.00     0.169 HD
BRANCH  19  22
HETATM   22  C   UNK N   1      32.452  16.668   4.765  0.00  0.00     0.030 C 
HETATM   23  C   UNK N   1      33.332  16.336   3.568  0.00  0.00     0.025 C 
HETATM   24  C   UNK N   1      33.362  17.304   5.798  0.00  0.00     0.025 C 
HETATM   25  C   UNK N   1      31.410  17.663   4.283  0.00  0.00     0.025 C 
ENDBRANCH  19  22
ENDBRANCH   7  18
TORSDOF 4
ENDMDL
MODEL 3
REMARK VINA RESULT:      -5.9     21.554     24.732
REMARK  4 active torsions:
REMARK  status: ('A' for Active; 'I' for Inactive)
REMARK       I    between atoms: N_4  and  C_11 
REMARK    1  A    between atoms: N_4  and  C_10 
REMARK    2  A    between atoms: N_7  and  C_16 
REMARK       I    between atoms: N_7  and  C_17 
REMARK    3  A    between atoms: C_11  and  C_12 
REMARK    4  A    between atoms: C_17  and  C_18 
ROOT
HETATM    1  N   UNK N   1      26.545  26.887  -3.392  0.00  0.00    -0.360 N 
ATOM      2  HN  UNK N   1      27.175  26.929  -2.591  1.00  0.00     0.165 HD
HETATM    3  C   UNK N   1      26.448  25.720  -4.094  0.00  0.00     0.128 A 
HETATM    4  C   UNK N   1      25.832  27.994  -3.724  0.00  0.00     0.088 A 
HETATM    5  C   UNK N   1      24.967  27.966  -4.814  0.00  0.00     0.019 A 
HETATM    6  C   UNK N   1      24.844  26.794  -5.554  0.00  0.00     0.033 A 
HETATM    7  C   UNK N   1      25.572  25.651  -5.210  0.00  0.00     0.067 A 
ENDROOT
BRANCH   3   8
HETATM    8  C   UNK N   1      27.277  24.561  -3.657  0.00  0.00     0.276 C 
HETATM    9  N   UNK N   1      28.453  24.289  -4.284  0.00  0.00    -0.302 N 
HETATM   10  H   UNK N   1      28.678  24.827  -5.077  0.00  0.00     0.171 HD
HETATM   11  O   UNK N   1      26.893  23.860  -2.735  0.00  0.00    -0.266 OA
BRANCH   9  12
HETATM   12  C   UNK N   1      29.381  23.293  -3.892  0.00  0.00     0.151 A 
HETATM   13  S   UNK N   1      30.010  22.156  -4.895  0.00  0.00    -0.064 SA
HETATM   14  C   UNK N   1      31.053  21.452  -3.817  0.00  0.00     0.070 A 
HETATM   15  C   UNK N   1      30.883  22.176  -2.617  0.00  0.00     0.097 A 
HETATM   16  N   UNK N   1      29.956  23.197  -2.671  0.00  0.00    -0.346 N 
ATOM     17  HN  UNK N   1      29.732  23.807  -1.885  1.00  0.00     0.167 HD
ENDBRANCH   9  12
ENDBRANCH   3   8
BRANCH   7  18
HETATM   18  N   UNK N   1      25.500  24.448  -5.980  0.00  0.00    -0.324 N 
HETATM   19  C   UNK N   1      26.003  24.112  -7.204  0.00  0.00     0.229 C 
HETATM   20  O   UNK N   1      25.787  22.978  -7.607  0.00  0.00    -0.272 OA
HETATM   21  H   UNK N   1      24.992  23.726  -5.544  0.00  0.00     0.169 HD
BRANCH  19  22
HETATM   22  C   UNK N   1      26.745  25.078  -8.120  0.00  0.00     0.030 C 
HETATM   23  C   UNK N   1      27.413  24.336  -9.270  0.00  0.00     0.025 C 
HETATM   24  C   UNK N   1      27.854  25.804  -7.382  0.00  0.00     0.025 C 
HETATM   25  C   UNK N   1      25.776  26.069  -8.740  0.00  0.00     0.025 C 
ENDBRANCH  19  22
ENDBRANCH   7  18
TORSDOF 4
ENDMDL
MODEL 4
REMARK VINA RESULT:      -5.9      2.578      4.109
REMARK  4 active torsions:
REMARK  status: ('A' for Active; 'I' for Inactive)
REMARK       I    between atoms: N_4  and  C_11 
REMARK    1  A    between atoms: N_4  and  C_10 
REMARK    2  A    between atoms: N_7  and  C_16 
REMARK       I    between atoms: N_7  and  C_17 
REMARK    3  A    between atoms: C_11  and  C_12 
REMARK    4  A    between atoms: C_17  and  C_18 
ROOT
HETATM    1  N   UNK N   1      36.078  10.914  11.482  0.00  0.00    -0.360 N 
ATOM      2  HN  UNK N   1      35.587  10.985  10.591  1.00  0.00     0.165 HD
HETATM    3  C   UNK N   1      36.223  12.037  12.246  0.00  0.00     0.128 A 
HETATM    4  C   UNK N   1      36.567   9.707  11.868  0.00  0.00     0.088 A 
HETATM    5  C   UNK N   1      37.243   9.583  13.077  0.00  0.00     0.019 A 
HETATM    6  C   UNK N   1      37.411  10.706  13.881  0.00  0.00     0.033 A 
HETATM    7  C   UNK N   1      36.904  11.949  13.489  0.00  0.00     0.067 A 
ENDROOT
BRANCH   3   8
HETATM    8  C   UNK N   1      35.660  13.318  11.733  0.00  0.00     0.276 C 
HETATM    9  N   UNK N   1      36.130  13.856  10.576  0.00  0.00    -0.302 N 
HETATM   10  H   UNK N   1      36.902  13.415  10.154  0.00  0.00     0.171 HD
HETATM   11  O   UNK N   1      34.775  13.880  12.360  0.00  0.00    -0.266 OA
BRANCH   9  12
HETATM   12  C   UNK N   1      35.603  15.000   9.928  0.00  0.00     0.151 A 
HETATM   13  S   UNK N   1      35.024  15.019   8.392  0.00  0.00    -0.064 SA
HETATM   14  C   UNK N   1      34.498  16.590   8.367  0.00  0.00     0.070 A 
HETATM   15  C   UNK N   1      34.798  17.098   9.648  0.00  0.00     0.097 A 
HETATM   16  N   UNK N   1      35.407  16.207  10.509  0.00  0.00    -0.346 N 
ATOM     17  HN  UNK N   1      35.677  16.430  11.466  1.00  0.00     0.167 HD
ENDBRANCH   9  12
ENDBRANCH   3   8
BRANCH   7  18
HETATM   18  N   UNK N   1      37.102  13.128  14.273  0.00  0.00    -0.324 N 
HETATM   19  C   UNK N   1      36.595  13.523  15.477  0.00  0.00     0.229 C 
HETATM   20  O   UNK N   1      36.967  14.602  15.916  0.00  0.00    -0.272 OA
HETATM   21  H   UNK N   1      37.721  13.778  13.867  0.00  0.00     0.169 HD
BRANCH  19  22
HETATM   22  C   UNK N   1      35.549  12.742  16.265  0.00  0.00     0.030 C 
HETATM   23  C   UNK N   1      36.121  11.428  16.778  0.00  0.00     0.025 C 
HETATM   24  C   UNK N   1      34.358  12.378  15.399  0.00  0.00     0.025 C 
HETATM   25  C   UNK N   1      35.105  13.534  17.483  0.00  0.00     0.025 C 
ENDBRANCH  19  22
ENDBRANCH   7  18
TORSDOF 4
ENDMDL
MODEL 5
REMARK VINA RESULT:      -5.8      3.243      5.001
REMARK  4 active torsions:
REMARK  status: ('A' for Active; 'I' for Inactive)
REMARK       I    between atoms: N_4  and  C_11 
REMARK    1  A    between atoms: N_4  and  C_10 
REMARK    2  A    between atoms: N_7  and  C_16 
REMARK       I    between atoms: N_7  and  C_17 
REMARK    3  A    between atoms: C_11  and  C_12 
REMARK    4  A    between atoms: C_17  and  C_18 
ROOT
HETATM    1  N   UNK N   1      35.840  12.122   9.774  0.00  0.00    -0.360 N 
ATOM      2  HN  UNK N   1      35.178  12.209   9.003  1.00  0.00     0.165 HD
HETATM    3  C   UNK N   1      35.870  13.098  10.729  0.00  0.00     0.128 A 
HETATM    4  C   UNK N   1      36.661  11.041   9.816  0.00  0.00     0.088 A 
HETATM    5  C   UNK N   1      37.574  10.898  10.856  0.00  0.00     0.019 A 
HETATM    6  C   UNK N   1      37.634  11.874  11.847  0.00  0.00     0.033 A 
HETATM    7  C   UNK N   1      36.786  12.985  11.808  0.00  0.00     0.067 A 
ENDROOT
BRANCH   3   8
HETATM    8  C   UNK N   1      34.936  14.251  10.592  0.00  0.00     0.276 C 
HETATM    9  N   UNK N   1      34.820  14.897   9.401  0.00  0.00    -0.302 N 
HETATM   10  H   UNK N   1      35.432  14.627   8.679  0.00  0.00     0.171 HD
HETATM   11  O   UNK N   1      34.280  14.611  11.556  0.00  0.00    -0.266 OA
BRANCH   9  12
HETATM   12  C   UNK N   1      33.890  15.926   9.112  0.00  0.00     0.151 A 
HETATM   13  S   UNK N   1      34.284  17.390   8.484  0.00  0.00    -0.064 SA
HETATM   14  C   UNK N   1      32.747  17.989   8.320  0.00  0.00     0.070 A 
HETATM   15  C   UNK N   1      31.902  16.959   8.784  0.00  0.00     0.097 A 
HETATM   16  N   UNK N   1      32.545  15.817   9.216  0.00  0.00    -0.346 N 
ATOM     17  HN  UNK N   1      32.065  14.991   9.573  1.00  0.00     0.167 HD
ENDBRANCH   9  12
ENDBRANCH   3   8
BRANCH   7  18
HETATM   18  N   UNK N   1      36.859  14.025  12.787  0.00  0.00    -0.324 N 
HETATM   19  C   UNK N   1      36.573  14.047  14.122  0.00  0.00     0.229 C 
HETATM   20  O   UNK N   1      36.750  15.102  14.717  0.00  0.00    -0.272 OA
HETATM   21  H   UNK N   1      37.174  14.887  12.431  0.00  0.00     0.169 HD
BRANCH  19  22
HETATM   22  C   UNK N   1      35.983  12.872  14.893  0.00  0.00     0.030 C 
HETATM   23  C   UNK N   1      35.522  13.305  16.278  0.00  0.00     0.025 C 
HETATM   24  C   UNK N   1      37.008  11.777  15.109  0.00  0.00     0.025 C 
HETATM   25  C   UNK N   1      34.761  12.328  14.173  0.00  0.00     0.025 C 
ENDBRANCH  19  22
ENDBRANCH   7  18
TORSDOF 4
ENDMDL
MODEL 6
REMARK VINA RESULT:      -5.5     22.020     24.942
REMARK  4 active torsions:
REMARK  status: ('A' for Active; 'I' for Inactive)
REMARK       I    between atoms: N_4  and  C_11 
REMARK    1  A    between atoms: N_4  and  C_10 
REMARK    2  A    between atoms: N_7  and  C_16 
REMARK       I    between atoms: N_7  and  C_17 
REMARK    3  A    between atoms: C_11  and  C_12 
REMARK    4  A    between atoms: C_17  and  C_18 
ROOT
HETATM    1  N   UNK N   1      27.014  27.456  -6.851  0.00  0.00    -0.360 N 
ATOM      2  HN  UNK N   1      26.720  27.341  -7.820  1.00  0.00     0.165 HD
HETATM    3  C   UNK N   1      26.761  26.449  -5.962  0.00  0.00     0.128 A 
HETATM    4  C   UNK N   1      27.643  28.603  -6.486  0.00  0.00     0.088 A 
HETATM    5  C   UNK N   1      28.052  28.786  -5.169  0.00  0.00     0.019 A 
HETATM    6  C   UNK N   1      27.809  27.782  -4.236  0.00  0.00     0.033 A 
HETATM    7  C   UNK N   1      27.167  26.598  -4.610  0.00  0.00     0.067 A 
ENDROOT
BRANCH   3   8
HETATM    8  C   UNK N   1      26.057  25.232  -6.455  0.00  0.00     0.276 C 
HETATM    9  N   UNK N   1      26.571  24.520  -7.494  0.00  0.00    -0.302 N 
HETATM   10  H   UNK N   1      27.361  24.891  -7.948  0.00  0.00     0.171 HD
HETATM   11  O   UNK N   1      25.016  24.881  -5.921  0.00  0.00    -0.266 OA
BRANCH   9  12
HETATM   12  C   UNK N   1      26.061  23.290  -7.978  0.00  0.00     0.151 A 
HETATM   13  S   UNK N   1      26.446  22.627  -9.430  0.00  0.00    -0.064 SA
HETATM   14  C   UNK N   1      25.606  21.208  -9.262  0.00  0.00     0.070 A 
HETATM   15  C   UNK N   1      25.009  21.285  -7.985  0.00  0.00     0.097 A 
HETATM   16  N   UNK N   1      25.272  22.441  -7.279  0.00  0.00    -0.346 N 
ATOM     17  HN  UNK N   1      24.915  22.634  -6.344  1.00  0.00     0.167 HD
ENDBRANCH   9  12
ENDBRANCH   3   8
BRANCH   7  18
HETATM   18  N   UNK N   1      26.864  25.571  -3.663  0.00  0.00    -0.324 N 
HETATM   19  C   UNK N   1      27.590  24.514  -3.194  0.00  0.00     0.229 C 
HETATM   20  O   UNK N   1      27.062  23.797  -2.356  0.00  0.00    -0.272 OA
HETATM   21  H   UNK N   1      25.961  25.638  -3.275  0.00  0.00     0.169 HD
BRANCH  19  22
HETATM   22  C   UNK N   1      28.977  24.135  -3.700  0.00  0.00     0.030 C 
HETATM   23  C   UNK N   1      29.908  25.340  -3.695  0.00  0.00     0.025 C 
HETATM   24  C   UNK N   1      28.931  23.640  -5.132  0.00  0.00     0.025 C 
HETATM   25  C   UNK N   1      29.605  23.092  -2.792  0.00  0.00     0.025 C 
ENDBRANCH  19  22
ENDBRANCH   7  18
TORSDOF 4
ENDMDL
MODEL 7
REMARK VINA RESULT:      -5.4      3.434      7.500
REMARK  4 active torsions:
REMARK  status: ('A' for Active; 'I' for Inactive)
REMARK       I    between atoms: N_4  and  C_11 
REMARK    1  A    between atoms: N_4  and  C_10 
REMARK    2  A    between atoms: N_7  and  C_16 
REMARK       I    between atoms: N_7  and  C_17 
REMARK    3  A    between atoms: C_11  and  C_12 
REMARK    4  A    between atoms: C_17  and  C_18 
ROOT
HETATM    1  N   UNK N   1      35.464  11.949   9.898  0.00  0.00    -0.360 N 
ATOM      2  HN  UNK N   1      35.301  11.264  10.635  1.00  0.00     0.165 HD
HETATM    3  C   UNK N   1      35.533  13.272  10.231  0.00  0.00     0.128 A 
HETATM    4  C   UNK N   1      35.605  11.516   8.618  0.00  0.00     0.088 A 
HETATM    5  C   UNK N   1      35.826  12.429   7.592  0.00  0.00     0.019 A 
HETATM    6  C   UNK N   1      35.900  13.785   7.894  0.00  0.00     0.033 A 
HETATM    7  C   UNK N   1      35.761  14.233   9.211  0.00  0.00     0.067 A 
ENDROOT
BRANCH   3   8
HETATM    8  C   UNK N   1      35.357  13.651  11.661  0.00  0.00     0.276 C 
HETATM    9  N   UNK N   1      36.232  13.198  12.599  0.00  0.00    -0.302 N 
HETATM   10  H   UNK N   1      36.915  12.554  12.306  0.00  0.00     0.171 HD
HETATM   11  O   UNK N   1      34.423  14.368  11.983  0.00  0.00    -0.266 OA
BRANCH   9  12
HETATM   12  C   UNK N   1      36.240  13.578  13.964  0.00  0.00     0.151 A 
HETATM   13  S   UNK N   1      35.353  12.852  15.140  0.00  0.00    -0.064 SA
HETATM   14  C   UNK N   1      35.938  13.712  16.430  0.00  0.00     0.070 A 
HETATM   15  C   UNK N   1      36.884  14.602  15.878  0.00  0.00     0.097 A 
HETATM   16  N   UNK N   1      37.047  14.516  14.510  0.00  0.00    -0.346 N 
ATOM     17  HN  UNK N   1      37.697  15.091  13.975  1.00  0.00     0.167 HD
ENDBRANCH   9  12
ENDBRANCH   3   8
BRANCH   7  18
HETATM   18  N   UNK N   1      35.788  15.624   9.543  0.00  0.00    -0.324 N 
HETATM   19  C   UNK N   1      34.910  16.641   9.298  0.00  0.00     0.229 C 
HETATM   20  O   UNK N   1      35.200  17.749   9.728  0.00  0.00    -0.272 OA
HETATM   21  H   UNK N   1      36.590  15.900  10.043  0.00  0.00     0.169 HD
BRANCH  19  22
HETATM   22  C   UNK N   1      33.640  16.496   8.467  0.00  0.00     0.030 C 
HETATM   23  C   UNK N   1      32.823  17.781   8.491  0.00  0.00     0.025 C 
HETATM   24  C   UNK N   1      32.737  15.409   9.016  0.00  0.00     0.025 C 
HETATM   25  C   UNK N   1      33.988  16.223   7.014  0.00  0.00     0.025 C 
ENDBRANCH  19  22
ENDBRANCH   7  18
TORSDOF 4
ENDMDL
MODEL 8
REMARK VINA RESULT:      -5.3      3.502      5.787
REMARK  4 active torsions:
REMARK  status: ('A' for Active; 'I' for Inactive)
REMARK       I    between atoms: N_4  and  C_11 
REMARK    1  A    between atoms: N_4  and  C_10 
REMARK    2  A    between atoms: N_7  and  C_16 
REMARK       I    between atoms: N_7  and  C_17 
REMARK    3  A    between atoms: C_11  and  C_12 
REMARK    4  A    between atoms: C_17  and  C_18 
ROOT
HETATM    1  N   UNK N   1      35.201  13.958  12.608  0.00  0.00    -0.360 N 
ATOM      2  HN  UNK N   1      34.404  14.594  12.629  1.00  0.00     0.165 HD
HETATM    3  C   UNK N   1      36.168  14.145  11.662  0.00  0.00     0.128 A 
HETATM    4  C   UNK N   1      35.266  12.956  13.522  0.00  0.00     0.088 A 
HETATM    5  C   UNK N   1      36.342  12.073  13.516  0.00  0.00     0.019 A 
HETATM    6  C   UNK N   1      37.345  12.232  12.564  0.00  0.00     0.033 A 
HETATM    7  C   UNK N   1      37.283  13.266  11.626  0.00  0.00     0.067 A 
ENDROOT
BRANCH   3   8
HETATM    8  C   UNK N   1      36.004  15.268  10.696  0.00  0.00     0.276 C 
HETATM    9  N   UNK N   1      35.026  15.219   9.752  0.00  0.00    -0.302 N 
HETATM   10  H   UNK N   1      34.504  14.388   9.685  0.00  0.00     0.171 HD
HETATM   11  O   UNK N   1      36.755  16.229  10.758  0.00  0.00    -0.266 OA
BRANCH   9  12
HETATM   12  C   UNK N   1      34.697  16.267   8.857  0.00  0.00     0.151 A 
HETATM   13  S   UNK N   1      34.303  16.055   7.277  0.00  0.00    -0.064 SA
HETATM   14  C   UNK N   1      33.948  17.633   6.918  0.00  0.00     0.070 A 
HETATM   15  C   UNK N   1      34.151  18.338   8.123  0.00  0.00     0.097 A 
HETATM   16  N   UNK N   1      34.561  17.570   9.194  0.00  0.00    -0.346 N 
ATOM     17  HN  UNK N   1      34.742  17.940  10.126  1.00  0.00     0.167 HD
ENDBRANCH   9  12
ENDBRANCH   3   8
BRANCH   7  18
HETATM   18  N   UNK N   1      38.276  13.425  10.608  0.00  0.00    -0.324 N 
HETATM   19  C   UNK N   1      38.484  12.780   9.423  0.00  0.00     0.229 C 
HETATM   20  O   UNK N   1      39.427  13.151   8.739  0.00  0.00    -0.272 OA
HETATM   21  H   UNK N   1      38.933  14.132  10.799  0.00  0.00     0.169 HD
BRANCH  19  22
HETATM   22  C   UNK N   1      37.664  11.588   8.941  0.00  0.00     0.030 C 
HETATM   23  C   UNK N   1      37.998  11.247   7.494  0.00  0.00     0.025 C 
HETATM   24  C   UNK N   1      36.177  11.884   8.975  0.00  0.00     0.025 C 
HETATM   25  C   UNK N   1      37.985  10.356   9.768  0.00  0.00     0.025 C 
ENDBRANCH  19  22
ENDBRANCH   7  18
TORSDOF 4
ENDMDL
MODEL 9
REMARK VINA RESULT:      -5.3     15.691     17.740
REMARK  4 active torsions:
REMARK  status: ('A' for Active; 'I' for Inactive)
REMARK       I    between atoms: N_4  and  C_11 
REMARK    1  A    between atoms: N_4  and  C_10 
REMARK    2  A    between atoms: N_7  and  C_16 
REMARK       I    between atoms: N_7  and  C_17 
REMARK    3  A    between atoms: C_11  and  C_12 
REMARK    4  A    between atoms: C_17  and  C_18 
ROOT
HETATM    1  N   UNK N   1      42.068  20.636   2.487  0.00  0.00    -0.360 N 
ATOM      2  HN  UNK N   1      42.143  19.636   2.671  1.00  0.00     0.165 HD
HETATM    3  C   UNK N   1      43.132  21.441   2.778  0.00  0.00     0.128 A 
HETATM    4  C   UNK N   1      40.913  21.123   1.962  0.00  0.00     0.088 A 
HETATM    5  C   UNK N   1      40.783  22.483   1.703  0.00  0.00     0.019 A 
HETATM    6  C   UNK N   1      41.846  23.335   1.989  0.00  0.00     0.033 A 
HETATM    7  C   UNK N   1      43.038  22.836   2.524  0.00  0.00     0.067 A 
ENDROOT
BRANCH   3   8
HETATM    8  C   UNK N   1      44.353  20.816   3.360  0.00  0.00     0.276 C 
HETATM    9  N   UNK N   1      44.770  19.597   2.923  0.00  0.00    -0.302 N 
HETATM   10  H   UNK N   1      44.190  19.124   2.285  0.00  0.00     0.171 HD
HETATM   11  O   UNK N   1      44.973  21.405   4.231  0.00  0.00    -0.266 OA
BRANCH   9  12
HETATM   12  C   UNK N   1      45.970  18.953   3.312  0.00  0.00     0.151 A 
HETATM   13  S   UNK N   1      46.209  17.329   3.281  0.00  0.00    -0.064 SA
HETATM   14  C   UNK N   1      47.802  17.325   3.738  0.00  0.00     0.070 A 
HETATM   15  C   UNK N   1      48.138  18.685   3.909  0.00  0.00     0.097 A 
HETATM   16  N   UNK N   1      47.116  19.580   3.665  0.00  0.00    -0.346 N 
ATOM     17  HN  UNK N   1      47.212  20.592   3.743  1.00  0.00     0.167 HD
ENDBRANCH   9  12
ENDBRANCH   3   8
BRANCH   7  18
HETATM   18  N   UNK N   1      44.129  23.693   2.870  0.00  0.00    -0.324 N 
HETATM   19  C   UNK N   1      45.075  24.321   2.113  0.00  0.00     0.229 C 
HETATM   20  O   UNK N   1      45.891  25.019   2.699  0.00  0.00    -0.272 OA
HETATM   21  H   UNK N   1      44.213  23.862   3.836  0.00  0.00     0.169 HD
BRANCH  19  22
HETATM   22  C   UNK N   1      45.221  24.149   0.605  0.00  0.00     0.030 C 
HETATM   23  C   UNK N   1      44.152  24.938  -0.140  0.00  0.00     0.025 C 
HETATM   24  C   UNK N   1      45.045  22.701   0.191  0.00  0.00     0.025 C 
HETATM   25  C   UNK N   1      46.564  24.681   0.139  0.00  0.00     0.025 C 
ENDBRANCH  19  22
ENDBRANCH   7  18
TORSDOF 4
ENDMDL
