MODEL 1
REMARK VINA RESULT:      -5.8      0.000      0.000
REMARK  2 active torsions:
REMARK  status: ('A' for Active; 'I' for Inactive)
REMARK    1  A    between atoms: C_7  and  O_10 
REMARK    2  A    between atoms: O_10  and  S_11 
ROOT
HETATM    1  S   UNK N   1      21.542  20.066   2.405  0.00  0.00     0.245 S 
HETATM    2  O   UNK N   1      21.454  20.636   0.982  0.00  0.00    -0.579 OA
HETATM    3  O   UNK N   1      20.303  20.539   3.176  0.00  0.00    -0.579 OA
HETATM    4  O   UNK N   1      21.714  21.763   2.612  0.00  0.00    -0.273 OA
HETATM    5  H   UNK N   1      21.655  22.727   2.686  0.00  0.00     0.234 HD
ENDROOT
BRANCH   1   6
HETATM    6  O   UNK N   1      23.050  20.402   3.126  0.00  0.00    -0.218 OA
BRANCH   6   7
HETATM    7  C   UNK N   1      23.806  19.538   3.849  0.00  0.00     0.118 A 
HETATM    8  C   UNK N   1      25.175  19.505   4.030  0.00  0.00     0.027 A 
HETATM    9  C   UNK N   1      26.209  20.304   3.549  0.00  0.00     0.017 A 
HETATM   10  C   UNK N   1      25.425  18.428   4.839  0.00  0.00     0.045 A 
HETATM   11  C   UNK N   1      27.526  19.976   3.915  0.00  0.00     0.001 A 
HETATM   12  C   UNK N   1      27.779  18.866   4.752  0.00  0.00     0.002 A 
HETATM   13  C   UNK N   1      26.717  18.078   5.225  0.00  0.00     0.030 A 
HETATM   14  N   UNK N   1      24.288  17.792   5.172  0.00  0.00    -0.362 N 
HETATM   15  C   UNK N   1      23.282  18.468   4.562  0.00  0.00     0.127 A 
HETATM   16  H   UNK N   1      24.203  16.996   5.745  0.00  0.00     0.165 HD
ENDBRANCH   6   7
ENDBRANCH   1   6
TORSDOF 2
ENDMDL
MODEL 2
REMARK VINA RESULT:      -5.6     14.704     15.996
REMARK  2 active torsions:
REMARK  status: ('A' for Active; 'I' for Inactive)
REMARK    1  A    between atoms: C_7  and  O_10 
REMARK    2  A    between atoms: O_10  and  S_11 
ROOT
HETATM    1  S   UNK N   1      35.385  15.777  10.666  0.00  0.00     0.245 S 
HETATM    2  O   UNK N   1      35.975  15.161   9.389  0.00  0.00    -0.579 OA
HETATM    3  O   UNK N   1      35.642  17.289  10.617  0.00  0.00    -0.579 OA
HETATM    4  O   UNK N   1      37.081  15.990  10.833  0.00  0.00    -0.273 OA
HETATM    5  H   UNK N   1      38.023  16.216  10.807  0.00  0.00     0.234 HD
ENDROOT
BRANCH   1   6
HETATM    6  O   UNK N   1      35.925  14.968  12.065  0.00  0.00    -0.218 OA
BRANCH   6   7
HETATM    7  C   UNK N   1      35.438  13.801  12.558  0.00  0.00     0.118 A 
HETATM    8  C   UNK N   1      35.448  13.319  13.852  0.00  0.00     0.027 A 
HETATM    9  C   UNK N   1      35.945  13.835  15.046  0.00  0.00     0.017 A 
HETATM   10  C   UNK N   1      34.838  12.093  13.806  0.00  0.00     0.045 A 
HETATM   11  C   UNK N   1      35.808  13.060  16.212  0.00  0.00     0.001 A 
HETATM   12  C   UNK N   1      35.176  11.798  16.159  0.00  0.00     0.002 A 
HETATM   13  C   UNK N   1      34.681  11.303  14.941  0.00  0.00     0.030 A 
HETATM   14  N   UNK N   1      34.448  11.788  12.555  0.00  0.00    -0.362 N 
HETATM   15  C   UNK N   1      34.818  12.835  11.776  0.00  0.00     0.127 A 
HETATM   16  H   UNK N   1      33.986  10.968  12.265  0.00  0.00     0.165 HD
ENDBRANCH   6   7
ENDBRANCH   1   6
TORSDOF 2
ENDMDL
MODEL 3
REMARK VINA RESULT:      -5.6      3.999      4.853
REMARK  2 active torsions:
REMARK  status: ('A' for Active; 'I' for Inactive)
REMARK    1  A    between atoms: C_7  and  O_10 
REMARK    2  A    between atoms: O_10  and  S_11 
ROOT
HETATM    1  S   UNK N   1      22.421  20.353   2.498  0.00  0.00     0.245 S 
HETATM    2  O   UNK N   1      23.276  21.563   2.903  0.00  0.00    -0.579 OA
HETATM    3  O   UNK N   1      21.828  20.643   1.113  0.00  0.00    -0.579 OA
HETATM    4  O   UNK N   1      21.288  21.628   2.708  0.00  0.00    -0.273 OA
HETATM    5  H   UNK N   1      20.715  22.410   2.694  0.00  0.00     0.234 HD
ENDROOT
BRANCH   1   6
HETATM    6  O   UNK N   1      21.308  19.931   3.719  0.00  0.00    -0.218 OA
BRANCH   6   7
HETATM    7  C   UNK N   1      20.697  18.729   3.870  0.00  0.00     0.118 A 
HETATM    8  C   UNK N   1      20.876  17.766   4.843  0.00  0.00     0.027 A 
HETATM    9  C   UNK N   1      21.713  17.692   5.953  0.00  0.00     0.017 A 
HETATM   10  C   UNK N   1      20.021  16.743   4.527  0.00  0.00     0.045 A 
HETATM   11  C   UNK N   1      21.661  16.532   6.747  0.00  0.00     0.001 A 
HETATM   12  C   UNK N   1      20.776  15.481   6.418  0.00  0.00     0.002 A 
HETATM   13  C   UNK N   1      19.940  15.583   5.293  0.00  0.00     0.030 A 
HETATM   14  N   UNK N   1      19.319  17.019   3.413  0.00  0.00    -0.362 N 
HETATM   15  C   UNK N   1      19.733  18.242   2.996  0.00  0.00     0.127 A 
HETATM   16  H   UNK N   1      18.641  16.447   2.986  0.00  0.00     0.165 HD
ENDBRANCH   6   7
ENDBRANCH   1   6
TORSDOF 2
ENDMDL
MODEL 4
REMARK VINA RESULT:      -5.6     10.250     11.386
REMARK  2 active torsions:
REMARK  status: ('A' for Active; 'I' for Inactive)
REMARK    1  A    between atoms: C_7  and  O_10 
REMARK    2  A    between atoms: O_10  and  S_11 
ROOT
HETATM    1  S   UNK N   1      29.596  22.982  -2.820  0.00  0.00     0.245 S 
HETATM    2  O   UNK N   1      30.368  23.047  -1.493  0.00  0.00    -0.579 OA
HETATM    3  O   UNK N   1      30.623  23.016  -3.959  0.00  0.00    -0.579 OA
HETATM    4  O   UNK N   1      30.291  24.553  -2.804  0.00  0.00    -0.273 OA
HETATM    5  H   UNK N   1      30.823  25.363  -2.815  0.00  0.00     0.234 HD
ENDROOT
BRANCH   1   6
HETATM    6  O   UNK N   1      28.359  24.152  -2.887  0.00  0.00    -0.218 OA
BRANCH   6   7
HETATM    7  C   UNK N   1      27.634  24.494  -3.982  0.00  0.00     0.118 A 
HETATM    8  C   UNK N   1      26.826  25.594  -4.195  0.00  0.00     0.027 A 
HETATM    9  C   UNK N   1      26.482  26.679  -3.394  0.00  0.00     0.017 A 
HETATM   10  C   UNK N   1      26.321  25.455  -5.461  0.00  0.00     0.045 A 
HETATM   11  C   UNK N   1      25.595  27.637  -3.919  0.00  0.00     0.001 A 
HETATM   12  C   UNK N   1      25.079  27.491  -5.226  0.00  0.00     0.002 A 
HETATM   13  C   UNK N   1      25.445  26.386  -6.014  0.00  0.00     0.030 A 
HETATM   14  N   UNK N   1      26.773  24.332  -6.047  0.00  0.00    -0.362 N 
HETATM   15  C   UNK N   1      27.581  23.729  -5.140  0.00  0.00     0.127 A 
HETATM   16  H   UNK N   1      26.559  24.013  -6.954  0.00  0.00     0.165 HD
ENDBRANCH   6   7
ENDBRANCH   1   6
TORSDOF 2
ENDMDL
MODEL 5
REMARK VINA RESULT:      -5.5     15.319     16.471
REMARK  2 active torsions:
REMARK  status: ('A' for Active; 'I' for Inactive)
REMARK    1  A    between atoms: C_7  and  O_10 
REMARK    2  A    between atoms: O_10  and  S_11 
ROOT
HETATM    1  S   UNK N   1      35.024  14.241  10.944  0.00  0.00     0.245 S 
HETATM    2  O   UNK N   1      35.200  15.746  10.689  0.00  0.00    -0.579 OA
HETATM    3  O   UNK N   1      34.105  13.686   9.849  0.00  0.00    -0.579 OA
HETATM    4  O   UNK N   1      33.467  14.909  11.229  0.00  0.00    -0.273 OA
HETATM    5  H   UNK N   1      32.585  15.311  11.230  0.00  0.00     0.234 HD
ENDROOT
BRANCH   1   6
HETATM    6  O   UNK N   1      34.555  13.925  12.552  0.00  0.00    -0.218 OA
BRANCH   6   7
HETATM    7  C   UNK N   1      35.343  13.425  13.536  0.00  0.00     0.118 A 
HETATM    8  C   UNK N   1      35.156  12.313  14.333  0.00  0.00     0.027 A 
HETATM    9  C   UNK N   1      34.138  11.366  14.407  0.00  0.00     0.017 A 
HETATM   10  C   UNK N   1      36.240  12.259  15.171  0.00  0.00     0.045 A 
HETATM   11  C   UNK N   1      34.248  10.346  15.370  0.00  0.00     0.001 A 
HETATM   12  C   UNK N   1      35.368  10.294  16.229  0.00  0.00     0.002 A 
HETATM   13  C   UNK N   1      36.382  11.261  16.131  0.00  0.00     0.030 A 
HETATM   14  N   UNK N   1      37.089  13.274  14.936  0.00  0.00    -0.362 N 
HETATM   15  C   UNK N   1      36.542  14.003  13.931  0.00  0.00     0.127 A 
HETATM   16  H   UNK N   1      37.939  13.452  15.401  0.00  0.00     0.165 HD
ENDBRANCH   6   7
ENDBRANCH   1   6
TORSDOF 2
ENDMDL
MODEL 6
REMARK VINA RESULT:      -5.5     11.052     11.906
REMARK  2 active torsions:
REMARK  status: ('A' for Active; 'I' for Inactive)
REMARK    1  A    between atoms: C_7  and  O_10 
REMARK    2  A    between atoms: O_10  and  S_11 
ROOT
HETATM    1  S   UNK N   1      25.935  23.867  -8.707  0.00  0.00     0.245 S 
HETATM    2  O   UNK N   1      25.111  24.228  -9.951  0.00  0.00    -0.579 OA
HETATM    3  O   UNK N   1      26.394  22.410  -8.856  0.00  0.00    -0.579 OA
HETATM    4  O   UNK N   1      24.524  22.895  -8.583  0.00  0.00    -0.273 OA
HETATM    5  H   UNK N   1      23.788  22.267  -8.639  0.00  0.00     0.234 HD
ENDROOT
BRANCH   1   6
HETATM    6  O   UNK N   1      25.105  24.250  -7.268  0.00  0.00    -0.218 OA
BRANCH   6   7
HETATM    7  C   UNK N   1      25.667  24.578  -6.078  0.00  0.00     0.118 A 
HETATM    8  C   UNK N   1      25.614  25.766  -5.377  0.00  0.00     0.027 A 
HETATM    9  C   UNK N   1      25.001  26.989  -5.639  0.00  0.00     0.017 A 
HETATM   10  C   UNK N   1      26.357  25.572  -4.242  0.00  0.00     0.045 A 
HETATM   11  C   UNK N   1      25.166  28.028  -4.705  0.00  0.00     0.001 A 
HETATM   12  C   UNK N   1      25.931  27.821  -3.536  0.00  0.00     0.002 A 
HETATM   13  C   UNK N   1      26.537  26.577  -3.295  0.00  0.00     0.030 A 
HETATM   14  N   UNK N   1      26.867  24.328  -4.199  0.00  0.00    -0.362 N 
HETATM   15  C   UNK N   1      26.450  23.707  -5.331  0.00  0.00     0.127 A 
HETATM   16  H   UNK N   1      27.430  23.945  -3.487  0.00  0.00     0.165 HD
ENDBRANCH   6   7
ENDBRANCH   1   6
TORSDOF 2
ENDMDL
MODEL 7
REMARK VINA RESULT:      -5.4      8.745      9.769
REMARK  2 active torsions:
REMARK  status: ('A' for Active; 'I' for Inactive)
REMARK    1  A    between atoms: C_7  and  O_10 
REMARK    2  A    between atoms: O_10  and  S_11 
ROOT
HETATM    1  S   UNK N   1      33.971  16.877   6.140  0.00  0.00     0.245 S 
HETATM    2  O   UNK N   1      35.227  16.021   5.917  0.00  0.00    -0.579 OA
HETATM    3  O   UNK N   1      34.403  18.163   6.856  0.00  0.00    -0.579 OA
HETATM    4  O   UNK N   1      34.461  16.415   7.721  0.00  0.00    -0.273 OA
HETATM    5  H   UNK N   1      34.862  16.253   8.588  0.00  0.00     0.234 HD
ENDROOT
BRANCH   1   6
HETATM    6  O   UNK N   1      32.724  15.985   6.885  0.00  0.00    -0.218 OA
BRANCH   6   7
HETATM    7  C   UNK N   1      31.399  16.277   6.858  0.00  0.00     0.118 A 
HETATM    8  C   UNK N   1      30.671  17.136   7.658  0.00  0.00     0.027 A 
HETATM    9  C   UNK N   1      31.025  17.958   8.725  0.00  0.00     0.017 A 
HETATM   10  C   UNK N   1      29.375  17.056   7.220  0.00  0.00     0.045 A 
HETATM   11  C   UNK N   1      30.011  18.707   9.350  0.00  0.00     0.001 A 
HETATM   12  C   UNK N   1      28.677  18.622   8.894  0.00  0.00     0.002 A 
HETATM   13  C   UNK N   1      28.349  17.787   7.813  0.00  0.00     0.030 A 
HETATM   14  N   UNK N   1      29.259  16.197   6.193  0.00  0.00    -0.362 N 
HETATM   15  C   UNK N   1      30.503  15.707   5.965  0.00  0.00     0.127 A 
HETATM   16  H   UNK N   1      28.434  15.969   5.704  0.00  0.00     0.165 HD
ENDBRANCH   6   7
ENDBRANCH   1   6
TORSDOF 2
ENDMDL
MODEL 8
REMARK VINA RESULT:      -5.3      7.281      8.489
REMARK  2 active torsions:
REMARK  status: ('A' for Active; 'I' for Inactive)
REMARK    1  A    between atoms: C_7  and  O_10 
REMARK    2  A    between atoms: O_10  and  S_11 
ROOT
HETATM    1  S   UNK N   1      19.200  16.728   8.301  0.00  0.00     0.245 S 
HETATM    2  O   UNK N   1      18.821  17.901   9.217  0.00  0.00    -0.579 OA
HETATM    3  O   UNK N   1      17.976  16.395   7.437  0.00  0.00    -0.579 OA
HETATM    4  O   UNK N   1      18.015  16.077   9.362  0.00  0.00    -0.273 OA
HETATM    5  H   UNK N   1      17.244  15.805   9.881  0.00  0.00     0.234 HD
ENDROOT
BRANCH   1   6
HETATM    6  O   UNK N   1      19.873  15.433   9.181  0.00  0.00    -0.218 OA
BRANCH   6   7
HETATM    7  C   UNK N   1      20.965  14.706   8.833  0.00  0.00     0.118 A 
HETATM    8  C   UNK N   1      21.536  13.618   9.464  0.00  0.00     0.027 A 
HETATM    9  C   UNK N   1      21.210  12.924  10.626  0.00  0.00     0.017 A 
HETATM   10  C   UNK N   1      22.623  13.267   8.708  0.00  0.00     0.045 A 
HETATM   11  C   UNK N   1      22.031  11.849  11.010  0.00  0.00     0.001 A 
HETATM   12  C   UNK N   1      23.150  11.490  10.226  0.00  0.00     0.002 A 
HETATM   13  C   UNK N   1      23.455  12.206   9.056  0.00  0.00     0.030 A 
HETATM   14  N   UNK N   1      22.758  14.076   7.642  0.00  0.00    -0.362 N 
HETATM   15  C   UNK N   1      21.741  14.971   7.713  0.00  0.00     0.127 A 
HETATM   16  H   UNK N   1      23.456  14.027   6.948  0.00  0.00     0.165 HD
ENDBRANCH   6   7
ENDBRANCH   1   6
TORSDOF 2
ENDMDL
MODEL 9
REMARK VINA RESULT:      -5.3      1.440      2.402
REMARK  2 active torsions:
REMARK  status: ('A' for Active; 'I' for Inactive)
REMARK    1  A    between atoms: C_7  and  O_10 
REMARK    2  A    between atoms: O_10  and  S_11 
ROOT
HETATM    1  S   UNK N   1      21.371  20.140   1.800  0.00  0.00     0.245 S 
HETATM    2  O   UNK N   1      21.310  20.772   0.401  0.00  0.00    -0.579 OA
HETATM    3  O   UNK N   1      19.961  20.197   2.400  0.00  0.00    -0.579 OA
HETATM    4  O   UNK N   1      21.033  21.798   2.093  0.00  0.00    -0.273 OA
HETATM    5  H   UNK N   1      20.697  22.702   2.194  0.00  0.00     0.234 HD
ENDROOT
BRANCH   1   6
HETATM    6  O   UNK N   1      22.619  20.817   2.743  0.00  0.00    -0.218 OA
BRANCH   6   7
HETATM    7  C   UNK N   1      23.786  20.216   3.086  0.00  0.00     0.118 A 
HETATM    8  C   UNK N   1      24.001  19.064   3.816  0.00  0.00     0.027 A 
HETATM    9  C   UNK N   1      23.137  18.164   4.434  0.00  0.00     0.017 A 
HETATM   10  C   UNK N   1      25.361  18.904   3.880  0.00  0.00     0.045 A 
HETATM   11  C   UNK N   1      23.697  17.079   5.133  0.00  0.00     0.001 A 
HETATM   12  C   UNK N   1      25.099  16.917   5.195  0.00  0.00     0.002 A 
HETATM   13  C   UNK N   1      25.948  17.839   4.560  0.00  0.00     0.030 A 
HETATM   14  N   UNK N   1      26.000  19.891   3.229  0.00  0.00    -0.362 N 
HETATM   15  C   UNK N   1      25.036  20.709   2.738  0.00  0.00     0.127 A 
HETATM   16  H   UNK N   1      26.974  19.998   3.129  0.00  0.00     0.165 HD
ENDBRANCH   6   7
ENDBRANCH   1   6
TORSDOF 2
ENDMDL
