MODEL 1
REMARK VINA RESULT:      -7.2      0.000      0.000
REMARK  4 active torsions:
REMARK  status: ('A' for Active; 'I' for Inactive)
REMARK    1  A    between atoms: C_1  and  O_20 
REMARK    2  A    between atoms: C_3  and  O_19 
REMARK    3  A    between atoms: C_9  and  C_12 
REMARK    4  A    between atoms: C_15  and  O_18 
ROOT
HETATM    1  C   UNK N   1      31.581  20.471  -5.645  0.00  0.00     0.071 A 
HETATM    2  C   UNK N   1      32.173  20.415  -4.383  0.00  0.00     0.074 A 
HETATM    3  C   UNK N   1      31.715  21.236  -3.344  0.00  0.00     0.085 A 
HETATM    4  C   UNK N   1      30.642  22.131  -3.577  0.00  0.00     0.081 A 
HETATM    5  C   UNK N   1      30.055  22.174  -4.862  0.00  0.00     0.095 A 
HETATM    6  C   UNK N   1      30.526  21.348  -5.882  0.00  0.00     0.075 A 
HETATM    7  C   UNK N   1      30.119  22.993  -2.586  0.00  0.00     0.190 A 
HETATM    8  C   UNK N   1      29.058  23.841  -2.911  0.00  0.00     0.094 A 
HETATM    9  C   UNK N   1      28.535  23.820  -4.212  0.00  0.00     0.090 A 
HETATM   10  O   UNK N   1      29.050  22.997  -5.120  0.00  0.00    -0.309 OA
HETATM   11  O   UNK N   1      30.575  23.010  -1.456  0.00  0.00    -0.287 OA
ENDROOT
BRANCH   9  12
HETATM   12  C   UNK N   1      27.417  24.689  -4.619  0.00  0.00    -0.002 A 
HETATM   13  C   UNK N   1      26.673  24.448  -5.786  0.00  0.00     0.017 A 
HETATM   14  C   UNK N   1      25.619  25.304  -6.131  0.00  0.00     0.037 A 
HETATM   15  C   UNK N   1      25.306  26.397  -5.316  0.00  0.00     0.065 A 
HETATM   16  C   UNK N   1      26.043  26.638  -4.157  0.00  0.00     0.037 A 
HETATM   17  C   UNK N   1      27.092  25.789  -3.812  0.00  0.00     0.017 A 
BRANCH  15  18
HETATM   18  O   UNK N   1      24.295  27.218  -5.646  0.00  0.00    -0.361 OA
HETATM   19  H   UNK N   1      23.430  27.044  -5.332  0.00  0.00     0.217 HD
ENDBRANCH  15  18
ENDBRANCH   9  12
BRANCH   3  20
HETATM   20  O   UNK N   1      32.309  21.154  -2.141  0.00  0.00    -0.360 OA
HETATM   21  H   UNK N   1      32.850  20.417  -1.934  0.00  0.00     0.217 HD
ENDBRANCH   3  20
BRANCH   1  22
HETATM   22  O   UNK N   1      32.025  19.681  -6.636  0.00  0.00    -0.361 OA
HETATM   23  H   UNK N   1      32.006  19.985  -7.522  0.00  0.00     0.217 HD
ENDBRANCH   1  22
TORSDOF 4
ENDMDL
MODEL 2
REMARK VINA RESULT:      -7.2     12.151     14.762
REMARK  4 active torsions:
REMARK  status: ('A' for Active; 'I' for Inactive)
REMARK    1  A    between atoms: C_1  and  O_20 
REMARK    2  A    between atoms: C_3  and  O_19 
REMARK    3  A    between atoms: C_9  and  C_12 
REMARK    4  A    between atoms: C_15  and  O_18 
ROOT
HETATM    1  C   UNK N   1      34.263  14.779  10.902  0.00  0.00     0.071 A 
HETATM    2  C   UNK N   1      35.137  15.827  11.197  0.00  0.00     0.074 A 
HETATM    3  C   UNK N   1      35.242  16.929  10.339  0.00  0.00     0.085 A 
HETATM    4  C   UNK N   1      34.456  16.981   9.161  0.00  0.00     0.081 A 
HETATM    5  C   UNK N   1      33.578  15.910   8.880  0.00  0.00     0.095 A 
HETATM    6  C   UNK N   1      33.488  14.823   9.747  0.00  0.00     0.075 A 
HETATM    7  C   UNK N   1      34.501  18.054   8.243  0.00  0.00     0.190 A 
HETATM    8  C   UNK N   1      33.687  18.015   7.108  0.00  0.00     0.094 A 
HETATM    9  C   UNK N   1      32.844  16.914   6.906  0.00  0.00     0.090 A 
HETATM   10  O   UNK N   1      32.826  15.921   7.789  0.00  0.00    -0.309 OA
HETATM   11  O   UNK N   1      35.234  19.010   8.420  0.00  0.00    -0.287 OA
ENDROOT
BRANCH   9  12
HETATM   12  C   UNK N   1      31.961  16.811   5.730  0.00  0.00    -0.002 A 
HETATM   13  C   UNK N   1      30.607  16.457   5.845  0.00  0.00     0.017 A 
HETATM   14  C   UNK N   1      29.807  16.373   4.697  0.00  0.00     0.037 A 
HETATM   15  C   UNK N   1      30.356  16.641   3.437  0.00  0.00     0.065 A 
HETATM   16  C   UNK N   1      31.700  16.992   3.322  0.00  0.00     0.037 A 
HETATM   17  C   UNK N   1      32.497  17.077   4.462  0.00  0.00     0.017 A 
BRANCH  15  18
HETATM   18  O   UNK N   1      29.591  16.560   2.337  0.00  0.00    -0.361 OA
HETATM   19  H   UNK N   1      28.909  15.919   2.287  0.00  0.00     0.217 HD
ENDBRANCH  15  18
ENDBRANCH   9  12
BRANCH   3  20
HETATM   20  O   UNK N   1      36.094  17.920  10.655  0.00  0.00    -0.360 OA
HETATM   21  H   UNK N   1      35.884  18.515  11.348  0.00  0.00     0.217 HD
ENDBRANCH   3  20
BRANCH   1  22
HETATM   22  O   UNK N   1      34.168  13.726  11.730  0.00  0.00    -0.361 OA
HETATM   23  H   UNK N   1      33.343  13.299  11.851  0.00  0.00     0.217 HD
ENDBRANCH   1  22
TORSDOF 4
ENDMDL
MODEL 3
REMARK VINA RESULT:      -7.1     19.989     23.099
REMARK  4 active torsions:
REMARK  status: ('A' for Active; 'I' for Inactive)
REMARK    1  A    between atoms: C_1  and  O_20 
REMARK    2  A    between atoms: C_3  and  O_19 
REMARK    3  A    between atoms: C_9  and  C_12 
REMARK    4  A    between atoms: C_15  and  O_18 
ROOT
HETATM    1  C   UNK N   1      36.130  15.133  11.278  0.00  0.00     0.071 A 
HETATM    2  C   UNK N   1      35.610  14.188  10.393  0.00  0.00     0.074 A 
HETATM    3  C   UNK N   1      35.075  12.984  10.869  0.00  0.00     0.085 A 
HETATM    4  C   UNK N   1      35.061  12.724  12.262  0.00  0.00     0.081 A 
HETATM    5  C   UNK N   1      35.593  13.693  13.143  0.00  0.00     0.095 A 
HETATM    6  C   UNK N   1      36.120  14.884  12.648  0.00  0.00     0.075 A 
HETATM    7  C   UNK N   1      34.541  11.536  12.826  0.00  0.00     0.190 A 
HETATM    8  C   UNK N   1      34.572  11.370  14.213  0.00  0.00     0.094 A 
HETATM    9  C   UNK N   1      35.118  12.383  15.014  0.00  0.00     0.090 A 
HETATM   10  O   UNK N   1      35.598  13.487  14.451  0.00  0.00    -0.309 OA
HETATM   11  O   UNK N   1      34.068  10.658  12.128  0.00  0.00    -0.287 OA
ENDROOT
BRANCH   9  12
HETATM   12  C   UNK N   1      35.180  12.270  16.482  0.00  0.00    -0.002 A 
HETATM   13  C   UNK N   1      35.312  11.030  17.128  0.00  0.00     0.017 A 
HETATM   14  C   UNK N   1      35.367  10.974  18.527  0.00  0.00     0.037 A 
HETATM   15  C   UNK N   1      35.291  12.151  19.281  0.00  0.00     0.065 A 
HETATM   16  C   UNK N   1      35.161  13.382  18.641  0.00  0.00     0.037 A 
HETATM   17  C   UNK N   1      35.106  13.440  17.250  0.00  0.00     0.017 A 
BRANCH  15  18
HETATM   18  O   UNK N   1      35.344  12.098  20.621  0.00  0.00    -0.361 OA
HETATM   19  H   UNK N   1      35.305  11.270  21.059  0.00  0.00     0.217 HD
ENDBRANCH  15  18
ENDBRANCH   9  12
BRANCH   3  20
HETATM   20  O   UNK N   1      34.583  12.098   9.987  0.00  0.00    -0.360 OA
HETATM   21  H   UNK N   1      34.814  11.192  10.055  0.00  0.00     0.217 HD
ENDBRANCH   3  20
BRANCH   1  22
HETATM   22  O   UNK N   1      36.641  16.285  10.814  0.00  0.00    -0.361 OA
HETATM   23  H   UNK N   1      37.176  16.817  11.368  0.00  0.00     0.217 HD
ENDBRANCH   1  22
TORSDOF 4
ENDMDL
MODEL 4
REMARK VINA RESULT:      -6.9     16.262     17.402
REMARK  4 active torsions:
REMARK  status: ('A' for Active; 'I' for Inactive)
REMARK    1  A    between atoms: C_1  and  O_20 
REMARK    2  A    between atoms: C_3  and  O_19 
REMARK    3  A    between atoms: C_9  and  C_12 
REMARK    4  A    between atoms: C_15  and  O_18 
ROOT
HETATM    1  C   UNK N   1      24.176  12.153  10.957  0.00  0.00     0.071 A 
HETATM    2  C   UNK N   1      22.992  11.782  11.596  0.00  0.00     0.074 A 
HETATM    3  C   UNK N   1      21.762  12.306  11.177  0.00  0.00     0.085 A 
HETATM    4  C   UNK N   1      21.719  13.219  10.095  0.00  0.00     0.081 A 
HETATM    5  C   UNK N   1      22.929  13.583   9.460  0.00  0.00     0.095 A 
HETATM    6  C   UNK N   1      24.142  13.050   9.893  0.00  0.00     0.075 A 
HETATM    7  C   UNK N   1      20.523  13.794   9.609  0.00  0.00     0.190 A 
HETATM    8  C   UNK N   1      20.582  14.686   8.535  0.00  0.00     0.094 A 
HETATM    9  C   UNK N   1      21.825  14.992   7.964  0.00  0.00     0.090 A 
HETATM   10  O   UNK N   1      22.931  14.434   8.445  0.00  0.00    -0.309 OA
HETATM   11  O   UNK N   1      19.444  13.527  10.106  0.00  0.00    -0.287 OA
ENDROOT
BRANCH   9  12
HETATM   12  C   UNK N   1      21.956  15.925   6.830  0.00  0.00    -0.002 A 
HETATM   13  C   UNK N   1      21.133  17.055   6.697  0.00  0.00     0.017 A 
HETATM   14  C   UNK N   1      21.297  17.912   5.601  0.00  0.00     0.037 A 
HETATM   15  C   UNK N   1      22.278  17.644   4.639  0.00  0.00     0.065 A 
HETATM   16  C   UNK N   1      23.095  16.523   4.771  0.00  0.00     0.037 A 
HETATM   17  C   UNK N   1      22.935  15.669   5.860  0.00  0.00     0.017 A 
BRANCH  15  18
HETATM   18  O   UNK N   1      22.435  18.465   3.589  0.00  0.00    -0.361 OA
HETATM   19  H   UNK N   1      21.686  18.856   3.184  0.00  0.00     0.217 HD
ENDBRANCH  15  18
ENDBRANCH   9  12
BRANCH   3  20
HETATM   20  O   UNK N   1      20.642  11.926  11.816  0.00  0.00    -0.360 OA
HETATM   21  H   UNK N   1      20.684  11.274  12.488  0.00  0.00     0.217 HD
ENDBRANCH   3  20
BRANCH   1  22
HETATM   22  O   UNK N   1      25.350  11.647  11.365  0.00  0.00    -0.361 OA
HETATM   23  H   UNK N   1      26.152  11.974  11.006  0.00  0.00     0.217 HD
ENDBRANCH   1  22
TORSDOF 4
ENDMDL
MODEL 5
REMARK VINA RESULT:      -6.8     10.080     11.722
REMARK  4 active torsions:
REMARK  status: ('A' for Active; 'I' for Inactive)
REMARK    1  A    between atoms: C_1  and  O_20 
REMARK    2  A    between atoms: C_3  and  O_19 
REMARK    3  A    between atoms: C_9  and  C_12 
REMARK    4  A    between atoms: C_15  and  O_18 
ROOT
HETATM    1  C   UNK N   1      29.672  18.242   9.223  0.00  0.00     0.071 A 
HETATM    2  C   UNK N   1      30.669  17.443   8.663  0.00  0.00     0.074 A 
HETATM    3  C   UNK N   1      30.629  17.102   7.304  0.00  0.00     0.085 A 
HETATM    4  C   UNK N   1      29.568  17.574   6.492  0.00  0.00     0.081 A 
HETATM    5  C   UNK N   1      28.567  18.382   7.078  0.00  0.00     0.095 A 
HETATM    6  C   UNK N   1      28.626  18.709   8.432  0.00  0.00     0.075 A 
HETATM    7  C   UNK N   1      29.452  17.277   5.115  0.00  0.00     0.190 A 
HETATM    8  C   UNK N   1      28.368  17.789   4.397  0.00  0.00     0.094 A 
HETATM    9  C   UNK N   1      27.420  18.583   5.057  0.00  0.00     0.090 A 
HETATM   10  O   UNK N   1      27.559  18.842   6.353  0.00  0.00    -0.309 OA
HETATM   11  O   UNK N   1      30.277  16.587   4.544  0.00  0.00    -0.287 OA
ENDROOT
BRANCH   9  12
HETATM   12  C   UNK N   1      26.255  19.152   4.357  0.00  0.00    -0.002 A 
HETATM   13  C   UNK N   1      24.946  18.706   4.606  0.00  0.00     0.017 A 
HETATM   14  C   UNK N   1      23.870  19.279   3.915  0.00  0.00     0.037 A 
HETATM   15  C   UNK N   1      24.097  20.294   2.978  0.00  0.00     0.065 A 
HETATM   16  C   UNK N   1      25.395  20.738   2.731  0.00  0.00     0.037 A 
HETATM   17  C   UNK N   1      26.467  20.170   3.416  0.00  0.00     0.017 A 
BRANCH  15  18
HETATM   18  O   UNK N   1      23.067  20.844   2.316  0.00  0.00    -0.361 OA
HETATM   19  H   UNK N   1      23.059  21.765   2.142  0.00  0.00     0.217 HD
ENDBRANCH  15  18
ENDBRANCH   9  12
BRANCH   3  20
HETATM   20  O   UNK N   1      31.606  16.331   6.799  0.00  0.00    -0.360 OA
HETATM   21  H   UNK N   1      32.452  16.697   6.629  0.00  0.00     0.217 HD
ENDBRANCH   3  20
BRANCH   1  22
HETATM   22  O   UNK N   1      29.717  18.565  10.526  0.00  0.00    -0.361 OA
HETATM   23  H   UNK N   1      29.189  19.266  10.854  0.00  0.00     0.217 HD
ENDBRANCH   1  22
TORSDOF 4
ENDMDL
MODEL 6
REMARK VINA RESULT:      -6.7      1.685      3.101
REMARK  4 active torsions:
REMARK  status: ('A' for Active; 'I' for Inactive)
REMARK    1  A    between atoms: C_1  and  O_20 
REMARK    2  A    between atoms: C_3  and  O_19 
REMARK    3  A    between atoms: C_9  and  C_12 
REMARK    4  A    between atoms: C_15  and  O_18 
ROOT
HETATM    1  C   UNK N   1      31.648  21.639  -2.944  0.00  0.00     0.071 A 
HETATM    2  C   UNK N   1      31.394  20.830  -4.052  0.00  0.00     0.074 A 
HETATM    3  C   UNK N   1      30.438  21.206  -5.004  0.00  0.00     0.085 A 
HETATM    4  C   UNK N   1      29.724  22.419  -4.842  0.00  0.00     0.081 A 
HETATM    5  C   UNK N   1      29.996  23.226  -3.713  0.00  0.00     0.095 A 
HETATM    6  C   UNK N   1      30.951  22.832  -2.777  0.00  0.00     0.075 A 
HETATM    7  C   UNK N   1      28.745  22.873  -5.755  0.00  0.00     0.190 A 
HETATM    8  C   UNK N   1      28.093  24.085  -5.509  0.00  0.00     0.094 A 
HETATM    9  C   UNK N   1      28.424  24.822  -4.363  0.00  0.00     0.090 A 
HETATM   10  O   UNK N   1      29.350  24.366  -3.526  0.00  0.00    -0.309 OA
HETATM   11  O   UNK N   1      28.459  22.231  -6.749  0.00  0.00    -0.287 OA
ENDROOT
BRANCH   9  12
HETATM   12  C   UNK N   1      27.775  26.107  -4.046  0.00  0.00    -0.002 A 
HETATM   13  C   UNK N   1      26.393  26.205  -3.815  0.00  0.00     0.017 A 
HETATM   14  C   UNK N   1      25.822  27.449  -3.517  0.00  0.00     0.037 A 
HETATM   15  C   UNK N   1      26.625  28.593  -3.449  0.00  0.00     0.065 A 
HETATM   16  C   UNK N   1      27.997  28.497  -3.678  0.00  0.00     0.037 A 
HETATM   17  C   UNK N   1      28.567  27.261  -3.975  0.00  0.00     0.017 A 
BRANCH  15  18
HETATM   18  O   UNK N   1      26.079  29.786  -3.163  0.00  0.00    -0.361 OA
HETATM   19  H   UNK N   1      26.513  30.574  -3.424  0.00  0.00     0.217 HD
ENDBRANCH  15  18
ENDBRANCH   9  12
BRANCH   3  20
HETATM   20  O   UNK N   1      30.219  20.402  -6.058  0.00  0.00    -0.360 OA
HETATM   21  H   UNK N   1      30.472  20.677  -6.918  0.00  0.00     0.217 HD
ENDBRANCH   3  20
BRANCH   1  22
HETATM   22  O   UNK N   1      32.566  21.271  -2.035  0.00  0.00    -0.361 OA
HETATM   23  H   UNK N   1      32.296  21.004  -1.178  0.00  0.00     0.217 HD
ENDBRANCH   1  22
TORSDOF 4
ENDMDL
MODEL 7
REMARK VINA RESULT:      -6.4     10.449     12.779
REMARK  4 active torsions:
REMARK  status: ('A' for Active; 'I' for Inactive)
REMARK    1  A    between atoms: C_1  and  O_20 
REMARK    2  A    between atoms: C_3  and  O_19 
REMARK    3  A    between atoms: C_9  and  C_12 
REMARK    4  A    between atoms: C_15  and  O_18 
ROOT
HETATM    1  C   UNK N   1      20.034  18.294   3.218  0.00  0.00     0.071 A 
HETATM    2  C   UNK N   1      20.025  19.633   2.825  0.00  0.00     0.074 A 
HETATM    3  C   UNK N   1      21.213  20.376   2.800  0.00  0.00     0.085 A 
HETATM    4  C   UNK N   1      22.433  19.763   3.177  0.00  0.00     0.081 A 
HETATM    5  C   UNK N   1      22.422  18.405   3.572  0.00  0.00     0.095 A 
HETATM    6  C   UNK N   1      21.229  17.684   3.589  0.00  0.00     0.075 A 
HETATM    7  C   UNK N   1      23.674  20.438   3.180  0.00  0.00     0.190 A 
HETATM    8  C   UNK N   1      24.826  19.748   3.568  0.00  0.00     0.094 A 
HETATM    9  C   UNK N   1      24.725  18.402   3.946  0.00  0.00     0.090 A 
HETATM   10  O   UNK N   1      23.541  17.796   3.931  0.00  0.00    -0.309 OA
HETATM   11  O   UNK N   1      23.761  21.608   2.852  0.00  0.00    -0.287 OA
ENDROOT
BRANCH   9  12
HETATM   12  C   UNK N   1      25.900  17.617   4.365  0.00  0.00    -0.002 A 
HETATM   13  C   UNK N   1      27.190  17.895   3.887  0.00  0.00     0.017 A 
HETATM   14  C   UNK N   1      28.276  17.120   4.315  0.00  0.00     0.037 A 
HETATM   15  C   UNK N   1      28.077  16.071   5.219  0.00  0.00     0.065 A 
HETATM   16  C   UNK N   1      26.796  15.793   5.695  0.00  0.00     0.037 A 
HETATM   17  C   UNK N   1      25.715  16.562   5.270  0.00  0.00     0.017 A 
BRANCH  15  18
HETATM   18  O   UNK N   1      29.117  15.328   5.631  0.00  0.00    -0.361 OA
HETATM   19  H   UNK N   1      28.972  14.584   6.183  0.00  0.00     0.217 HD
ENDBRANCH  15  18
ENDBRANCH   9  12
BRANCH   3  20
HETATM   20  O   UNK N   1      21.167  21.663   2.416  0.00  0.00    -0.360 OA
HETATM   21  H   UNK N   1      20.765  22.303   2.970  0.00  0.00     0.217 HD
ENDBRANCH   3  20
BRANCH   1  22
HETATM   22  O   UNK N   1      18.892  17.589   3.239  0.00  0.00    -0.361 OA
HETATM   23  H   UNK N   1      18.918  16.655   3.304  0.00  0.00     0.217 HD
ENDBRANCH   1  22
TORSDOF 4
ENDMDL
MODEL 8
REMARK VINA RESULT:      -6.4     22.052     24.960
REMARK  4 active torsions:
REMARK  status: ('A' for Active; 'I' for Inactive)
REMARK    1  A    between atoms: C_1  and  O_20 
REMARK    2  A    between atoms: C_3  and  O_19 
REMARK    3  A    between atoms: C_9  and  C_12 
REMARK    4  A    between atoms: C_15  and  O_18 
ROOT
HETATM    1  C   UNK N   1      35.130   9.903  19.481  0.00  0.00     0.071 A 
HETATM    2  C   UNK N   1      34.857  10.988  20.315  0.00  0.00     0.074 A 
HETATM    3  C   UNK N   1      34.942  12.299  19.828  0.00  0.00     0.085 A 
HETATM    4  C   UNK N   1      35.310  12.525  18.479  0.00  0.00     0.081 A 
HETATM    5  C   UNK N   1      35.583  11.413  17.650  0.00  0.00     0.095 A 
HETATM    6  C   UNK N   1      35.492  10.117  18.154  0.00  0.00     0.075 A 
HETATM    7  C   UNK N   1      35.420  13.814  17.908  0.00  0.00     0.190 A 
HETATM    8  C   UNK N   1      35.789  13.936  16.566  0.00  0.00     0.094 A 
HETATM    9  C   UNK N   1      36.043  12.779  15.815  0.00  0.00     0.090 A 
HETATM   10  O   UNK N   1      35.930  11.583  16.383  0.00  0.00    -0.309 OA
HETATM   11  O   UNK N   1      35.200  14.817  18.561  0.00  0.00    -0.287 OA
ENDROOT
BRANCH   9  12
HETATM   12  C   UNK N   1      36.436  12.838  14.396  0.00  0.00    -0.002 A 
HETATM   13  C   UNK N   1      37.204  11.829  13.794  0.00  0.00     0.017 A 
HETATM   14  C   UNK N   1      37.553  11.931  12.440  0.00  0.00     0.037 A 
HETATM   15  C   UNK N   1      37.137  13.036  11.689  0.00  0.00     0.065 A 
HETATM   16  C   UNK N   1      36.375  14.039  12.286  0.00  0.00     0.037 A 
HETATM   17  C   UNK N   1      36.027  13.940  13.631  0.00  0.00     0.017 A 
BRANCH  15  18
HETATM   18  O   UNK N   1      37.471  13.135  10.392  0.00  0.00    -0.361 OA
HETATM   19  H   UNK N   1      37.007  13.726   9.833  0.00  0.00     0.217 HD
ENDBRANCH  15  18
ENDBRANCH   9  12
BRANCH   3  20
HETATM   20  O   UNK N   1      34.672  13.320  20.659  0.00  0.00    -0.360 OA
HETATM   21  H   UNK N   1      34.387  13.148  21.536  0.00  0.00     0.217 HD
ENDBRANCH   3  20
BRANCH   1  22
HETATM   22  O   UNK N   1      35.046   8.650  19.955  0.00  0.00    -0.361 OA
HETATM   23  H   UNK N   1      35.823   8.137  20.068  0.00  0.00     0.217 HD
ENDBRANCH   1  22
TORSDOF 4
ENDMDL
MODEL 9
REMARK VINA RESULT:      -6.3     16.135     17.130
REMARK  4 active torsions:
REMARK  status: ('A' for Active; 'I' for Inactive)
REMARK    1  A    between atoms: C_1  and  O_20 
REMARK    2  A    between atoms: C_3  and  O_19 
REMARK    3  A    between atoms: C_9  and  C_12 
REMARK    4  A    between atoms: C_15  and  O_18 
ROOT
HETATM    1  C   UNK N   1      21.571  12.191  11.186  0.00  0.00     0.071 A 
HETATM    2  C   UNK N   1      22.950  11.981  11.232  0.00  0.00     0.074 A 
HETATM    3  C   UNK N   1      23.784  12.501  10.233  0.00  0.00     0.085 A 
HETATM    4  C   UNK N   1      23.222  13.245   9.166  0.00  0.00     0.081 A 
HETATM    5  C   UNK N   1      21.823  13.446   9.137  0.00  0.00     0.095 A 
HETATM    6  C   UNK N   1      21.012  12.921  10.141  0.00  0.00     0.075 A 
HETATM    7  C   UNK N   1      23.989  13.803   8.119  0.00  0.00     0.190 A 
HETATM    8  C   UNK N   1      23.344  14.522   7.110  0.00  0.00     0.094 A 
HETATM    9  C   UNK N   1      21.951  14.674   7.157  0.00  0.00     0.090 A 
HETATM   10  O   UNK N   1      21.260  14.136   8.157  0.00  0.00    -0.309 OA
HETATM   11  O   UNK N   1      25.199  13.670   8.079  0.00  0.00    -0.287 OA
ENDROOT
BRANCH   9  12
HETATM   12  C   UNK N   1      21.210  15.421   6.125  0.00  0.00    -0.002 A 
HETATM   13  C   UNK N   1      21.853  16.294   5.232  0.00  0.00     0.017 A 
HETATM   14  C   UNK N   1      21.105  16.981   4.267  0.00  0.00     0.037 A 
HETATM   15  C   UNK N   1      19.719  16.799   4.192  0.00  0.00     0.065 A 
HETATM   16  C   UNK N   1      19.080  15.933   5.077  0.00  0.00     0.037 A 
HETATM   17  C   UNK N   1      19.822  15.248   6.037  0.00  0.00     0.017 A 
BRANCH  15  18
HETATM   18  O   UNK N   1      19.001  17.458   3.267  0.00  0.00    -0.361 OA
HETATM   19  H   UNK N   1      19.317  18.268   2.919  0.00  0.00     0.217 HD
ENDBRANCH  15  18
ENDBRANCH   9  12
BRANCH   3  20
HETATM   20  O   UNK N   1      25.107  12.279  10.310  0.00  0.00    -0.360 OA
HETATM   21  H   UNK N   1      25.558  12.415  11.120  0.00  0.00     0.217 HD
ENDBRANCH   3  20
BRANCH   1  22
HETATM   22  O   UNK N   1      20.779  11.689  12.147  0.00  0.00    -0.361 OA
HETATM   23  H   UNK N   1      20.089  11.096  11.924  0.00  0.00     0.217 HD
ENDBRANCH   1  22
TORSDOF 4
ENDMDL
