MODEL 1
REMARK VINA RESULT:      -6.0      0.000      0.000
REMARK  3 active torsions:
REMARK  status: ('A' for Active; 'I' for Inactive)
REMARK    1  A    between atoms: C_2  and  C_10 
REMARK    2  A    between atoms: C_6  and  N_12 
REMARK    3  A    between atoms: O_9  and  C_10 
ROOT
HETATM    1  C   UNK N   1      30.203  16.630   5.655  0.00  0.00     0.066 C 
HETATM    2  C   UNK N   1      28.982  17.526   5.959  0.00  0.00     0.104 C 
HETATM    3  C   UNK N   1      29.879  17.424   8.289  0.00  0.00     0.153 C 
HETATM    4  C   UNK N   1      32.365  17.886   8.469  0.00  0.00     0.045 A 
HETATM    5  C   UNK N   1      33.645  17.891   7.885  0.00  0.00     0.103 A 
HETATM    6  C   UNK N   1      33.787  17.524   6.534  0.00  0.00     0.037 A 
HETATM    7  C   UNK N   1      32.672  17.138   5.784  0.00  0.00     0.010 A 
HETATM    8  C   UNK N   1      31.413  17.108   6.384  0.00  0.00    -0.048 A 
HETATM    9  C   UNK N   1      31.257  17.488   7.713  0.00  0.00    -0.032 A 
HETATM   10  N   UNK N   1      28.908  18.019   7.358  0.00  0.00    -0.411 N 
HETATM   11  H   UNK N   1      28.229  18.722   7.652  0.00  0.00     0.154 HD
ENDROOT
BRANCH   2  12
HETATM   12  C   UNK N   1      27.707  16.761   5.626  0.00  0.00     0.189 C 
BRANCH  12  13
HETATM   13  O   UNK N   1      26.637  17.224   6.396  0.00  0.00    -0.399 OA
HETATM   14  H   UNK N   1      26.434  16.805   7.246  0.00  0.00     0.209 HD
ENDBRANCH  12  13
ENDBRANCH   2  12
BRANCH   5  15
HETATM   15  N   UNK N   1      34.788  18.217   8.668  0.00  0.00    -0.116 N 
HETATM   16  O   UNK N   1      35.400  19.370   8.501  0.00  0.00    -0.532 OA
HETATM   17  O   UNK N   1      35.159  17.477   9.531  0.00  0.00    -0.532 OA
ENDBRANCH   5  15
TORSDOF 3
ENDMDL
MODEL 2
REMARK VINA RESULT:      -6.0      1.991      2.899
REMARK  3 active torsions:
REMARK  status: ('A' for Active; 'I' for Inactive)
REMARK    1  A    between atoms: C_2  and  C_10 
REMARK    2  A    between atoms: C_6  and  N_12 
REMARK    3  A    between atoms: O_9  and  C_10 
ROOT
HETATM    1  C   UNK N   1      30.387  16.917   5.268  0.00  0.00     0.066 C 
HETATM    2  C   UNK N   1      30.796  15.889   4.192  0.00  0.00     0.104 C 
HETATM    3  C   UNK N   1      32.912  17.219   4.168  0.00  0.00     0.153 C 
HETATM    4  C   UNK N   1      33.870  17.690   6.466  0.00  0.00     0.045 A 
HETATM    5  C   UNK N   1      33.683  17.854   7.851  0.00  0.00     0.103 A 
HETATM    6  C   UNK N   1      32.402  17.657   8.401  0.00  0.00     0.037 A 
HETATM    7  C   UNK N   1      31.322  17.323   7.577  0.00  0.00     0.010 A 
HETATM    8  C   UNK N   1      31.517  17.194   6.201  0.00  0.00    -0.048 A 
HETATM    9  C   UNK N   1      32.781  17.366   5.650  0.00  0.00    -0.032 A 
HETATM   10  N   UNK N   1      32.195  16.018   3.709  0.00  0.00    -0.411 N 
HETATM   11  H   UNK N   1      32.628  15.323   3.101  0.00  0.00     0.154 HD
ENDROOT
BRANCH   2  12
HETATM   12  C   UNK N   1      29.843  15.998   3.008  0.00  0.00     0.189 C 
BRANCH  12  13
HETATM   13  O   UNK N   1      29.141  17.205   3.048  0.00  0.00    -0.399 OA
HETATM   14  H   UNK N   1      29.509  17.995   2.623  0.00  0.00     0.209 HD
ENDBRANCH  12  13
ENDBRANCH   2  12
BRANCH   5  15
HETATM   15  N   UNK N   1      34.767  18.261   8.678  0.00  0.00    -0.116 N 
HETATM   16  O   UNK N   1      35.181  17.487   9.658  0.00  0.00    -0.532 OA
HETATM   17  O   UNK N   1      35.355  19.276   8.445  0.00  0.00    -0.532 OA
ENDBRANCH   5  15
TORSDOF 3
ENDMDL
MODEL 3
REMARK VINA RESULT:      -5.6     11.262     12.205
REMARK  3 active torsions:
REMARK  status: ('A' for Active; 'I' for Inactive)
REMARK    1  A    between atoms: C_2  and  C_10 
REMARK    2  A    between atoms: C_6  and  N_12 
REMARK    3  A    between atoms: O_9  and  C_10 
ROOT
HETATM    1  C   UNK N   1      21.551  19.479   3.383  0.00  0.00     0.066 C 
HETATM    2  C   UNK N   1      20.397  19.916   2.455  0.00  0.00     0.104 C 
HETATM    3  C   UNK N   1      19.931  17.462   2.392  0.00  0.00     0.153 C 
HETATM    4  C   UNK N   1      19.901  16.350   4.669  0.00  0.00     0.045 A 
HETATM    5  C   UNK N   1      20.314  16.323   6.015  0.00  0.00     0.103 A 
HETATM    6  C   UNK N   1      21.103  17.376   6.513  0.00  0.00     0.037 A 
HETATM    7  C   UNK N   1      21.492  18.428   5.677  0.00  0.00     0.010 A 
HETATM    8  C   UNK N   1      21.101  18.425   4.337  0.00  0.00    -0.048 A 
HETATM    9  C   UNK N   1      20.304  17.401   3.838  0.00  0.00    -0.032 A 
HETATM   10  N   UNK N   1      19.487  18.820   2.037  0.00  0.00    -0.411 N 
HETATM   11  H   UNK N   1      18.615  18.996   1.536  0.00  0.00     0.154 HD
ENDROOT
BRANCH   2  12
HETATM   12  C   UNK N   1      20.979  20.588   1.217  0.00  0.00     0.189 C 
BRANCH  12  13
HETATM   13  O   UNK N   1      20.591  19.911   0.059  0.00  0.00    -0.399 OA
HETATM   14  H   UNK N   1      20.474  20.397  -0.772  0.00  0.00     0.209 HD
ENDBRANCH  12  13
ENDBRANCH   2  12
BRANCH   5  15
HETATM   15  N   UNK N   1      19.976  15.219   6.846  0.00  0.00    -0.116 N 
HETATM   16  O   UNK N   1      19.609  15.416   8.094  0.00  0.00    -0.532 OA
HETATM   17  O   UNK N   1      19.957  14.111   6.398  0.00  0.00    -0.532 OA
ENDBRANCH   5  15
TORSDOF 3
ENDMDL
MODEL 4
REMARK VINA RESULT:      -5.4     15.423     16.830
REMARK  3 active torsions:
REMARK  status: ('A' for Active; 'I' for Inactive)
REMARK    1  A    between atoms: C_2  and  C_10 
REMARK    2  A    between atoms: C_6  and  N_12 
REMARK    3  A    between atoms: O_9  and  C_10 
ROOT
HETATM    1  C   UNK N   1      26.337  24.671  -8.332  0.00  0.00     0.066 C 
HETATM    2  C   UNK N   1      25.340  23.495  -8.430  0.00  0.00     0.104 C 
HETATM    3  C   UNK N   1      25.882  23.239  -6.004  0.00  0.00     0.153 C 
HETATM    4  C   UNK N   1      25.780  25.399  -4.681  0.00  0.00     0.045 A 
HETATM    5  C   UNK N   1      25.861  26.803  -4.639  0.00  0.00     0.103 A 
HETATM    6  C   UNK N   1      26.051  27.518  -5.836  0.00  0.00     0.037 A 
HETATM    7  C   UNK N   1      26.179  26.841  -7.053  0.00  0.00     0.010 A 
HETATM    8  C   UNK N   1      26.128  25.447  -7.076  0.00  0.00    -0.048 A 
HETATM    9  C   UNK N   1      25.920  24.730  -5.903  0.00  0.00    -0.032 A 
HETATM   10  N   UNK N   1      25.041  22.826  -7.139  0.00  0.00    -0.411 N 
HETATM   11  H   UNK N   1      24.303  22.127  -7.045  0.00  0.00     0.154 HD
ENDROOT
BRANCH   2  12
HETATM   12  C   UNK N   1      25.877  22.467  -9.418  0.00  0.00     0.189 C 
BRANCH  12  13
HETATM   13  O   UNK N   1      25.069  21.328  -9.434  0.00  0.00    -0.399 OA
HETATM   14  H   UNK N   1      25.456  20.455  -9.268  0.00  0.00     0.209 HD
ENDBRANCH  12  13
ENDBRANCH   2  12
BRANCH   5  15
HETATM   15  N   UNK N   1      25.799  27.487  -3.392  0.00  0.00    -0.116 N 
HETATM   16  O   UNK N   1      26.069  26.852  -2.272  0.00  0.00    -0.532 OA
HETATM   17  O   UNK N   1      25.571  28.660  -3.360  0.00  0.00    -0.532 OA
ENDBRANCH   5  15
TORSDOF 3
ENDMDL
MODEL 5
REMARK VINA RESULT:      -5.4     13.051     14.054
REMARK  3 active torsions:
REMARK  status: ('A' for Active; 'I' for Inactive)
REMARK    1  A    between atoms: C_2  and  C_10 
REMARK    2  A    between atoms: C_6  and  N_12 
REMARK    3  A    between atoms: O_9  and  C_10 
ROOT
HETATM    1  C   UNK N   1      27.442  22.930  -7.053  0.00  0.00     0.066 C 
HETATM    2  C   UNK N   1      27.076  24.394  -7.383  0.00  0.00     0.104 C 
HETATM    3  C   UNK N   1      26.897  24.582  -4.897  0.00  0.00     0.153 C 
HETATM    4  C   UNK N   1      28.866  23.606  -3.636  0.00  0.00     0.045 A 
HETATM    5  C   UNK N   1      29.944  22.704  -3.575  0.00  0.00     0.103 A 
HETATM    6  C   UNK N   1      30.233  21.900  -4.694  0.00  0.00     0.037 A 
HETATM    7  C   UNK N   1      29.445  21.982  -5.847  0.00  0.00     0.010 A 
HETATM    8  C   UNK N   1      28.361  22.859  -5.881  0.00  0.00    -0.048 A 
HETATM    9  C   UNK N   1      28.078  23.672  -4.790  0.00  0.00    -0.032 A 
HETATM   10  N   UNK N   1      26.901  25.272  -6.198  0.00  0.00    -0.411 N 
HETATM   11  H   UNK N   1      26.789  26.283  -6.280  0.00  0.00     0.154 HD
ENDROOT
BRANCH   2  12
HETATM   12  C   UNK N   1      25.801  24.414  -8.217  0.00  0.00     0.189 C 
BRANCH  12  13
HETATM   13  O   UNK N   1      24.957  23.361  -7.857  0.00  0.00    -0.399 OA
HETATM   14  H   UNK N   1      24.924  22.558  -8.398  0.00  0.00     0.209 HD
ENDBRANCH  12  13
ENDBRANCH   2  12
BRANCH   5  15
HETATM   15  N   UNK N   1      30.702  22.572  -2.378  0.00  0.00    -0.116 N 
HETATM   16  O   UNK N   1      31.841  21.913  -2.382  0.00  0.00    -0.532 OA
HETATM   17  O   UNK N   1      30.345  23.117  -1.375  0.00  0.00    -0.532 OA
ENDBRANCH   5  15
TORSDOF 3
ENDMDL
MODEL 6
REMARK VINA RESULT:      -5.4     12.632     14.560
REMARK  3 active torsions:
REMARK  status: ('A' for Active; 'I' for Inactive)
REMARK    1  A    between atoms: C_2  and  C_10 
REMARK    2  A    between atoms: C_6  and  N_12 
REMARK    3  A    between atoms: O_9  and  C_10 
ROOT
HETATM    1  C   UNK N   1      30.939  21.847  -5.145  0.00  0.00     0.066 C 
HETATM    2  C   UNK N   1      31.092  21.479  -3.653  0.00  0.00     0.104 C 
HETATM    3  C   UNK N   1      29.868  23.631  -3.317  0.00  0.00     0.153 C 
HETATM    4  C   UNK N   1      27.802  23.891  -4.761  0.00  0.00     0.045 A 
HETATM    5  C   UNK N   1      27.089  23.570  -5.931  0.00  0.00     0.103 A 
HETATM    6  C   UNK N   1      27.628  22.630  -6.830  0.00  0.00     0.037 A 
HETATM    7  C   UNK N   1      28.869  22.037  -6.575  0.00  0.00     0.010 A 
HETATM    8  C   UNK N   1      29.579  22.388  -5.427  0.00  0.00    -0.048 A 
HETATM    9  C   UNK N   1      29.047  23.299  -4.521  0.00  0.00    -0.032 A 
HETATM   10  N   UNK N   1      30.408  22.402  -2.713  0.00  0.00    -0.411 N 
HETATM   11  H   UNK N   1      30.321  22.200  -1.716  0.00  0.00     0.154 HD
ENDROOT
BRANCH   2  12
HETATM   12  C   UNK N   1      32.574  21.411  -3.304  0.00  0.00     0.189 C 
BRANCH  12  13
HETATM   13  O   UNK N   1      32.751  21.168  -1.940  0.00  0.00    -0.399 OA
HETATM   14  H   UNK N   1      33.257  21.791  -1.398  0.00  0.00     0.209 HD
ENDBRANCH  12  13
ENDBRANCH   2  12
BRANCH   5  15
HETATM   15  N   UNK N   1      25.860  24.224  -6.224  0.00  0.00    -0.116 N 
HETATM   16  O   UNK N   1      25.381  24.220  -7.449  0.00  0.00    -0.532 OA
HETATM   17  O   UNK N   1      25.219  24.723  -5.346  0.00  0.00    -0.532 OA
ENDBRANCH   5  15
TORSDOF 3
ENDMDL
MODEL 7
REMARK VINA RESULT:      -5.3      2.158      5.575
REMARK  3 active torsions:
REMARK  status: ('A' for Active; 'I' for Inactive)
REMARK    1  A    between atoms: C_2  and  C_10 
REMARK    2  A    between atoms: C_6  and  N_12 
REMARK    3  A    between atoms: O_9  and  C_10 
ROOT
HETATM    1  C   UNK N   1      34.174  17.666   7.308  0.00  0.00     0.066 C 
HETATM    2  C   UNK N   1      34.124  16.705   8.516  0.00  0.00     0.104 C 
HETATM    3  C   UNK N   1      31.688  17.262   8.463  0.00  0.00     0.153 C 
HETATM    4  C   UNK N   1      30.633  17.097   6.165  0.00  0.00     0.045 A 
HETATM    5  C   UNK N   1      30.759  17.135   4.764  0.00  0.00     0.103 A 
HETATM    6  C   UNK N   1      32.034  17.300   4.192  0.00  0.00     0.037 A 
HETATM    7  C   UNK N   1      33.162  17.446   5.006  0.00  0.00     0.010 A 
HETATM    8  C   UNK N   1      33.018  17.437   6.394  0.00  0.00    -0.048 A 
HETATM    9  C   UNK N   1      31.766  17.254   6.971  0.00  0.00    -0.032 A 
HETATM   10  N   UNK N   1      32.760  16.430   9.035  0.00  0.00    -0.411 N 
HETATM   11  H   UNK N   1      32.579  15.715   9.740  0.00  0.00     0.154 HD
ENDROOT
BRANCH   2  12
HETATM   12  C   UNK N   1      34.985  17.271   9.639  0.00  0.00     0.189 C 
BRANCH  12  13
HETATM   13  O   UNK N   1      34.627  16.711  10.867  0.00  0.00    -0.399 OA
HETATM   14  H   UNK N   1      35.309  16.502  11.523  0.00  0.00     0.209 HD
ENDBRANCH  12  13
ENDBRANCH   2  12
BRANCH   5  15
HETATM   15  N   UNK N   1      29.603  17.056   3.938  0.00  0.00    -0.116 N 
HETATM   16  O   UNK N   1      29.670  16.485   2.755  0.00  0.00    -0.532 OA
HETATM   17  O   UNK N   1      28.546  17.445   4.341  0.00  0.00    -0.532 OA
ENDBRANCH   5  15
TORSDOF 3
ENDMDL
MODEL 8
REMARK VINA RESULT:      -5.3      3.204      3.906
REMARK  3 active torsions:
REMARK  status: ('A' for Active; 'I' for Inactive)
REMARK    1  A    between atoms: C_2  and  C_10 
REMARK    2  A    between atoms: C_6  and  N_12 
REMARK    3  A    between atoms: O_9  and  C_10 
ROOT
HETATM    1  C   UNK N   1      29.249  17.530   7.329  0.00  0.00     0.066 C 
HETATM    2  C   UNK N   1      29.848  18.186   8.592  0.00  0.00     0.104 C 
HETATM    3  C   UNK N   1      31.585  16.411   8.311  0.00  0.00     0.153 C 
HETATM    4  C   UNK N   1      32.494  16.208   5.954  0.00  0.00     0.045 A 
HETATM    5  C   UNK N   1      32.327  16.384   4.568  0.00  0.00     0.103 A 
HETATM    6  C   UNK N   1      31.152  16.992   4.087  0.00  0.00     0.037 A 
HETATM    7  C   UNK N   1      30.150  17.398   4.975  0.00  0.00     0.010 A 
HETATM    8  C   UNK N   1      30.316  17.189   6.345  0.00  0.00    -0.048 A 
HETATM    9  C   UNK N   1      31.481  16.609   6.833  0.00  0.00    -0.032 A 
HETATM   10  N   UNK N   1      31.156  17.628   9.020  0.00  0.00    -0.411 N 
HETATM   11  H   UNK N   1      31.718  18.057   9.756  0.00  0.00     0.154 HD
ENDROOT
BRANCH   2  12
HETATM   12  C   UNK N   1      28.851  18.066   9.738  0.00  0.00     0.189 C 
BRANCH  12  13
HETATM   13  O   UNK N   1      27.553  18.326   9.294  0.00  0.00    -0.399 OA
HETATM   14  H   UNK N   1      27.400  18.987   8.601  0.00  0.00     0.209 HD
ENDBRANCH  12  13
ENDBRANCH   2  12
BRANCH   5  15
HETATM   15  N   UNK N   1      33.315  15.909   3.661  0.00  0.00    -0.116 N 
HETATM   16  O   UNK N   1      34.234  15.060   4.066  0.00  0.00    -0.532 OA
HETATM   17  O   UNK N   1      33.275  16.222   2.507  0.00  0.00    -0.532 OA
ENDBRANCH   5  15
TORSDOF 3
ENDMDL
MODEL 9
REMARK VINA RESULT:      -5.2      9.987     11.445
REMARK  3 active torsions:
REMARK  status: ('A' for Active; 'I' for Inactive)
REMARK    1  A    between atoms: C_2  and  C_10 
REMARK    2  A    between atoms: C_6  and  N_12 
REMARK    3  A    between atoms: O_9  and  C_10 
ROOT
HETATM    1  C   UNK N   1      21.178  13.156  10.009  0.00  0.00     0.066 C 
HETATM    2  C   UNK N   1      22.621  12.902  10.497  0.00  0.00     0.104 C 
HETATM    3  C   UNK N   1      23.188  13.430   8.122  0.00  0.00     0.153 C 
HETATM    4  C   UNK N   1      22.082  15.528   7.230  0.00  0.00     0.045 A 
HETATM    5  C   UNK N   1      21.028  16.460   7.274  0.00  0.00     0.103 A 
HETATM    6  C   UNK N   1      20.037  16.330   8.265  0.00  0.00     0.037 A 
HETATM    7  C   UNK N   1      20.085  15.276   9.183  0.00  0.00     0.010 A 
HETATM    8  C   UNK N   1      21.120  14.342   9.107  0.00  0.00    -0.048 A 
HETATM    9  C   UNK N   1      22.116  14.471   8.146  0.00  0.00    -0.032 A 
HETATM   10  N   UNK N   1      23.675  13.167   9.486  0.00  0.00    -0.411 N 
HETATM   11  H   UNK N   1      24.668  13.166   9.720  0.00  0.00     0.154 HD
ENDROOT
BRANCH   2  12
HETATM   12  C   UNK N   1      22.738  11.461  10.980  0.00  0.00     0.189 C 
BRANCH  12  13
HETATM   13  O   UNK N   1      22.648  11.397  12.372  0.00  0.00    -0.399 OA
HETATM   14  H   UNK N   1      23.117  12.045  12.919  0.00  0.00     0.209 HD
ENDBRANCH  12  13
ENDBRANCH   2  12
BRANCH   5  15
HETATM   15  N   UNK N   1      20.941  17.491   6.298  0.00  0.00    -0.116 N 
HETATM   16  O   UNK N   1      21.288  18.723   6.602  0.00  0.00    -0.532 OA
HETATM   17  O   UNK N   1      20.619  17.233   5.175  0.00  0.00    -0.532 OA
ENDBRANCH   5  15
TORSDOF 3
ENDMDL
