REMARK  8 active torsions:
REMARK  status: ('A' for Active; 'I' for Inactive)
REMARK    1  A    between atoms: C_2  and  C_9 
REMARK    2  A    between atoms: C_5  and  O_3 
REMARK    3  A    between atoms: C_4  and  C_5 
REMARK    4  A    between atoms: C_4  and  O_10 
REMARK    5  A    between atoms: C_5  and  C_6 
REMARK    6  A    between atoms: C_6  and  C_7 
REMARK    7  A    between atoms: C_7  and  C_8 
REMARK    8  A    between atoms: C_8  and  C_9 
ROOT
HETATM    1  C   UNK N   1       3.055   0.225   0.029  0.00  0.00     0.215 C 
ENDROOT
BRANCH   1   2
HETATM    2  O   UNK N   1       3.364   1.154  -0.967  0.00  0.00    -0.385 OA
HETATM    3  H   UNK N   1       4.030   1.292  -1.658  0.00  0.00     0.210 HD
ENDBRANCH   1   2
BRANCH   1   4
HETATM    4  C   UNK N   1       4.150  -0.807   0.109  0.00  0.00     0.169 C 
HETATM    5  O   UNK N   1       3.913  -1.992  -0.069  0.00  0.00    -0.648 OA
BRANCH   4   6
HETATM    6  O   UNK N   1       5.407  -0.421   0.400  0.00  0.00    -0.774 OA
HETATM    7  H   UNK N   1       6.077  -1.044   0.602  0.00  0.00     0.167 HD
ENDBRANCH   4   6
ENDBRANCH   1   4
BRANCH   1   8
HETATM    8  C   UNK N   1       1.715  -0.437  -0.278  0.00  0.00     0.043 C 
BRANCH   8   9
HETATM    9  C   UNK N   1       0.534   0.499  -0.112  0.00  0.00     0.003 C 
BRANCH   9  10
HETATM   10  C   UNK N   1      -0.716  -0.352  -0.166  0.00  0.00     0.000 C 
BRANCH  10  11
HETATM   11  C   UNK N   1      -1.956   0.485   0.053  0.00  0.00    -0.000 C 
BRANCH  11  12
HETATM   12  C   UNK N   1      -3.167  -0.417  -0.055  0.00  0.00    -0.005 C 
HETATM   13  C   UNK N   1      -4.431   0.407   0.049  0.00  0.00     0.005 C 
ENDBRANCH  11  12
ENDBRANCH  10  11
ENDBRANCH   9  10
ENDBRANCH   8   9
ENDBRANCH   1   8
TORSDOF 8
