MODEL 1
REMARK VINA RESULT:      -4.5      0.000      0.000
REMARK  8 active torsions:
REMARK  status: ('A' for Active; 'I' for Inactive)
REMARK    1  A    between atoms: C_2  and  C_9 
REMARK    2  A    between atoms: C_5  and  O_3 
REMARK    3  A    between atoms: C_4  and  C_5 
REMARK    4  A    between atoms: C_4  and  O_10 
REMARK    5  A    between atoms: C_5  and  C_6 
REMARK    6  A    between atoms: C_6  and  C_7 
REMARK    7  A    between atoms: C_7  and  C_8 
REMARK    8  A    between atoms: C_8  and  C_9 
ROOT
HETATM    1  C   UNK N   1      23.793  12.262  11.651  0.00  0.00     0.215 C 
ENDROOT
BRANCH   1   2
HETATM    2  O   UNK N   1      25.147  11.938  11.533  0.00  0.00    -0.385 OA
HETATM    3  H   UNK N   1      25.911  11.767  12.104  0.00  0.00     0.210 HD
ENDBRANCH   1   2
BRANCH   1   4
HETATM    4  C   UNK N   1      23.317  11.926  13.040  0.00  0.00     0.169 C 
HETATM    5  O   UNK N   1      23.903  12.346  14.026  0.00  0.00    -0.648 OA
BRANCH   4   6
HETATM    6  O   UNK N   1      22.240  11.133  13.200  0.00  0.00    -0.774 OA
HETATM    7  H   UNK N   1      22.089  10.665  13.998  0.00  0.00     0.167 HD
ENDBRANCH   4   6
ENDBRANCH   1   4
BRANCH   1   8
HETATM    8  C   UNK N   1      22.984  11.499  10.607  0.00  0.00     0.043 C 
BRANCH   8   9
HETATM    9  C   UNK N   1      22.252  12.406   9.637  0.00  0.00     0.003 C 
BRANCH   9  10
HETATM   10  C   UNK N   1      20.985  12.861  10.328  0.00  0.00     0.000 C 
BRANCH  10  11
HETATM   11  C   UNK N   1      20.484  14.163   9.746  0.00  0.00    -0.000 C 
BRANCH  11  12
HETATM   12  C   UNK N   1      21.020  14.295   8.337  0.00  0.00    -0.005 C 
HETATM   13  C   UNK N   1      21.028  15.751   7.926  0.00  0.00     0.005 C 
ENDBRANCH  11  12
ENDBRANCH  10  11
ENDBRANCH   9  10
ENDBRANCH   8   9
ENDBRANCH   1   8
TORSDOF 8
ENDMDL
MODEL 2
REMARK VINA RESULT:      -4.5     10.884     12.172
REMARK  8 active torsions:
REMARK  status: ('A' for Active; 'I' for Inactive)
REMARK    1  A    between atoms: C_2  and  C_9 
REMARK    2  A    between atoms: C_5  and  O_3 
REMARK    3  A    between atoms: C_4  and  C_5 
REMARK    4  A    between atoms: C_4  and  O_10 
REMARK    5  A    between atoms: C_5  and  C_6 
REMARK    6  A    between atoms: C_6  and  C_7 
REMARK    7  A    between atoms: C_7  and  C_8 
REMARK    8  A    between atoms: C_8  and  C_9 
ROOT
HETATM    1  C   UNK N   1      21.578  20.901   2.426  0.00  0.00     0.215 C 
ENDROOT
BRANCH   1   2
HETATM    2  O   UNK N   1      20.577  21.118   3.375  0.00  0.00    -0.385 OA
HETATM    3  H   UNK N   1      20.254  21.830   3.949  0.00  0.00     0.210 HD
ENDBRANCH   1   2
BRANCH   1   4
HETATM    4  C   UNK N   1      20.977  20.268   1.198  0.00  0.00     0.169 C 
HETATM    5  O   UNK N   1      21.125  20.769   0.094  0.00  0.00    -0.648 OA
BRANCH   4   6
HETATM    6  O   UNK N   1      20.247  19.142   1.320  0.00  0.00    -0.774 OA
HETATM    7  H   UNK N   1      19.855  18.898   2.135  0.00  0.00     0.167 HD
ENDBRANCH   4   6
ENDBRANCH   1   4
BRANCH   1   8
HETATM    8  C   UNK N   1      22.664  20.005   3.014  0.00  0.00     0.043 C 
BRANCH   8   9
HETATM    9  C   UNK N   1      24.040  20.641   2.995  0.00  0.00     0.003 C 
BRANCH   9  10
HETATM   10  C   UNK N   1      25.033  19.560   3.361  0.00  0.00     0.000 C 
BRANCH  10  11
HETATM   11  C   UNK N   1      25.575  19.766   4.757  0.00  0.00    -0.000 C 
BRANCH  11  12
HETATM   12  C   UNK N   1      26.878  20.529   4.657  0.00  0.00    -0.005 C 
HETATM   13  C   UNK N   1      27.084  21.359   5.904  0.00  0.00     0.005 C 
ENDBRANCH  11  12
ENDBRANCH  10  11
ENDBRANCH   9  10
ENDBRANCH   8   9
ENDBRANCH   1   8
TORSDOF 8
ENDMDL
MODEL 3
REMARK VINA RESULT:      -4.5     10.366     11.468
REMARK  8 active torsions:
REMARK  status: ('A' for Active; 'I' for Inactive)
REMARK    1  A    between atoms: C_2  and  C_9 
REMARK    2  A    between atoms: C_5  and  O_3 
REMARK    3  A    between atoms: C_4  and  C_5 
REMARK    4  A    between atoms: C_4  and  O_10 
REMARK    5  A    between atoms: C_5  and  C_6 
REMARK    6  A    between atoms: C_6  and  C_7 
REMARK    7  A    between atoms: C_7  and  C_8 
REMARK    8  A    between atoms: C_8  and  C_9 
ROOT
HETATM    1  C   UNK N   1      33.705  17.150   8.673  0.00  0.00     0.215 C 
ENDROOT
BRANCH   1   2
HETATM    2  O   UNK N   1      34.167  17.162   9.991  0.00  0.00    -0.385 OA
HETATM    3  H   UNK N   1      34.953  16.898  10.493  0.00  0.00     0.210 HD
ENDBRANCH   1   2
BRANCH   1   4
HETATM    4  C   UNK N   1      34.500  18.134   7.854  0.00  0.00     0.169 C 
HETATM    5  O   UNK N   1      34.512  18.074   6.634  0.00  0.00    -0.648 OA
BRANCH   4   6
HETATM    6  O   UNK N   1      35.224  19.084   8.476  0.00  0.00    -0.774 OA
HETATM    7  H   UNK N   1      34.996  19.991   8.419  0.00  0.00     0.167 HD
ENDBRANCH   4   6
ENDBRANCH   1   4
BRANCH   1   8
HETATM    8  C   UNK N   1      32.220  17.501   8.641  0.00  0.00     0.043 C 
BRANCH   8   9
HETATM    9  C   UNK N   1      31.420  16.630   7.694  0.00  0.00     0.003 C 
BRANCH   9  10
HETATM   10  C   UNK N   1      29.993  17.133   7.728  0.00  0.00     0.000 C 
BRANCH  10  11
HETATM   11  C   UNK N   1      29.551  17.422   9.144  0.00  0.00    -0.000 C 
BRANCH  11  12
HETATM   12  C   UNK N   1      28.252  18.199   9.090  0.00  0.00    -0.005 C 
HETATM   13  C   UNK N   1      28.180  18.987   7.801  0.00  0.00     0.005 C 
ENDBRANCH  11  12
ENDBRANCH  10  11
ENDBRANCH   9  10
ENDBRANCH   8   9
ENDBRANCH   1   8
TORSDOF 8
ENDMDL
MODEL 4
REMARK VINA RESULT:      -4.4     11.326     12.362
REMARK  8 active torsions:
REMARK  status: ('A' for Active; 'I' for Inactive)
REMARK    1  A    between atoms: C_2  and  C_9 
REMARK    2  A    between atoms: C_5  and  O_3 
REMARK    3  A    between atoms: C_4  and  C_5 
REMARK    4  A    between atoms: C_4  and  O_10 
REMARK    5  A    between atoms: C_5  and  C_6 
REMARK    6  A    between atoms: C_6  and  C_7 
REMARK    7  A    between atoms: C_7  and  C_8 
REMARK    8  A    between atoms: C_8  and  C_9 
ROOT
HETATM    1  C   UNK N   1      33.719  17.076   8.634  0.00  0.00     0.215 C 
ENDROOT
BRANCH   1   2
HETATM    2  O   UNK N   1      34.110  17.166   9.972  0.00  0.00    -0.385 OA
HETATM    3  H   UNK N   1      34.416  16.585  10.686  0.00  0.00     0.210 HD
ENDBRANCH   1   2
BRANCH   1   4
HETATM    4  C   UNK N   1      34.461  18.108   7.825  0.00  0.00     0.169 C 
HETATM    5  O   UNK N   1      34.441  18.084   6.604  0.00  0.00    -0.648 OA
BRANCH   4   6
HETATM    6  O   UNK N   1      35.174  19.060   8.455  0.00  0.00    -0.774 OA
HETATM    7  H   UNK N   1      34.814  19.552   9.167  0.00  0.00     0.167 HD
ENDBRANCH   4   6
ENDBRANCH   1   4
BRANCH   1   8
HETATM    8  C   UNK N   1      32.212  17.287   8.520  0.00  0.00     0.043 C 
BRANCH   8   9
HETATM    9  C   UNK N   1      31.542  16.309   7.575  0.00  0.00     0.003 C 
BRANCH   9  10
HETATM   10  C   UNK N   1      30.797  17.130   6.545  0.00  0.00     0.000 C 
BRANCH  10  11
HETATM   11  C   UNK N   1      31.026  16.593   5.150  0.00  0.00    -0.000 C 
BRANCH  11  12
HETATM   12  C   UNK N   1      31.793  17.631   4.358  0.00  0.00    -0.005 C 
HETATM   13  C   UNK N   1      32.810  16.951   3.470  0.00  0.00     0.005 C 
ENDBRANCH  11  12
ENDBRANCH  10  11
ENDBRANCH   9  10
ENDBRANCH   8   9
ENDBRANCH   1   8
TORSDOF 8
ENDMDL
MODEL 5
REMARK VINA RESULT:      -4.4     12.813     14.458
REMARK  8 active torsions:
REMARK  status: ('A' for Active; 'I' for Inactive)
REMARK    1  A    between atoms: C_2  and  C_9 
REMARK    2  A    between atoms: C_5  and  O_3 
REMARK    3  A    between atoms: C_4  and  C_5 
REMARK    4  A    between atoms: C_4  and  O_10 
REMARK    5  A    between atoms: C_5  and  C_6 
REMARK    6  A    between atoms: C_6  and  C_7 
REMARK    7  A    between atoms: C_7  and  C_8 
REMARK    8  A    between atoms: C_8  and  C_9 
ROOT
HETATM    1  C   UNK N   1      35.061  15.018  11.805  0.00  0.00     0.215 C 
ENDROOT
BRANCH   1   2
HETATM    2  O   UNK N   1      33.739  14.893  11.374  0.00  0.00    -0.385 OA
HETATM    3  H   UNK N   1      33.250  14.623  10.581  0.00  0.00     0.210 HD
ENDBRANCH   1   2
BRANCH   1   4
HETATM    4  C   UNK N   1      35.733  16.132  11.046  0.00  0.00     0.169 C 
HETATM    5  O   UNK N   1      35.093  17.081  10.621  0.00  0.00    -0.648 OA
BRANCH   4   6
HETATM    6  O   UNK N   1      37.059  16.073  10.813  0.00  0.00    -0.774 OA
HETATM    7  H   UNK N   1      37.412  16.192   9.954  0.00  0.00     0.167 HD
ENDBRANCH   4   6
ENDBRANCH   1   4
BRANCH   1   8
HETATM    8  C   UNK N   1      35.801  13.701  11.593  0.00  0.00     0.043 C 
BRANCH   8   9
HETATM    9  C   UNK N   1      36.498  13.198  12.843  0.00  0.00     0.003 C 
BRANCH   9  10
HETATM   10  C   UNK N   1      36.122  14.140  13.967  0.00  0.00     0.000 C 
BRANCH  10  11
HETATM   11  C   UNK N   1      36.771  13.722  15.268  0.00  0.00    -0.000 C 
BRANCH  11  12
HETATM   12  C   UNK N   1      35.870  12.714  15.949  0.00  0.00    -0.005 C 
HETATM   13  C   UNK N   1      35.224  13.342  17.163  0.00  0.00     0.005 C 
ENDBRANCH  11  12
ENDBRANCH  10  11
ENDBRANCH   9  10
ENDBRANCH   8   9
ENDBRANCH   1   8
TORSDOF 8
ENDMDL
MODEL 6
REMARK VINA RESULT:      -4.4      1.041      2.116
REMARK  8 active torsions:
REMARK  status: ('A' for Active; 'I' for Inactive)
REMARK    1  A    between atoms: C_2  and  C_9 
REMARK    2  A    between atoms: C_5  and  O_3 
REMARK    3  A    between atoms: C_4  and  C_5 
REMARK    4  A    between atoms: C_4  and  O_10 
REMARK    5  A    between atoms: C_5  and  C_6 
REMARK    6  A    between atoms: C_6  and  C_7 
REMARK    7  A    between atoms: C_7  and  C_8 
REMARK    8  A    between atoms: C_8  and  C_9 
ROOT
HETATM    1  C   UNK N   1      22.679  11.827  11.232  0.00  0.00     0.215 C 
ENDROOT
BRANCH   1   2
HETATM    2  O   UNK N   1      21.483  11.717  11.945  0.00  0.00    -0.385 OA
HETATM    3  H   UNK N   1      21.154  11.849  12.847  0.00  0.00     0.210 HD
ENDBRANCH   1   2
BRANCH   1   4
HETATM    4  C   UNK N   1      23.817  12.050  12.194  0.00  0.00     0.169 C 
HETATM    5  O   UNK N   1      23.634  12.032  13.401  0.00  0.00    -0.648 OA
BRANCH   4   6
HETATM    6  O   UNK N   1      25.053  12.293  11.717  0.00  0.00    -0.774 OA
HETATM    7  H   UNK N   1      25.208  12.426  10.802  0.00  0.00     0.167 HD
ENDBRANCH   4   6
ENDBRANCH   1   4
BRANCH   1   8
HETATM    8  C   UNK N   1      22.584  12.980  10.237  0.00  0.00     0.043 C 
BRANCH   8   9
HETATM    9  C   UNK N   1      21.245  13.049   9.528  0.00  0.00     0.003 C 
BRANCH   9  10
HETATM   10  C   UNK N   1      20.831  14.504   9.506  0.00  0.00     0.000 C 
BRANCH  10  11
HETATM   11  C   UNK N   1      21.252  15.172   8.216  0.00  0.00    -0.000 C 
BRANCH  11  12
HETATM   12  C   UNK N   1      20.505  16.482   8.090  0.00  0.00    -0.005 C 
HETATM   13  C   UNK N   1      19.215  16.415   8.877  0.00  0.00     0.005 C 
ENDBRANCH  11  12
ENDBRANCH  10  11
ENDBRANCH   9  10
ENDBRANCH   8   9
ENDBRANCH   1   8
TORSDOF 8
ENDMDL
MODEL 7
REMARK VINA RESULT:      -4.3     11.144     12.377
REMARK  8 active torsions:
REMARK  status: ('A' for Active; 'I' for Inactive)
REMARK    1  A    between atoms: C_2  and  C_9 
REMARK    2  A    between atoms: C_5  and  O_3 
REMARK    3  A    between atoms: C_4  and  C_5 
REMARK    4  A    between atoms: C_4  and  O_10 
REMARK    5  A    between atoms: C_5  and  C_6 
REMARK    6  A    between atoms: C_6  and  C_7 
REMARK    7  A    between atoms: C_7  and  C_8 
REMARK    8  A    between atoms: C_8  and  C_9 
ROOT
HETATM    1  C   UNK N   1      34.833  14.861  10.618  0.00  0.00     0.215 C 
ENDROOT
BRANCH   1   2
HETATM    2  O   UNK N   1      33.629  15.010  11.311  0.00  0.00    -0.385 OA
HETATM    3  H   UNK N   1      32.886  14.465  11.613  0.00  0.00     0.210 HD
ENDBRANCH   1   2
BRANCH   1   4
HETATM    4  C   UNK N   1      35.634  16.132  10.726  0.00  0.00     0.169 C 
HETATM    5  O   UNK N   1      35.093  17.226  10.658  0.00  0.00    -0.648 OA
BRANCH   4   6
HETATM    6  O   UNK N   1      36.970  16.065  10.880  0.00  0.00    -0.774 OA
HETATM    7  H   UNK N   1      37.385  15.303  11.235  0.00  0.00     0.167 HD
ENDBRANCH   4   6
ENDBRANCH   1   4
BRANCH   1   8
HETATM    8  C   UNK N   1      34.550  14.527   9.156  0.00  0.00     0.043 C 
BRANCH   8   9
HETATM    9  C   UNK N   1      33.070  14.463   8.833  0.00  0.00     0.003 C 
BRANCH   9  10
HETATM   10  C   UNK N   1      32.779  15.594   7.870  0.00  0.00     0.000 C 
BRANCH  10  11
HETATM   11  C   UNK N   1      32.175  16.779   8.588  0.00  0.00    -0.000 C 
BRANCH  11  12
HETATM   12  C   UNK N   1      32.829  18.040   8.064  0.00  0.00    -0.005 C 
HETATM   13  C   UNK N   1      34.068  17.683   7.273  0.00  0.00     0.005 C 
ENDBRANCH  11  12
ENDBRANCH  10  11
ENDBRANCH   9  10
ENDBRANCH   8   9
ENDBRANCH   1   8
TORSDOF 8
ENDMDL
MODEL 8
REMARK VINA RESULT:      -4.2     12.312     13.855
REMARK  8 active torsions:
REMARK  status: ('A' for Active; 'I' for Inactive)
REMARK    1  A    between atoms: C_2  and  C_9 
REMARK    2  A    between atoms: C_5  and  O_3 
REMARK    3  A    between atoms: C_4  and  C_5 
REMARK    4  A    between atoms: C_4  and  O_10 
REMARK    5  A    between atoms: C_5  and  C_6 
REMARK    6  A    between atoms: C_6  and  C_7 
REMARK    7  A    between atoms: C_7  and  C_8 
REMARK    8  A    between atoms: C_8  and  C_9 
ROOT
HETATM    1  C   UNK N   1      35.036  15.279  11.916  0.00  0.00     0.215 C 
ENDROOT
BRANCH   1   2
HETATM    2  O   UNK N   1      33.828  14.997  11.275  0.00  0.00    -0.385 OA
HETATM    3  H   UNK N   1      32.876  15.023  11.461  0.00  0.00     0.210 HD
ENDBRANCH   1   2
BRANCH   1   4
HETATM    4  C   UNK N   1      35.882  16.154  11.029  0.00  0.00     0.169 C 
HETATM    5  O   UNK N   1      35.432  17.178  10.540  0.00  0.00    -0.648 OA
BRANCH   4   6
HETATM    6  O   UNK N   1      37.151  15.793  10.755  0.00  0.00    -0.774 OA
HETATM    7  H   UNK N   1      37.351  14.966  10.364  0.00  0.00     0.167 HD
ENDBRANCH   4   6
ENDBRANCH   1   4
BRANCH   1   8
HETATM    8  C   UNK N   1      35.765  13.978  12.241  0.00  0.00     0.043 C 
BRANCH   8   9
HETATM    9  C   UNK N   1      36.140  13.853  13.705  0.00  0.00     0.003 C 
BRANCH   9  10
HETATM   10  C   UNK N   1      35.121  12.937  14.346  0.00  0.00     0.000 C 
BRANCH  10  11
HETATM   11  C   UNK N   1      34.702  11.837  13.397  0.00  0.00    -0.000 C 
BRANCH  11  12
HETATM   12  C   UNK N   1      33.795  10.882  14.143  0.00  0.00    -0.005 C 
HETATM   13  C   UNK N   1      34.428  10.499  15.462  0.00  0.00     0.005 C 
ENDBRANCH  11  12
ENDBRANCH  10  11
ENDBRANCH   9  10
ENDBRANCH   8   9
ENDBRANCH   1   8
TORSDOF 8
ENDMDL
MODEL 9
REMARK VINA RESULT:      -4.2     13.890     15.288
REMARK  8 active torsions:
REMARK  status: ('A' for Active; 'I' for Inactive)
REMARK    1  A    between atoms: C_2  and  C_9 
REMARK    2  A    between atoms: C_5  and  O_3 
REMARK    3  A    between atoms: C_4  and  C_5 
REMARK    4  A    between atoms: C_4  and  O_10 
REMARK    5  A    between atoms: C_5  and  C_6 
REMARK    6  A    between atoms: C_6  and  C_7 
REMARK    7  A    between atoms: C_7  and  C_8 
REMARK    8  A    between atoms: C_8  and  C_9 
ROOT
HETATM    1  C   UNK N   1      36.559  13.458  15.211  0.00  0.00     0.215 C 
ENDROOT
BRANCH   1   2
HETATM    2  O   UNK N   1      37.581  14.373  15.473  0.00  0.00    -0.385 OA
HETATM    3  H   UNK N   1      37.691  15.257  15.854  0.00  0.00     0.210 HD
ENDBRANCH   1   2
BRANCH   1   4
HETATM    4  C   UNK N   1      36.064  13.650  13.801  0.00  0.00     0.169 C 
HETATM    5  O   UNK N   1      34.887  13.485  13.518  0.00  0.00    -0.648 OA
BRANCH   4   6
HETATM    6  O   UNK N   1      36.934  13.990  12.831  0.00  0.00    -0.774 OA
HETATM    7  H   UNK N   1      36.690  13.979  11.927  0.00  0.00     0.167 HD
ENDBRANCH   4   6
ENDBRANCH   1   4
BRANCH   1   8
HETATM    8  C   UNK N   1      35.422  13.651  16.210  0.00  0.00     0.043 C 
BRANCH   8   9
HETATM    9  C   UNK N   1      35.316  12.526  17.221  0.00  0.00     0.003 C 
BRANCH   9  10
HETATM   10  C   UNK N   1      35.189  13.168  18.585  0.00  0.00     0.000 C 
BRANCH  10  11
HETATM   11  C   UNK N   1      35.317  12.139  19.686  0.00  0.00    -0.000 C 
BRANCH  11  12
HETATM   12  C   UNK N   1      35.561  10.787  19.051  0.00  0.00    -0.005 C 
HETATM   13  C   UNK N   1      34.570   9.781  19.592  0.00  0.00     0.005 C 
ENDBRANCH  11  12
ENDBRANCH  10  11
ENDBRANCH   9  10
ENDBRANCH   8   9
ENDBRANCH   1   8
TORSDOF 8
ENDMDL
