REMARK  4 active torsions:
REMARK  status: ('A' for Active; 'I' for Inactive)
REMARK    1  A    between atoms: C_1  and  C_10 
REMARK    2  A    between atoms: C_5  and  O_15 
REMARK    3  A    between atoms: C_10  and  C_11 
REMARK    4  A    between atoms: C_11  and  O_16 
ROOT
HETATM    1  C   UNK N   1      -1.254  -0.290   0.013  0.00  0.00     0.026 A 
HETATM    2  C   UNK N   1      -1.200   1.129   0.016  0.00  0.00     0.295 A 
HETATM    3  C   UNK N   1       1.136   1.116   0.013  0.00  0.00     0.092 A 
HETATM    4  C   UNK N   1       2.334   1.841   0.011  0.00  0.00     0.074 A 
HETATM    5  C   UNK N   1       3.562   1.169   0.006  0.00  0.00     0.068 A 
HETATM    6  C   UNK N   1       3.597  -0.227   0.005  0.00  0.00     0.037 A 
HETATM    7  C   UNK N   1       2.407  -0.956   0.007  0.00  0.00     0.017 A 
HETATM    8  C   UNK N   1       1.170  -0.292   0.011  0.00  0.00     0.005 A 
HETATM    9  C   UNK N   1      -0.038  -0.998   0.011  0.00  0.00    -0.037 A 
HETATM   10  C   UNK N   1      -0.035  -2.499   0.007  0.00  0.00     0.050 C 
HETATM   11  O   UNK N   1      -2.221   1.794   0.019  0.00  0.00    -0.259 OA
HETATM   12  O   UNK N   1      -0.026   1.760   0.016  0.00  0.00    -0.274 OA
ENDROOT
BRANCH   1  13
HETATM   13  C   UNK N   1      -2.541  -1.098   0.011  0.00  0.00     0.071 C 
BRANCH  13  14
HETATM   14  C   UNK N   1      -3.863  -0.353   0.001  0.00  0.00     0.169 C 
BRANCH  14  15
HETATM   15  O   UNK N   1      -4.903  -1.283  -0.003  0.00  0.00    -0.401 OA
HETATM   16  H   UNK N   1      -5.825  -0.980  -0.006  0.00  0.00     0.209 HD
ENDBRANCH  14  15
ENDBRANCH  13  14
ENDBRANCH   1  13
BRANCH   5  17
HETATM   17  O   UNK N   1       4.709   1.866   0.003  0.00  0.00    -0.361 OA
HETATM   18  H   UNK N   1       5.531   1.416   0.001  0.00  0.00     0.217 HD
ENDBRANCH   5  17
TORSDOF 4
