MODEL 1
REMARK VINA RESULT:      -6.1      0.000      0.000
REMARK  4 active torsions:
REMARK  status: ('A' for Active; 'I' for Inactive)
REMARK    1  A    between atoms: C_1  and  C_10 
REMARK    2  A    between atoms: C_5  and  O_15 
REMARK    3  A    between atoms: C_10  and  C_11 
REMARK    4  A    between atoms: C_11  and  O_16 
ROOT
HETATM    1  C   UNK N   1      21.864  19.441   3.425  0.00  0.00     0.026 A 
HETATM    2  C   UNK N   1      22.354  20.530   2.656  0.00  0.00     0.295 A 
HETATM    3  C   UNK N   1      24.563  20.053   3.249  0.00  0.00     0.092 A 
HETATM    4  C   UNK N   1      25.922  20.374   3.148  0.00  0.00     0.074 A 
HETATM    5  C   UNK N   1      26.877  19.607   3.825  0.00  0.00     0.068 A 
HETATM    6  C   UNK N   1      26.478  18.519   4.605  0.00  0.00     0.037 A 
HETATM    7  C   UNK N   1      25.125  18.193   4.710  0.00  0.00     0.017 A 
HETATM    8  C   UNK N   1      24.159  18.956   4.034  0.00  0.00     0.005 A 
HETATM    9  C   UNK N   1      22.796  18.650   4.121  0.00  0.00    -0.037 A 
HETATM   10  C   UNK N   1      22.335  17.486   4.948  0.00  0.00     0.050 C 
HETATM   11  O   UNK N   1      21.593  21.250   2.034  0.00  0.00    -0.259 OA
HETATM   12  O   UNK N   1      23.661  20.784   2.603  0.00  0.00    -0.274 OA
ENDROOT
BRANCH   1  13
HETATM   13  C   UNK N   1      20.395  19.071   3.546  0.00  0.00     0.071 C 
BRANCH  13  14
HETATM   14  C   UNK N   1      19.737  18.335   2.393  0.00  0.00     0.169 C 
BRANCH  14  15
HETATM   15  O   UNK N   1      18.372  18.624   2.397  0.00  0.00    -0.401 OA
HETATM   16  H   UNK N   1      18.010  19.253   3.041  0.00  0.00     0.209 HD
ENDBRANCH  14  15
ENDBRANCH  13  14
ENDBRANCH   1  13
BRANCH   5  17
HETATM   17  O   UNK N   1      28.180  19.916   3.726  0.00  0.00    -0.361 OA
HETATM   18  H   UNK N   1      28.744  19.400   3.184  0.00  0.00     0.217 HD
ENDBRANCH   5  17
TORSDOF 4
ENDMDL
MODEL 2
REMARK VINA RESULT:      -6.1     10.669     13.254
REMARK  4 active torsions:
REMARK  status: ('A' for Active; 'I' for Inactive)
REMARK    1  A    between atoms: C_1  and  C_10 
REMARK    2  A    between atoms: C_5  and  O_15 
REMARK    3  A    between atoms: C_10  and  C_11 
REMARK    4  A    between atoms: C_11  and  O_16 
ROOT
HETATM    1  C   UNK N   1      33.521  17.186   8.419  0.00  0.00     0.026 A 
HETATM    2  C   UNK N   1      34.633  17.968   8.830  0.00  0.00     0.295 A 
HETATM    3  C   UNK N   1      35.274  16.368  10.406  0.00  0.00     0.092 A 
HETATM    4  C   UNK N   1      36.169  15.968  11.406  0.00  0.00     0.074 A 
HETATM    5  C   UNK N   1      35.993  14.742  12.058  0.00  0.00     0.068 A 
HETATM    6  C   UNK N   1      34.922  13.914  11.715  0.00  0.00     0.037 A 
HETATM    7  C   UNK N   1      34.026  14.306  10.720  0.00  0.00     0.017 A 
HETATM    8  C   UNK N   1      34.194  15.533  10.059  0.00  0.00     0.005 A 
HETATM    9  C   UNK N   1      33.312  15.949   9.056  0.00  0.00    -0.037 A 
HETATM   10  C   UNK N   1      32.153  15.081   8.662  0.00  0.00     0.050 C 
HETATM   11  O   UNK N   1      34.863  19.048   8.314  0.00  0.00    -0.259 OA
HETATM   12  O   UNK N   1      35.448  17.532   9.790  0.00  0.00    -0.274 OA
ENDROOT
BRANCH   1  13
HETATM   13  C   UNK N   1      32.539  17.597   7.335  0.00  0.00     0.071 C 
BRANCH  13  14
HETATM   14  C   UNK N   1      32.880  17.277   5.891  0.00  0.00     0.169 C 
BRANCH  14  15
HETATM   15  O   UNK N   1      34.099  17.877   5.574  0.00  0.00    -0.401 OA
HETATM   16  H   UNK N   1      34.676  18.208   6.281  0.00  0.00     0.209 HD
ENDBRANCH  14  15
ENDBRANCH  13  14
ENDBRANCH   1  13
BRANCH   5  17
HETATM   17  O   UNK N   1      36.853  14.361  13.015  0.00  0.00    -0.361 OA
HETATM   18  H   UNK N   1      36.649  14.514  13.917  0.00  0.00     0.217 HD
ENDBRANCH   5  17
TORSDOF 4
ENDMDL
MODEL 3
REMARK VINA RESULT:      -6.0      9.498     12.276
REMARK  4 active torsions:
REMARK  status: ('A' for Active; 'I' for Inactive)
REMARK    1  A    between atoms: C_1  and  C_10 
REMARK    2  A    between atoms: C_5  and  O_15 
REMARK    3  A    between atoms: C_10  and  C_11 
REMARK    4  A    between atoms: C_11  and  O_16 
ROOT
HETATM    1  C   UNK N   1      34.201  16.795   8.666  0.00  0.00     0.026 A 
HETATM    2  C   UNK N   1      34.594  18.005   8.036  0.00  0.00     0.295 A 
HETATM    3  C   UNK N   1      33.450  17.446   6.078  0.00  0.00     0.092 A 
HETATM    4  C   UNK N   1      33.077  17.790   4.773  0.00  0.00     0.074 A 
HETATM    5  C   UNK N   1      32.278  16.923   4.018  0.00  0.00     0.068 A 
HETATM    6  C   UNK N   1      31.850  15.711   4.564  0.00  0.00     0.037 A 
HETATM    7  C   UNK N   1      32.217  15.361   5.864  0.00  0.00     0.017 A 
HETATM    8  C   UNK N   1      33.018  16.224   6.629  0.00  0.00     0.005 A 
HETATM    9  C   UNK N   1      33.399  15.899   7.936  0.00  0.00    -0.037 A 
HETATM   10  C   UNK N   1      32.954  14.605   8.552  0.00  0.00     0.050 C 
HETATM   11  O   UNK N   1      35.289  18.818   8.620  0.00  0.00    -0.259 OA
HETATM   12  O   UNK N   1      34.207  18.274   6.789  0.00  0.00    -0.274 OA
ENDROOT
BRANCH   1  13
HETATM   13  C   UNK N   1      34.589  16.402  10.082  0.00  0.00     0.071 C 
BRANCH  13  14
HETATM   14  C   UNK N   1      35.803  15.512  10.279  0.00  0.00     0.169 C 
BRANCH  14  15
HETATM   15  O   UNK N   1      36.829  16.270  10.845  0.00  0.00    -0.401 OA
HETATM   16  H   UNK N   1      36.962  16.265  11.806  0.00  0.00     0.209 HD
ENDBRANCH  14  15
ENDBRANCH  13  14
ENDBRANCH   1  13
BRANCH   5  17
HETATM   17  O   UNK N   1      31.921  17.256   2.768  0.00  0.00    -0.361 OA
HETATM   18  H   UNK N   1      32.570  17.542   2.155  0.00  0.00     0.217 HD
ENDBRANCH   5  17
TORSDOF 4
ENDMDL
MODEL 4
REMARK VINA RESULT:      -5.9      9.909     11.605
REMARK  4 active torsions:
REMARK  status: ('A' for Active; 'I' for Inactive)
REMARK    1  A    between atoms: C_1  and  C_10 
REMARK    2  A    between atoms: C_5  and  O_15 
REMARK    3  A    between atoms: C_10  and  C_11 
REMARK    4  A    between atoms: C_11  and  O_16 
ROOT
HETATM    1  C   UNK N   1      30.167  22.165  -3.658  0.00  0.00     0.026 A 
HETATM    2  C   UNK N   1      29.856  23.033  -2.578  0.00  0.00     0.295 A 
HETATM    3  C   UNK N   1      28.292  24.196  -3.866  0.00  0.00     0.092 A 
HETATM    4  C   UNK N   1      27.347  25.226  -3.954  0.00  0.00     0.074 A 
HETATM    5  C   UNK N   1      26.652  25.441  -5.150  0.00  0.00     0.068 A 
HETATM    6  C   UNK N   1      26.900  24.632  -6.260  0.00  0.00     0.037 A 
HETATM    7  C   UNK N   1      27.841  23.604  -6.180  0.00  0.00     0.017 A 
HETATM    8  C   UNK N   1      28.543  23.379  -4.985  0.00  0.00     0.005 A 
HETATM    9  C   UNK N   1      29.490  22.354  -4.876  0.00  0.00    -0.037 A 
HETATM   10  C   UNK N   1      29.778  21.465  -6.050  0.00  0.00     0.050 C 
HETATM   11  O   UNK N   1      30.412  22.917  -1.501  0.00  0.00    -0.259 OA
HETATM   12  O   UNK N   1      28.947  23.996  -2.727  0.00  0.00    -0.274 OA
ENDROOT
BRANCH   1  13
HETATM   13  C   UNK N   1      31.186  21.039  -3.585  0.00  0.00     0.071 C 
BRANCH  13  14
HETATM   14  C   UNK N   1      32.633  21.391  -3.296  0.00  0.00     0.169 C 
BRANCH  14  15
HETATM   15  O   UNK N   1      32.890  21.164  -1.943  0.00  0.00    -0.401 OA
HETATM   16  H   UNK N   1      33.429  20.404  -1.672  0.00  0.00     0.209 HD
ENDBRANCH  14  15
ENDBRANCH  13  14
ENDBRANCH   1  13
BRANCH   5  17
HETATM   17  O   UNK N   1      25.745  26.427  -5.232  0.00  0.00    -0.361 OA
HETATM   18  H   UNK N   1      26.017  27.321  -5.161  0.00  0.00     0.217 HD
ENDBRANCH   5  17
TORSDOF 4
ENDMDL
MODEL 5
REMARK VINA RESULT:      -5.9      7.581     10.347
REMARK  4 active torsions:
REMARK  status: ('A' for Active; 'I' for Inactive)
REMARK    1  A    between atoms: C_1  and  C_10 
REMARK    2  A    between atoms: C_5  and  O_15 
REMARK    3  A    between atoms: C_10  and  C_11 
REMARK    4  A    between atoms: C_11  and  O_16 
ROOT
HETATM    1  C   UNK N   1      32.413  16.856   5.937  0.00  0.00     0.026 A 
HETATM    2  C   UNK N   1      31.216  16.404   5.322  0.00  0.00     0.295 A 
HETATM    3  C   UNK N   1      29.915  17.215   7.085  0.00  0.00     0.092 A 
HETATM    4  C   UNK N   1      28.646  17.390   7.650  0.00  0.00     0.074 A 
HETATM    5  C   UNK N   1      28.510  18.039   8.884  0.00  0.00     0.068 A 
HETATM    6  C   UNK N   1      29.639  18.511   9.556  0.00  0.00     0.037 A 
HETATM    7  C   UNK N   1      30.907  18.340   8.998  0.00  0.00     0.017 A 
HETATM    8  C   UNK N   1      31.055  17.692   7.761  0.00  0.00     0.005 A 
HETATM    9  C   UNK N   1      32.314  17.509   7.179  0.00  0.00    -0.037 A 
HETATM   10  C   UNK N   1      33.547  18.008   7.874  0.00  0.00     0.050 C 
HETATM   11  O   UNK N   1      31.241  15.831   4.247  0.00  0.00    -0.259 OA
HETATM   12  O   UNK N   1      30.038  16.601   5.914  0.00  0.00    -0.274 OA
ENDROOT
BRANCH   1  13
HETATM   13  C   UNK N   1      33.800  16.681   5.341  0.00  0.00     0.071 C 
BRANCH  13  14
HETATM   14  C   UNK N   1      34.477  15.328   5.467  0.00  0.00     0.169 C 
BRANCH  14  15
HETATM   15  O   UNK N   1      35.780  15.518   5.928  0.00  0.00    -0.401 OA
HETATM   16  H   UNK N   1      36.395  14.769   5.965  0.00  0.00     0.209 HD
ENDBRANCH  14  15
ENDBRANCH  13  14
ENDBRANCH   1  13
BRANCH   5  17
HETATM   17  O   UNK N   1      27.292  18.206   9.423  0.00  0.00    -0.361 OA
HETATM   18  H   UNK N   1      26.951  17.567  10.018  0.00  0.00     0.217 HD
ENDBRANCH   5  17
TORSDOF 4
ENDMDL
MODEL 6
REMARK VINA RESULT:      -5.8     17.634     19.608
REMARK  4 active torsions:
REMARK  status: ('A' for Active; 'I' for Inactive)
REMARK    1  A    between atoms: C_1  and  C_10 
REMARK    2  A    between atoms: C_5  and  O_15 
REMARK    3  A    between atoms: C_10  and  C_11 
REMARK    4  A    between atoms: C_11  and  O_16 
ROOT
HETATM    1  C   UNK N   1      35.871  11.716  14.599  0.00  0.00     0.026 A 
HETATM    2  C   UNK N   1      35.422  13.056  14.729  0.00  0.00     0.295 A 
HETATM    3  C   UNK N   1      35.290  12.867  17.054  0.00  0.00     0.092 A 
HETATM    4  C   UNK N   1      34.995  13.465  18.285  0.00  0.00     0.074 A 
HETATM    5  C   UNK N   1      35.137  12.735  19.472  0.00  0.00     0.068 A 
HETATM    6  C   UNK N   1      35.572  11.409  19.431  0.00  0.00     0.037 A 
HETATM    7  C   UNK N   1      35.868  10.807  18.207  0.00  0.00     0.017 A 
HETATM    8  C   UNK N   1      35.730  11.530  17.012  0.00  0.00     0.005 A 
HETATM    9  C   UNK N   1      36.022  10.952  15.771  0.00  0.00    -0.037 A 
HETATM   10  C   UNK N   1      36.494   9.530  15.694  0.00  0.00     0.050 C 
HETATM   11  O   UNK N   1      35.271  13.764  13.748  0.00  0.00    -0.259 OA
HETATM   12  O   UNK N   1      35.155  13.566  15.931  0.00  0.00    -0.274 OA
ENDROOT
BRANCH   1  13
HETATM   13  C   UNK N   1      36.201  11.048  13.275  0.00  0.00     0.071 C 
BRANCH  13  14
HETATM   14  C   UNK N   1      37.584  11.255  12.684  0.00  0.00     0.169 C 
BRANCH  14  15
HETATM   15  O   UNK N   1      37.722  12.597  12.326  0.00  0.00    -0.401 OA
HETATM   16  H   UNK N   1      37.051  13.022  11.769  0.00  0.00     0.209 HD
ENDBRANCH  14  15
ENDBRANCH  13  14
ENDBRANCH   1  13
BRANCH   5  17
HETATM   17  O   UNK N   1      34.854  13.310  20.651  0.00  0.00    -0.361 OA
HETATM   18  H   UNK N   1      35.379  14.021  20.964  0.00  0.00     0.217 HD
ENDBRANCH   5  17
TORSDOF 4
ENDMDL
MODEL 7
REMARK VINA RESULT:      -5.8     17.333     20.229
REMARK  4 active torsions:
REMARK  status: ('A' for Active; 'I' for Inactive)
REMARK    1  A    between atoms: C_1  and  C_10 
REMARK    2  A    between atoms: C_5  and  O_15 
REMARK    3  A    between atoms: C_10  and  C_11 
REMARK    4  A    between atoms: C_11  and  O_16 
ROOT
HETATM    1  C   UNK N   1      35.226  10.963  19.027  0.00  0.00     0.026 A 
HETATM    2  C   UNK N   1      35.283  12.374  18.878  0.00  0.00     0.295 A 
HETATM    3  C   UNK N   1      34.948  12.221  16.572  0.00  0.00     0.092 A 
HETATM    4  C   UNK N   1      34.807  12.872  15.340  0.00  0.00     0.074 A 
HETATM    5  C   UNK N   1      34.599  12.128  14.172  0.00  0.00     0.068 A 
HETATM    6  C   UNK N   1      34.532  10.735  14.231  0.00  0.00     0.037 A 
HETATM    7  C   UNK N   1      34.671  10.079  15.456  0.00  0.00     0.017 A 
HETATM    8  C   UNK N   1      34.880  10.815  16.633  0.00  0.00     0.005 A 
HETATM    9  C   UNK N   1      35.020  10.184  17.874  0.00  0.00    -0.037 A 
HETATM   10  C   UNK N   1      34.950   8.688  17.972  0.00  0.00     0.050 C 
HETATM   11  O   UNK N   1      35.461  13.098  19.842  0.00  0.00    -0.259 OA
HETATM   12  O   UNK N   1      35.144  12.933  17.676  0.00  0.00    -0.274 OA
ENDROOT
BRANCH   1  13
HETATM   13  C   UNK N   1      35.372  10.235  20.353  0.00  0.00     0.071 C 
BRANCH  13  14
HETATM   14  C   UNK N   1      34.138  10.053  21.218  0.00  0.00     0.169 C 
BRANCH  14  15
HETATM   15  O   UNK N   1      33.804  11.282  21.789  0.00  0.00    -0.401 OA
HETATM   16  H   UNK N   1      33.685  12.062  21.225  0.00  0.00     0.209 HD
ENDBRANCH  14  15
ENDBRANCH  13  14
ENDBRANCH   1  13
BRANCH   5  17
HETATM   17  O   UNK N   1      34.463  12.754  12.993  0.00  0.00    -0.361 OA
HETATM   18  H   UNK N   1      34.185  12.275  12.237  0.00  0.00     0.217 HD
ENDBRANCH   5  17
TORSDOF 4
ENDMDL
MODEL 8
REMARK VINA RESULT:      -5.8      7.376     10.693
REMARK  4 active torsions:
REMARK  status: ('A' for Active; 'I' for Inactive)
REMARK    1  A    between atoms: C_1  and  C_10 
REMARK    2  A    between atoms: C_5  and  O_15 
REMARK    3  A    between atoms: C_10  and  C_11 
REMARK    4  A    between atoms: C_11  and  O_16 
ROOT
HETATM    1  C   UNK N   1      32.971  17.213   6.792  0.00  0.00     0.026 A 
HETATM    2  C   UNK N   1      33.077  17.924   8.016  0.00  0.00     0.295 A 
HETATM    3  C   UNK N   1      30.760  17.917   8.310  0.00  0.00     0.092 A 
HETATM    4  C   UNK N   1      29.654  18.279   9.089  0.00  0.00     0.074 A 
HETATM    5  C   UNK N   1      28.361  17.940   8.673  0.00  0.00     0.068 A 
HETATM    6  C   UNK N   1      28.169  17.242   7.479  0.00  0.00     0.037 A 
HETATM    7  C   UNK N   1      29.266  16.878   6.697  0.00  0.00     0.017 A 
HETATM    8  C   UNK N   1      30.568  17.212   7.105  0.00  0.00     0.005 A 
HETATM    9  C   UNK N   1      31.686  16.859   6.342  0.00  0.00    -0.037 A 
HETATM   10  C   UNK N   1      31.514  16.106   5.055  0.00  0.00     0.050 C 
HETATM   11  O   UNK N   1      34.165  18.258   8.454  0.00  0.00    -0.259 OA
HETATM   12  O   UNK N   1      31.984  18.240   8.711  0.00  0.00    -0.274 OA
ENDROOT
BRANCH   1  13
HETATM   13  C   UNK N   1      34.156  16.807   5.932  0.00  0.00     0.071 C 
BRANCH  13  14
HETATM   14  C   UNK N   1      34.849  15.490   6.230  0.00  0.00     0.169 C 
BRANCH  14  15
HETATM   15  O   UNK N   1      35.120  15.424   7.597  0.00  0.00    -0.401 OA
HETATM   16  H   UNK N   1      35.355  16.229   8.085  0.00  0.00     0.209 HD
ENDBRANCH  14  15
ENDBRANCH  13  14
ENDBRANCH   1  13
BRANCH   5  17
HETATM   17  O   UNK N   1      27.302  18.286   9.422  0.00  0.00    -0.361 OA
HETATM   18  H   UNK N   1      26.629  17.659   9.600  0.00  0.00     0.217 HD
ENDBRANCH   5  17
TORSDOF 4
ENDMDL
MODEL 9
REMARK VINA RESULT:      -5.7     11.684     13.262
REMARK  4 active torsions:
REMARK  status: ('A' for Active; 'I' for Inactive)
REMARK    1  A    between atoms: C_1  and  C_10 
REMARK    2  A    between atoms: C_5  and  O_15 
REMARK    3  A    between atoms: C_10  and  C_11 
REMARK    4  A    between atoms: C_11  and  O_16 
ROOT
HETATM    1  C   UNK N   1      26.407  25.835  -6.960  0.00  0.00     0.026 A 
HETATM    2  C   UNK N   1      25.582  25.642  -5.821  0.00  0.00     0.295 A 
HETATM    3  C   UNK N   1      26.149  27.738  -4.960  0.00  0.00     0.092 A 
HETATM    4  C   UNK N   1      26.007  28.689  -3.942  0.00  0.00     0.074 A 
HETATM    5  C   UNK N   1      26.696  29.906  -4.016  0.00  0.00     0.068 A 
HETATM    6  C   UNK N   1      27.530  30.174  -5.103  0.00  0.00     0.037 A 
HETATM    7  C   UNK N   1      27.677  29.230  -6.121  0.00  0.00     0.017 A 
HETATM    8  C   UNK N   1      26.990  28.008  -6.058  0.00  0.00     0.005 A 
HETATM    9  C   UNK N   1      27.117  27.045  -7.065  0.00  0.00    -0.037 A 
HETATM   10  C   UNK N   1      28.004  27.304  -8.248  0.00  0.00     0.050 C 
HETATM   11  O   UNK N   1      24.945  24.613  -5.677  0.00  0.00    -0.259 OA
HETATM   12  O   UNK N   1      25.491  26.587  -4.885  0.00  0.00    -0.274 OA
ENDROOT
BRANCH   1  13
HETATM   13  C   UNK N   1      26.575  24.820  -8.078  0.00  0.00     0.071 C 
BRANCH  13  14
HETATM   14  C   UNK N   1      25.419  24.602  -9.037  0.00  0.00     0.169 C 
BRANCH  14  15
HETATM   15  O   UNK N   1      24.652  23.530  -8.579  0.00  0.00    -0.401 OA
HETATM   16  H   UNK N   1      25.034  22.638  -8.548  0.00  0.00     0.209 HD
ENDBRANCH  14  15
ENDBRANCH  13  14
ENDBRANCH   1  13
BRANCH   5  17
HETATM   17  O   UNK N   1      26.557  30.816  -3.040  0.00  0.00    -0.361 OA
HETATM   18  H   UNK N   1      26.387  31.712  -3.255  0.00  0.00     0.217 HD
ENDBRANCH   5  17
TORSDOF 4
ENDMDL
