MODEL 1
REMARK VINA RESULT:      -7.3      0.000      0.000
REMARK  9 active torsions:
REMARK  status: ('A' for Active; 'I' for Inactive)
REMARK    1  A    between atoms: C_7  and  C_5 
REMARK    2  A    between atoms: C_9  and  O_19 
REMARK    3  A    between atoms: C_10  and  C_13 
REMARK    4  A    between atoms: C_16  and  C_20 
REMARK       I    between atoms: C_20  and  N_22 
REMARK    5  A    between atoms: N_22  and  C_23 
REMARK    6  A    between atoms: C_23  and  C_24 
REMARK    7  A    between atoms: C_24  and  C_25 
REMARK    8  A    between atoms: C_25  and  C_26 
REMARK    9  A    between atoms: C_26  and  O_28 
ROOT
HETATM    1  C   UNK N   1      36.871  12.175  12.190  0.00  0.00    -0.051 A 
HETATM    2  C   UNK N   1      35.591  11.802  11.764  0.00  0.00     0.009 A 
HETATM    3  C   UNK N   1      35.238  11.853  10.417  0.00  0.00     0.017 A 
HETATM    4  C   UNK N   1      36.142  12.321   9.456  0.00  0.00     0.032 A 
HETATM    5  C   UNK N   1      37.432  12.696   9.876  0.00  0.00     0.017 A 
HETATM    6  C   UNK N   1      37.797  12.616  11.229  0.00  0.00     0.009 A 
ENDROOT
BRANCH   1   7
HETATM    7  C   UNK N   1      37.168  12.223  13.689  0.00  0.00     0.047 C 
HETATM    8  C   UNK N   1      36.529  13.410  14.443  0.00  0.00     0.127 C 
HETATM    9  C   UNK N   1      35.011  13.242  14.584  0.00  0.00     0.042 C 
HETATM   10  C   UNK N   1      34.649  11.951  15.343  0.00  0.00     0.021 C 
HETATM   11  C   UNK N   1      35.306  10.756  14.626  0.00  0.00     0.010 C 
HETATM   12  C   UNK N   1      36.821  10.924  14.444  0.00  0.00     0.012 C 
BRANCH   8  13
HETATM   13  O   UNK N   1      36.816  14.629  13.832  0.00  0.00    -0.395 OA
HETATM   14  H   UNK N   1      36.808  15.448  14.352  0.00  0.00     0.210 HD
ENDBRANCH   8  13
BRANCH  10  15
HETATM   15  C   UNK N   1      34.965  11.993  16.835  0.00  0.00    -0.054 A 
HETATM   16  C   UNK N   1      34.930  13.221  17.516  0.00  0.00     0.007 A 
HETATM   17  C   UNK N   1      35.238  13.286  18.879  0.00  0.00     0.001 A 
HETATM   18  C   UNK N   1      35.592  12.127  19.575  0.00  0.00     0.000 A 
HETATM   19  C   UNK N   1      35.644  10.903  18.908  0.00  0.00     0.001 A 
HETATM   20  C   UNK N   1      35.338  10.837  17.546  0.00  0.00     0.007 A 
ENDBRANCH  10  15
ENDBRANCH   1   7
BRANCH   4  21
HETATM   21  C   UNK N   1      35.676  12.427   8.034  0.00  0.00     0.251 C 
HETATM   22  O   UNK N   1      35.501  11.395   7.405  0.00  0.00    -0.268 OA
HETATM   23  N   UNK N   1      35.392  13.608   7.417  0.00  0.00    -0.357 N 
HETATM   24  H   UNK N   1      35.105  13.569   6.477  0.00  0.00     0.162 HD
BRANCH  23  25
HETATM   25  C   UNK N   1      35.479  14.907   8.032  0.00  0.00     0.123 C 
BRANCH  25  26
HETATM   26  C   UNK N   1      34.229  15.177   8.859  0.00  0.00     0.030 C 
BRANCH  26  27
HETATM   27  C   UNK N   1      34.556  15.410  10.331  0.00  0.00     0.111 C 
BRANCH  27  28
HETATM   28  C   UNK N   1      35.668  16.396  10.538  0.00  0.00     0.139 C 
HETATM   29  O   UNK N   1      35.498  17.563  10.228  0.00  0.00    -0.650 OA
BRANCH  28  30
HETATM   30  O   UNK N   1      36.848  16.013  11.065  0.00  0.00    -0.776 OA
HETATM   31  H   UNK N   1      37.524  15.557  10.605  0.00  0.00     0.167 HD
ENDBRANCH  28  30
ENDBRANCH  27  28
ENDBRANCH  26  27
ENDBRANCH  25  26
ENDBRANCH  23  25
ENDBRANCH   4  21
TORSDOF 9
ENDMDL
MODEL 2
REMARK VINA RESULT:      -7.2      7.377     12.328
REMARK  9 active torsions:
REMARK  status: ('A' for Active; 'I' for Inactive)
REMARK    1  A    between atoms: C_7  and  C_5 
REMARK    2  A    between atoms: C_9  and  O_19 
REMARK    3  A    between atoms: C_10  and  C_13 
REMARK    4  A    between atoms: C_16  and  C_20 
REMARK       I    between atoms: C_20  and  N_22 
REMARK    5  A    between atoms: N_22  and  C_23 
REMARK    6  A    between atoms: C_23  and  C_24 
REMARK    7  A    between atoms: C_24  and  C_25 
REMARK    8  A    between atoms: C_25  and  C_26 
REMARK    9  A    between atoms: C_26  and  O_28 
ROOT
HETATM    1  C   UNK N   1      29.557  17.357   6.551  0.00  0.00    -0.051 A 
HETATM    2  C   UNK N   1      30.347  17.253   5.399  0.00  0.00     0.009 A 
HETATM    3  C   UNK N   1      31.734  17.160   5.483  0.00  0.00     0.017 A 
HETATM    4  C   UNK N   1      32.382  17.213   6.723  0.00  0.00     0.032 A 
HETATM    5  C   UNK N   1      31.597  17.315   7.886  0.00  0.00     0.017 A 
HETATM    6  C   UNK N   1      30.197  17.378   7.803  0.00  0.00     0.009 A 
ENDROOT
BRANCH   1   7
HETATM    7  C   UNK N   1      28.054  17.585   6.402  0.00  0.00     0.047 C 
HETATM    8  C   UNK N   1      27.623  19.066   6.311  0.00  0.00     0.127 C 
HETATM    9  C   UNK N   1      28.016  19.690   4.966  0.00  0.00     0.042 C 
HETATM   10  C   UNK N   1      27.378  18.940   3.782  0.00  0.00     0.021 C 
HETATM   11  C   UNK N   1      27.766  17.452   3.872  0.00  0.00     0.010 C 
HETATM   12  C   UNK N   1      27.413  16.820   5.226  0.00  0.00     0.012 C 
BRANCH   8  13
HETATM   13  O   UNK N   1      28.147  19.824   7.357  0.00  0.00    -0.395 OA
HETATM   14  H   UNK N   1      28.355  19.403   8.206  0.00  0.00     0.210 HD
ENDBRANCH   8  13
BRANCH  10  15
HETATM   15  C   UNK N   1      25.873  19.152   3.645  0.00  0.00    -0.054 A 
HETATM   16  C   UNK N   1      25.389  20.368   3.138  0.00  0.00     0.007 A 
HETATM   17  C   UNK N   1      24.012  20.593   3.025  0.00  0.00     0.001 A 
HETATM   18  C   UNK N   1      23.105  19.608   3.425  0.00  0.00     0.000 A 
HETATM   19  C   UNK N   1      23.573  18.401   3.944  0.00  0.00     0.001 A 
HETATM   20  C   UNK N   1      24.947  18.177   4.059  0.00  0.00     0.007 A 
ENDBRANCH  10  15
ENDBRANCH   1   7
BRANCH   4  21
HETATM   21  C   UNK N   1      33.882  17.187   6.742  0.00  0.00     0.251 C 
HETATM   22  O   UNK N   1      34.477  18.240   6.908  0.00  0.00    -0.268 OA
HETATM   23  N   UNK N   1      34.620  16.047   6.629  0.00  0.00    -0.357 N 
HETATM   24  H   UNK N   1      35.600  16.139   6.642  0.00  0.00     0.162 HD
BRANCH  23  25
HETATM   25  C   UNK N   1      34.081  14.718   6.495  0.00  0.00     0.123 C 
BRANCH  25  26
HETATM   26  C   UNK N   1      34.357  13.913   7.759  0.00  0.00     0.030 C 
BRANCH  26  27
HETATM   27  C   UNK N   1      33.246  14.073   8.793  0.00  0.00     0.111 C 
BRANCH  27  28
HETATM   28  C   UNK N   1      33.631  14.967   9.935  0.00  0.00     0.139 C 
HETATM   29  O   UNK N   1      34.600  15.700   9.823  0.00  0.00    -0.650 OA
BRANCH  28  30
HETATM   30  O   UNK N   1      32.920  14.977  11.080  0.00  0.00    -0.776 OA
HETATM   31  H   UNK N   1      33.049  15.569  11.794  0.00  0.00     0.167 HD
ENDBRANCH  28  30
ENDBRANCH  27  28
ENDBRANCH  26  27
ENDBRANCH  25  26
ENDBRANCH  23  25
ENDBRANCH   4  21
TORSDOF 9
ENDMDL
MODEL 3
REMARK VINA RESULT:      -7.1      6.968     12.064
REMARK  9 active torsions:
REMARK  status: ('A' for Active; 'I' for Inactive)
REMARK    1  A    between atoms: C_7  and  C_5 
REMARK    2  A    between atoms: C_9  and  O_19 
REMARK    3  A    between atoms: C_10  and  C_13 
REMARK    4  A    between atoms: C_16  and  C_20 
REMARK       I    between atoms: C_20  and  N_22 
REMARK    5  A    between atoms: N_22  and  C_23 
REMARK    6  A    between atoms: C_23  and  C_24 
REMARK    7  A    between atoms: C_24  and  C_25 
REMARK    8  A    between atoms: C_25  and  C_26 
REMARK    9  A    between atoms: C_26  and  O_28 
ROOT
HETATM    1  C   UNK N   1      30.295  17.343   6.683  0.00  0.00    -0.051 A 
HETATM    2  C   UNK N   1      31.481  17.227   5.946  0.00  0.00     0.009 A 
HETATM    3  C   UNK N   1      32.724  17.410   6.548  0.00  0.00     0.017 A 
HETATM    4  C   UNK N   1      32.820  17.758   7.900  0.00  0.00     0.032 A 
HETATM    5  C   UNK N   1      31.635  17.874   8.649  0.00  0.00     0.017 A 
HETATM    6  C   UNK N   1      30.384  17.661   8.050  0.00  0.00     0.009 A 
ENDROOT
BRANCH   1   7
HETATM    7  C   UNK N   1      28.957  17.261   5.951  0.00  0.00     0.047 C 
HETATM    8  C   UNK N   1      27.758  17.869   6.712  0.00  0.00     0.127 C 
HETATM    9  C   UNK N   1      27.827  19.401   6.750  0.00  0.00     0.042 C 
HETATM   10  C   UNK N   1      27.842  20.005   5.334  0.00  0.00     0.021 C 
HETATM   11  C   UNK N   1      29.011  19.386   4.544  0.00  0.00     0.010 C 
HETATM   12  C   UNK N   1      28.977  17.851   4.527  0.00  0.00     0.012 C 
BRANCH   8  13
HETATM   13  O   UNK N   1      27.657  17.367   8.009  0.00  0.00    -0.395 OA
HETATM   14  H   UNK N   1      27.016  17.748   8.629  0.00  0.00     0.210 HD
ENDBRANCH   8  13
BRANCH  10  15
HETATM   15  C   UNK N   1      26.511  19.904   4.596  0.00  0.00    -0.054 A 
HETATM   16  C   UNK N   1      25.464  19.155   5.157  0.00  0.00     0.007 A 
HETATM   17  C   UNK N   1      24.242  19.029   4.487  0.00  0.00     0.001 A 
HETATM   18  C   UNK N   1      24.054  19.645   3.246  0.00  0.00     0.000 A 
HETATM   19  C   UNK N   1      25.091  20.380   2.671  0.00  0.00     0.001 A 
HETATM   20  C   UNK N   1      26.312  20.504   3.339  0.00  0.00     0.007 A 
ENDBRANCH  10  15
ENDBRANCH   1   7
BRANCH   4  21
HETATM   21  C   UNK N   1      34.183  18.018   8.471  0.00  0.00     0.251 C 
HETATM   22  O   UNK N   1      34.745  19.061   8.174  0.00  0.00    -0.268 OA
HETATM   23  N   UNK N   1      34.813  17.177   9.339  0.00  0.00    -0.357 N 
HETATM   24  H   UNK N   1      35.712  17.434   9.646  0.00  0.00     0.162 HD
BRANCH  23  25
HETATM   25  C   UNK N   1      34.266  15.944   9.843  0.00  0.00     0.123 C 
BRANCH  25  26
HETATM   26  C   UNK N   1      34.973  14.758   9.199  0.00  0.00     0.030 C 
BRANCH  26  27
HETATM   27  C   UNK N   1      34.248  14.270   7.948  0.00  0.00     0.111 C 
BRANCH  27  28
HETATM   28  C   UNK N   1      32.861  13.770   8.230  0.00  0.00     0.139 C 
HETATM   29  O   UNK N   1      31.929  14.174   7.555  0.00  0.00    -0.650 OA
BRANCH  28  30
HETATM   30  O   UNK N   1      32.631  12.879   9.215  0.00  0.00    -0.776 OA
HETATM   31  H   UNK N   1      33.260  12.277   9.559  0.00  0.00     0.167 HD
ENDBRANCH  28  30
ENDBRANCH  27  28
ENDBRANCH  26  27
ENDBRANCH  25  26
ENDBRANCH  23  25
ENDBRANCH   4  21
TORSDOF 9
ENDMDL
MODEL 4
REMARK VINA RESULT:      -7.1      6.919     11.991
REMARK  9 active torsions:
REMARK  status: ('A' for Active; 'I' for Inactive)
REMARK    1  A    between atoms: C_7  and  C_5 
REMARK    2  A    between atoms: C_9  and  O_19 
REMARK    3  A    between atoms: C_10  and  C_13 
REMARK    4  A    between atoms: C_16  and  C_20 
REMARK       I    between atoms: C_20  and  N_22 
REMARK    5  A    between atoms: N_22  and  C_23 
REMARK    6  A    between atoms: C_23  and  C_24 
REMARK    7  A    between atoms: C_24  and  C_25 
REMARK    8  A    between atoms: C_25  and  C_26 
REMARK    9  A    between atoms: C_26  and  O_28 
ROOT
HETATM    1  C   UNK N   1      30.191  17.269   6.740  0.00  0.00    -0.051 A 
HETATM    2  C   UNK N   1      31.353  16.970   6.017  0.00  0.00     0.009 A 
HETATM    3  C   UNK N   1      32.616  17.146   6.579  0.00  0.00     0.017 A 
HETATM    4  C   UNK N   1      32.759  17.667   7.870  0.00  0.00     0.032 A 
HETATM    5  C   UNK N   1      31.597  17.967   8.605  0.00  0.00     0.017 A 
HETATM    6  C   UNK N   1      30.324  17.762   8.050  0.00  0.00     0.009 A 
ENDROOT
BRANCH   1   7
HETATM    7  C   UNK N   1      28.838  17.182   6.036  0.00  0.00     0.047 C 
HETATM    8  C   UNK N   1      27.670  17.869   6.779  0.00  0.00     0.127 C 
HETATM    9  C   UNK N   1      27.783  19.398   6.724  0.00  0.00     0.042 C 
HETATM   10  C   UNK N   1      27.790  19.916   5.274  0.00  0.00     0.021 C 
HETATM   11  C   UNK N   1      28.926  19.218   4.504  0.00  0.00     0.010 C 
HETATM   12  C   UNK N   1      28.849  17.686   4.579  0.00  0.00     0.012 C 
BRANCH   8  13
HETATM   13  O   UNK N   1      27.579  17.448   8.105  0.00  0.00    -0.395 OA
HETATM   14  H   UNK N   1      27.580  18.099   8.823  0.00  0.00     0.210 HD
ENDBRANCH   8  13
BRANCH  10  15
HETATM   15  C   UNK N   1      26.443  19.810   4.566  0.00  0.00    -0.054 A 
HETATM   16  C   UNK N   1      26.238  20.502   3.361  0.00  0.00     0.007 A 
HETATM   17  C   UNK N   1      25.003  20.438   2.706  0.00  0.00     0.001 A 
HETATM   18  C   UNK N   1      23.957  19.688   3.251  0.00  0.00     0.000 A 
HETATM   19  C   UNK N   1      24.143  19.007   4.454  0.00  0.00     0.001 A 
HETATM   20  C   UNK N   1      25.375  19.072   5.109  0.00  0.00     0.007 A 
ENDBRANCH  10  15
ENDBRANCH   1   7
BRANCH   4  21
HETATM   21  C   UNK N   1      34.146  17.905   8.390  0.00  0.00     0.251 C 
HETATM   22  O   UNK N   1      34.644  19.008   8.225  0.00  0.00    -0.268 OA
HETATM   23  N   UNK N   1      34.867  16.975   9.077  0.00  0.00    -0.357 N 
HETATM   24  H   UNK N   1      35.773  17.227   9.365  0.00  0.00     0.162 HD
BRANCH  23  25
HETATM   25  C   UNK N   1      34.406  15.653   9.416  0.00  0.00     0.123 C 
BRANCH  25  26
HETATM   26  C   UNK N   1      34.510  15.435  10.921  0.00  0.00     0.030 C 
BRANCH  26  27
HETATM   27  C   UNK N   1      35.567  14.394  11.276  0.00  0.00     0.111 C 
BRANCH  27  28
HETATM   28  C   UNK N   1      35.695  14.168  12.754  0.00  0.00     0.139 C 
HETATM   29  O   UNK N   1      34.846  13.513  13.336  0.00  0.00    -0.650 OA
BRANCH  28  30
HETATM   30  O   UNK N   1      36.735  14.672  13.447  0.00  0.00    -0.776 OA
HETATM   31  H   UNK N   1      36.785  15.540  13.794  0.00  0.00     0.167 HD
ENDBRANCH  28  30
ENDBRANCH  27  28
ENDBRANCH  26  27
ENDBRANCH  25  26
ENDBRANCH  23  25
ENDBRANCH   4  21
TORSDOF 9
ENDMDL
MODEL 5
REMARK VINA RESULT:      -7.1     11.145     14.985
REMARK  9 active torsions:
REMARK  status: ('A' for Active; 'I' for Inactive)
REMARK    1  A    between atoms: C_7  and  C_5 
REMARK    2  A    between atoms: C_9  and  O_19 
REMARK    3  A    between atoms: C_10  and  C_13 
REMARK    4  A    between atoms: C_16  and  C_20 
REMARK       I    between atoms: C_20  and  N_22 
REMARK    5  A    between atoms: N_22  and  C_23 
REMARK    6  A    between atoms: C_23  and  C_24 
REMARK    7  A    between atoms: C_24  and  C_25 
REMARK    8  A    between atoms: C_25  and  C_26 
REMARK    9  A    between atoms: C_26  and  O_28 
ROOT
HETATM    1  C   UNK N   1      25.956  18.334   4.153  0.00  0.00    -0.051 A 
HETATM    2  C   UNK N   1      25.485  17.238   4.887  0.00  0.00     0.009 A 
HETATM    3  C   UNK N   1      24.150  17.151   5.275  0.00  0.00     0.017 A 
HETATM    4  C   UNK N   1      23.249  18.181   4.978  0.00  0.00     0.032 A 
HETATM    5  C   UNK N   1      23.712  19.284   4.238  0.00  0.00     0.017 A 
HETATM    6  C   UNK N   1      25.050  19.358   3.822  0.00  0.00     0.009 A 
ENDROOT
BRANCH   1   7
HETATM    7  C   UNK N   1      27.452  18.445   3.864  0.00  0.00     0.047 C 
HETATM    8  C   UNK N   1      28.267  19.219   4.924  0.00  0.00     0.127 C 
HETATM    9  C   UNK N   1      28.412  18.418   6.224  0.00  0.00     0.042 C 
HETATM   10  C   UNK N   1      29.112  17.067   5.985  0.00  0.00     0.021 C 
HETATM   11  C   UNK N   1      28.335  16.292   4.904  0.00  0.00     0.010 C 
HETATM   12  C   UNK N   1      28.148  17.093   3.608  0.00  0.00     0.012 C 
BRANCH   8  13
HETATM   13  O   UNK N   1      27.711  20.468   5.196  0.00  0.00    -0.395 OA
HETATM   14  H   UNK N   1      26.924  20.766   4.713  0.00  0.00     0.210 HD
ENDBRANCH   8  13
BRANCH  10  15
HETATM   15  C   UNK N   1      30.602  17.180   5.676  0.00  0.00    -0.054 A 
HETATM   16  C   UNK N   1      31.526  17.225   6.732  0.00  0.00     0.007 A 
HETATM   17  C   UNK N   1      32.895  17.351   6.472  0.00  0.00     0.001 A 
HETATM   18  C   UNK N   1      33.355  17.441   5.155  0.00  0.00     0.000 A 
HETATM   19  C   UNK N   1      32.447  17.412   4.098  0.00  0.00     0.001 A 
HETATM   20  C   UNK N   1      31.079  17.288   4.356  0.00  0.00     0.007 A 
ENDBRANCH  10  15
ENDBRANCH   1   7
BRANCH   4  21
HETATM   21  C   UNK N   1      21.844  18.064   5.490  0.00  0.00     0.251 C 
HETATM   22  O   UNK N   1      21.620  18.393   6.645  0.00  0.00    -0.268 OA
HETATM   23  N   UNK N   1      20.792  17.655   4.727  0.00  0.00    -0.357 N 
HETATM   24  H   UNK N   1      19.911  17.601   5.162  0.00  0.00     0.162 HD
BRANCH  23  25
HETATM   25  C   UNK N   1      20.867  17.296   3.334  0.00  0.00     0.123 C 
BRANCH  25  26
HETATM   26  C   UNK N   1      19.999  18.236   2.505  0.00  0.00     0.030 C 
BRANCH  26  27
HETATM   27  C   UNK N   1      20.814  19.364   1.879  0.00  0.00     0.111 C 
BRANCH  27  28
HETATM   28  C   UNK N   1      20.739  20.645   2.657  0.00  0.00     0.139 C 
HETATM   29  O   UNK N   1      20.297  20.631   3.793  0.00  0.00    -0.650 OA
BRANCH  28  30
HETATM   30  O   UNK N   1      21.158  21.809   2.121  0.00  0.00    -0.776 OA
HETATM   31  H   UNK N   1      22.002  21.959   1.744  0.00  0.00     0.167 HD
ENDBRANCH  28  30
ENDBRANCH  27  28
ENDBRANCH  26  27
ENDBRANCH  25  26
ENDBRANCH  23  25
ENDBRANCH   4  21
TORSDOF 9
ENDMDL
MODEL 6
REMARK VINA RESULT:      -7.1      1.425      2.101
REMARK  9 active torsions:
REMARK  status: ('A' for Active; 'I' for Inactive)
REMARK    1  A    between atoms: C_7  and  C_5 
REMARK    2  A    between atoms: C_9  and  O_19 
REMARK    3  A    between atoms: C_10  and  C_13 
REMARK    4  A    between atoms: C_16  and  C_20 
REMARK       I    between atoms: C_20  and  N_22 
REMARK    5  A    between atoms: N_22  and  C_23 
REMARK    6  A    between atoms: C_23  and  C_24 
REMARK    7  A    between atoms: C_24  and  C_25 
REMARK    8  A    between atoms: C_25  and  C_26 
REMARK    9  A    between atoms: C_26  and  O_28 
ROOT
HETATM    1  C   UNK N   1      36.613  12.692  12.770  0.00  0.00    -0.051 A 
HETATM    2  C   UNK N   1      37.559  12.933  11.766  0.00  0.00     0.009 A 
HETATM    3  C   UNK N   1      37.167  13.173  10.451  0.00  0.00     0.017 A 
HETATM    4  C   UNK N   1      35.815  13.137  10.088  0.00  0.00     0.032 A 
HETATM    5  C   UNK N   1      34.858  12.898  11.091  0.00  0.00     0.017 A 
HETATM    6  C   UNK N   1      35.251  12.686  12.421  0.00  0.00     0.009 A 
ENDROOT
BRANCH   1   7
HETATM    7  C   UNK N   1      37.097  12.309  14.168  0.00  0.00     0.047 C 
HETATM    8  C   UNK N   1      36.765  13.330  15.278  0.00  0.00     0.127 C 
HETATM    9  C   UNK N   1      35.269  13.331  15.619  0.00  0.00     0.042 C 
HETATM   10  C   UNK N   1      34.793  11.947  16.095  0.00  0.00     0.021 C 
HETATM   11  C   UNK N   1      35.146  10.904  15.017  0.00  0.00     0.010 C 
HETATM   12  C   UNK N   1      36.633  10.915  14.637  0.00  0.00     0.012 C 
BRANCH   8  13
HETATM   13  O   UNK N   1      37.174  14.619  14.937  0.00  0.00    -0.395 OA
HETATM   14  H   UNK N   1      37.396  14.831  14.017  0.00  0.00     0.210 HD
ENDBRANCH   8  13
BRANCH  10  15
HETATM   15  C   UNK N   1      35.294  11.556  17.482  0.00  0.00    -0.054 A 
HETATM   16  C   UNK N   1      35.794  10.261  17.698  0.00  0.00     0.007 A 
HETATM   17  C   UNK N   1      36.237   9.874  18.967  0.00  0.00     0.001 A 
HETATM   18  C   UNK N   1      36.178  10.771  20.037  0.00  0.00     0.000 A 
HETATM   19  C   UNK N   1      35.670  12.055  19.839  0.00  0.00     0.001 A 
HETATM   20  C   UNK N   1      35.226  12.443  18.573  0.00  0.00     0.007 A 
ENDBRANCH  10  15
ENDBRANCH   1   7
BRANCH   4  21
HETATM   21  C   UNK N   1      35.463  13.325   8.642  0.00  0.00     0.251 C 
HETATM   22  O   UNK N   1      35.388  12.335   7.931  0.00  0.00    -0.268 OA
HETATM   23  N   UNK N   1      35.178  14.536   8.084  0.00  0.00    -0.357 N 
HETATM   24  H   UNK N   1      34.970  14.553   7.123  0.00  0.00     0.162 HD
BRANCH  23  25
HETATM   25  C   UNK N   1      35.154  15.790   8.792  0.00  0.00     0.123 C 
BRANCH  25  26
HETATM   26  C   UNK N   1      33.726  16.138   9.190  0.00  0.00     0.030 C 
BRANCH  26  27
HETATM   27  C   UNK N   1      33.293  17.495   8.642  0.00  0.00     0.111 C 
BRANCH  27  28
HETATM   28  C   UNK N   1      34.382  18.197   7.883  0.00  0.00     0.139 C 
HETATM   29  O   UNK N   1      34.527  17.967   6.694  0.00  0.00    -0.650 OA
BRANCH  28  30
HETATM   30  O   UNK N   1      35.197  19.079   8.495  0.00  0.00    -0.776 OA
HETATM   31  H   UNK N   1      36.124  18.985   8.589  0.00  0.00     0.167 HD
ENDBRANCH  28  30
ENDBRANCH  27  28
ENDBRANCH  26  27
ENDBRANCH  25  26
ENDBRANCH  23  25
ENDBRANCH   4  21
TORSDOF 9
ENDMDL
MODEL 7
REMARK VINA RESULT:      -7.1      2.101      2.975
REMARK  9 active torsions:
REMARK  status: ('A' for Active; 'I' for Inactive)
REMARK    1  A    between atoms: C_7  and  C_5 
REMARK    2  A    between atoms: C_9  and  O_19 
REMARK    3  A    between atoms: C_10  and  C_13 
REMARK    4  A    between atoms: C_16  and  C_20 
REMARK       I    between atoms: C_20  and  N_22 
REMARK    5  A    between atoms: N_22  and  C_23 
REMARK    6  A    between atoms: C_23  and  C_24 
REMARK    7  A    between atoms: C_24  and  C_25 
REMARK    8  A    between atoms: C_25  and  C_26 
REMARK    9  A    between atoms: C_26  and  O_28 
ROOT
HETATM    1  C   UNK N   1      35.009  12.375  13.373  0.00  0.00    -0.051 A 
HETATM    2  C   UNK N   1      34.986  11.746  12.122  0.00  0.00     0.009 A 
HETATM    3  C   UNK N   1      35.554  12.351  11.002  0.00  0.00     0.017 A 
HETATM    4  C   UNK N   1      36.127  13.625  11.089  0.00  0.00     0.032 A 
HETATM    5  C   UNK N   1      36.157  14.262  12.343  0.00  0.00     0.017 A 
HETATM    6  C   UNK N   1      35.612  13.641  13.477  0.00  0.00     0.009 A 
ENDROOT
BRANCH   1   7
HETATM    7  C   UNK N   1      34.261  11.731  14.540  0.00  0.00     0.047 C 
HETATM    8  C   UNK N   1      34.745  10.315  14.924  0.00  0.00     0.127 C 
HETATM    9  C   UNK N   1      36.116  10.349  15.609  0.00  0.00     0.042 C 
HETATM   10  C   UNK N   1      36.091  11.201  16.891  0.00  0.00     0.021 C 
HETATM   11  C   UNK N   1      35.578  12.610  16.539  0.00  0.00     0.010 C 
HETATM   12  C   UNK N   1      34.222  12.592  15.818  0.00  0.00     0.012 C 
BRANCH   8  13
HETATM   13  O   UNK N   1      34.788   9.464  13.819  0.00  0.00    -0.395 OA
HETATM   14  H   UNK N   1      35.469   9.585  13.139  0.00  0.00     0.210 HD
ENDBRANCH   8  13
BRANCH  10  15
HETATM   15  C   UNK N   1      35.327  10.566  18.049  0.00  0.00    -0.054 A 
HETATM   16  C   UNK N   1      35.356  11.176  19.314  0.00  0.00     0.007 A 
HETATM   17  C   UNK N   1      34.682  10.599  20.396  0.00  0.00     0.001 A 
HETATM   18  C   UNK N   1      33.977   9.403  20.228  0.00  0.00     0.000 A 
HETATM   19  C   UNK N   1      33.951   8.781  18.981  0.00  0.00     0.001 A 
HETATM   20  C   UNK N   1      34.626   9.355  17.900  0.00  0.00     0.007 A 
ENDBRANCH  10  15
ENDBRANCH   1   7
BRANCH   4  21
HETATM   21  C   UNK N   1      36.652  14.255   9.833  0.00  0.00     0.251 C 
HETATM   22  O   UNK N   1      37.832  14.102   9.559  0.00  0.00    -0.268 OA
HETATM   23  N   UNK N   1      35.876  14.951   8.955  0.00  0.00    -0.357 N 
HETATM   24  H   UNK N   1      36.320  15.335   8.165  0.00  0.00     0.162 HD
BRANCH  23  25
HETATM   25  C   UNK N   1      34.459  15.167   9.090  0.00  0.00     0.123 C 
BRANCH  25  26
HETATM   26  C   UNK N   1      34.197  16.531   9.716  0.00  0.00     0.030 C 
BRANCH  26  27
HETATM   27  C   UNK N   1      33.502  17.482   8.745  0.00  0.00     0.111 C 
BRANCH  27  28
HETATM   28  C   UNK N   1      34.464  18.268   7.904  0.00  0.00     0.139 C 
HETATM   29  O   UNK N   1      34.516  18.062   6.703  0.00  0.00    -0.650 OA
BRANCH  28  30
HETATM   30  O   UNK N   1      35.266  19.201   8.454  0.00  0.00    -0.776 OA
HETATM   31  H   UNK N   1      35.489  20.023   8.064  0.00  0.00     0.167 HD
ENDBRANCH  28  30
ENDBRANCH  27  28
ENDBRANCH  26  27
ENDBRANCH  25  26
ENDBRANCH  23  25
ENDBRANCH   4  21
TORSDOF 9
ENDMDL
MODEL 8
REMARK VINA RESULT:      -6.8     18.769     22.523
REMARK  9 active torsions:
REMARK  status: ('A' for Active; 'I' for Inactive)
REMARK    1  A    between atoms: C_7  and  C_5 
REMARK    2  A    between atoms: C_9  and  O_19 
REMARK    3  A    between atoms: C_10  and  C_13 
REMARK    4  A    between atoms: C_16  and  C_20 
REMARK       I    between atoms: C_20  and  N_22 
REMARK    5  A    between atoms: N_22  and  C_23 
REMARK    6  A    between atoms: C_23  and  C_24 
REMARK    7  A    between atoms: C_24  and  C_25 
REMARK    8  A    between atoms: C_25  and  C_26 
REMARK    9  A    between atoms: C_26  and  O_28 
ROOT
HETATM    1  C   UNK N   1      29.775  24.760  -3.742  0.00  0.00    -0.051 A 
HETATM    2  C   UNK N   1      29.785  26.144  -3.956  0.00  0.00     0.009 A 
HETATM    3  C   UNK N   1      28.599  26.875  -3.994  0.00  0.00     0.017 A 
HETATM    4  C   UNK N   1      27.360  26.237  -3.863  0.00  0.00     0.032 A 
HETATM    5  C   UNK N   1      27.340  24.847  -3.645  0.00  0.00     0.017 A 
HETATM    6  C   UNK N   1      28.536  24.115  -3.576  0.00  0.00     0.009 A 
ENDROOT
BRANCH   1   7
HETATM    7  C   UNK N   1      31.089  23.987  -3.836  0.00  0.00     0.047 C 
HETATM    8  C   UNK N   1      31.153  22.700  -2.982  0.00  0.00     0.127 C 
HETATM    9  C   UNK N   1      30.269  21.589  -3.563  0.00  0.00     0.042 C 
HETATM   10  C   UNK N   1      30.685  21.223  -4.999  0.00  0.00     0.021 C 
HETATM   11  C   UNK N   1      30.663  22.499  -5.862  0.00  0.00     0.010 C 
HETATM   12  C   UNK N   1      31.514  23.634  -5.276  0.00  0.00     0.012 C 
BRANCH   8  13
HETATM   13  O   UNK N   1      30.801  22.941  -1.655  0.00  0.00    -0.395 OA
HETATM   14  H   UNK N   1      30.136  23.614  -1.442  0.00  0.00     0.210 HD
ENDBRANCH   8  13
BRANCH  10  15
HETATM   15  C   UNK N   1      32.008  20.468  -5.094  0.00  0.00    -0.054 A 
HETATM   16  C   UNK N   1      32.702  20.139  -3.918  0.00  0.00     0.007 A 
HETATM   17  C   UNK N   1      33.928  19.467  -3.983  0.00  0.00     0.001 A 
HETATM   18  C   UNK N   1      34.478  19.124  -5.221  0.00  0.00     0.000 A 
HETATM   19  C   UNK N   1      33.805  19.458  -6.396  0.00  0.00     0.001 A 
HETATM   20  C   UNK N   1      32.582  20.130  -6.333  0.00  0.00     0.007 A 
ENDBRANCH  10  15
ENDBRANCH   1   7
BRANCH   4  21
HETATM   21  C   UNK N   1      26.117  27.067  -3.992  0.00  0.00     0.251 C 
HETATM   22  O   UNK N   1      25.645  27.563  -2.981  0.00  0.00    -0.268 OA
HETATM   23  N   UNK N   1      25.508  27.338  -5.181  0.00  0.00    -0.357 N 
HETATM   24  H   UNK N   1      24.690  27.884  -5.156  0.00  0.00     0.162 HD
BRANCH  23  25
HETATM   25  C   UNK N   1      25.969  26.891  -6.470  0.00  0.00     0.123 C 
BRANCH  25  26
HETATM   26  C   UNK N   1      25.491  25.468  -6.730  0.00  0.00     0.030 C 
BRANCH  26  27
HETATM   27  C   UNK N   1      26.155  24.857  -7.960  0.00  0.00     0.111 C 
BRANCH  27  28
HETATM   28  C   UNK N   1      25.183  24.159  -8.866  0.00  0.00     0.139 C 
HETATM   29  O   UNK N   1      24.572  23.187  -8.455  0.00  0.00    -0.650 OA
BRANCH  28  30
HETATM   30  O   UNK N   1      24.974  24.592 -10.125  0.00  0.00    -0.776 OA
HETATM   31  H   UNK N   1      25.106  24.086 -10.902  0.00  0.00     0.167 HD
ENDBRANCH  28  30
ENDBRANCH  27  28
ENDBRANCH  26  27
ENDBRANCH  25  26
ENDBRANCH  23  25
ENDBRANCH   4  21
TORSDOF 9
ENDMDL
MODEL 9
REMARK VINA RESULT:      -6.8      1.683      2.085
REMARK  9 active torsions:
REMARK  status: ('A' for Active; 'I' for Inactive)
REMARK    1  A    between atoms: C_7  and  C_5 
REMARK    2  A    between atoms: C_9  and  O_19 
REMARK    3  A    between atoms: C_10  and  C_13 
REMARK    4  A    between atoms: C_16  and  C_20 
REMARK       I    between atoms: C_20  and  N_22 
REMARK    5  A    between atoms: N_22  and  C_23 
REMARK    6  A    between atoms: C_23  and  C_24 
REMARK    7  A    between atoms: C_24  and  C_25 
REMARK    8  A    between atoms: C_25  and  C_26 
REMARK    9  A    between atoms: C_26  and  O_28 
ROOT
HETATM    1  C   UNK N   1      36.632  12.747  11.184  0.00  0.00    -0.051 A 
HETATM    2  C   UNK N   1      35.813  11.961  10.364  0.00  0.00     0.009 A 
HETATM    3  C   UNK N   1      35.421  12.404   9.102  0.00  0.00     0.017 A 
HETATM    4  C   UNK N   1      35.801  13.668   8.637  0.00  0.00     0.032 A 
HETATM    5  C   UNK N   1      36.627  14.463   9.453  0.00  0.00     0.017 A 
HETATM    6  C   UNK N   1      37.046  14.004  10.712  0.00  0.00     0.009 A 
ENDROOT
BRANCH   1   7
HETATM    7  C   UNK N   1      36.927  12.273  12.607  0.00  0.00     0.047 C 
HETATM    8  C   UNK N   1      36.445  13.224  13.725  0.00  0.00     0.127 C 
HETATM    9  C   UNK N   1      34.917  13.209  13.863  0.00  0.00     0.042 C 
HETATM   10  C   UNK N   1      34.389  11.799  14.184  0.00  0.00     0.021 C 
HETATM   11  C   UNK N   1      34.887  10.825  13.098  0.00  0.00     0.010 C 
HETATM   12  C   UNK N   1      36.412  10.854  12.921  0.00  0.00     0.012 C 
BRANCH   8  13
HETATM   13  O   UNK N   1      36.890  14.530  13.524  0.00  0.00    -0.395 OA
HETATM   14  H   UNK N   1      37.815  14.697  13.282  0.00  0.00     0.210 HD
ENDBRANCH   8  13
BRANCH  10  15
HETATM   15  C   UNK N   1      34.702  11.319  15.597  0.00  0.00    -0.054 A 
HETATM   16  C   UNK N   1      35.003  12.259  16.596  0.00  0.00     0.007 A 
HETATM   17  C   UNK N   1      35.316  11.840  17.894  0.00  0.00     0.001 A 
HETATM   18  C   UNK N   1      35.339  10.478  18.207  0.00  0.00     0.000 A 
HETATM   19  C   UNK N   1      35.055   9.534  17.221  0.00  0.00     0.001 A 
HETATM   20  C   UNK N   1      34.744   9.951  15.924  0.00  0.00     0.007 A 
ENDBRANCH  10  15
ENDBRANCH   1   7
BRANCH   4  21
HETATM   21  C   UNK N   1      35.283  14.119   7.303  0.00  0.00     0.251 C 
HETATM   22  O   UNK N   1      35.933  13.843   6.306  0.00  0.00    -0.268 OA
HETATM   23  N   UNK N   1      34.104  14.781   7.134  0.00  0.00    -0.357 N 
HETATM   24  H   UNK N   1      33.860  15.044   6.218  0.00  0.00     0.162 HD
BRANCH  23  25
HETATM   25  C   UNK N   1      33.187  15.125   8.190  0.00  0.00     0.123 C 
BRANCH  25  26
HETATM   26  C   UNK N   1      32.580  16.498   7.928  0.00  0.00     0.030 C 
BRANCH  26  27
HETATM   27  C   UNK N   1      33.299  17.599   8.702  0.00  0.00     0.111 C 
BRANCH  27  28
HETATM   28  C   UNK N   1      34.409  18.238   7.919  0.00  0.00     0.139 C 
HETATM   29  O   UNK N   1      34.563  17.943   6.746  0.00  0.00    -0.650 OA
BRANCH  28  30
HETATM   30  O   UNK N   1      35.234  19.138   8.492  0.00  0.00    -0.776 OA
HETATM   31  H   UNK N   1      35.154  19.467   9.365  0.00  0.00     0.167 HD
ENDBRANCH  28  30
ENDBRANCH  27  28
ENDBRANCH  26  27
ENDBRANCH  25  26
ENDBRANCH  23  25
ENDBRANCH   4  21
TORSDOF 9
ENDMDL
