REMARK  9 active torsions:
REMARK  status: ('A' for Active; 'I' for Inactive)
REMARK    1  A    between atoms: C_7  and  C_5 
REMARK    2  A    between atoms: C_9  and  O_19 
REMARK    3  A    between atoms: C_10  and  C_13 
REMARK    4  A    between atoms: C_16  and  C_20 
REMARK       I    between atoms: C_20  and  N_22 
REMARK    5  A    between atoms: N_22  and  C_23 
REMARK    6  A    between atoms: C_23  and  C_24 
REMARK    7  A    between atoms: C_24  and  C_25 
REMARK    8  A    between atoms: C_25  and  C_26 
REMARK    9  A    between atoms: C_26  and  O_28 
ROOT
HETATM    1  C   UNK N   1      -0.376   0.851   0.446  0.00  0.00    -0.051 A 
HETATM    2  C   UNK N   1      -0.331   2.247   0.343  0.00  0.00     0.009 A 
HETATM    3  C   UNK N   1       0.831   2.902  -0.060  0.00  0.00     0.017 A 
HETATM    4  C   UNK N   1       2.001   2.183  -0.332  0.00  0.00     0.032 A 
HETATM    5  C   UNK N   1       1.964   0.780  -0.234  0.00  0.00     0.017 A 
HETATM    6  C   UNK N   1       0.785   0.118   0.143  0.00  0.00     0.009 A 
ENDROOT
BRANCH   1   7
HETATM    7  C   UNK N   1      -1.631   0.190   1.014  0.00  0.00     0.047 C 
HETATM    8  C   UNK N   1      -2.955   0.616   0.342  0.00  0.00     0.127 C 
HETATM    9  C   UNK N   1      -3.089   0.032  -1.070  0.00  0.00     0.042 C 
HETATM   10  C   UNK N   1      -3.042  -1.507  -1.056  0.00  0.00     0.021 C 
HETATM   11  C   UNK N   1      -1.744  -1.956  -0.358  0.00  0.00     0.010 C 
HETATM   12  C   UNK N   1      -1.576  -1.351   1.043  0.00  0.00     0.012 C 
BRANCH   8  13
HETATM   13  O   UNK N   1      -3.091   2.003   0.296  0.00  0.00    -0.395 OA
HETATM   14  H   UNK N   1      -2.303   2.568   0.264  0.00  0.00     0.210 HD
ENDBRANCH   8  13
BRANCH  10  15
HETATM   15  C   UNK N   1      -4.287  -2.166  -0.470  0.00  0.00    -0.054 A 
HETATM   16  C   UNK N   1      -4.368  -3.567  -0.416  0.00  0.00     0.007 A 
HETATM   17  C   UNK N   1      -5.510  -4.193   0.096  0.00  0.00     0.001 A 
HETATM   18  C   UNK N   1      -6.586  -3.427   0.553  0.00  0.00     0.000 A 
HETATM   19  C   UNK N   1      -6.524  -2.035   0.492  0.00  0.00     0.001 A 
HETATM   20  C   UNK N   1      -5.385  -1.409  -0.021  0.00  0.00     0.007 A 
ENDBRANCH  10  15
ENDBRANCH   1   7
BRANCH   4  21
HETATM   21  C   UNK N   1       3.240   2.951  -0.685  0.00  0.00     0.251 C 
HETATM   22  O   UNK N   1       3.142   4.154  -0.871  0.00  0.00    -0.268 OA
HETATM   23  N   UNK N   1       4.480   2.391  -0.766  0.00  0.00    -0.357 N 
HETATM   24  H   UNK N   1       5.227   2.980  -1.017  0.00  0.00     0.162 HD
BRANCH  23  25
HETATM   25  C   UNK N   1       4.783   1.006  -0.512  0.00  0.00     0.123 C 
BRANCH  25  26
HETATM   26  C   UNK N   1       5.511   0.867   0.819  0.00  0.00     0.030 C 
BRANCH  26  27
HETATM   27  C   UNK N   1       6.914   1.465   0.769  0.00  0.00     0.111 C 
BRANCH  27  28
HETATM   28  C   UNK N   1       7.903   0.585   0.062  0.00  0.00     0.139 C 
HETATM   29  O   UNK N   1       9.066   0.941  -0.026  0.00  0.00    -0.650 OA
BRANCH  28  30
HETATM   30  O   UNK N   1       7.526  -0.594  -0.472  0.00  0.00    -0.776 OA
HETATM   31  H   UNK N   1       6.686  -0.777  -0.843  0.00  0.00     0.167 HD
ENDBRANCH  28  30
ENDBRANCH  27  28
ENDBRANCH  26  27
ENDBRANCH  25  26
ENDBRANCH  23  25
ENDBRANCH   4  21
TORSDOF 9
