REMARK  6 active torsions:
REMARK  status: ('A' for Active; 'I' for Inactive)
REMARK    1  A    between atoms: C_1  and  O_2 
REMARK    2  A    between atoms: C_1  and  O_3 
REMARK    3  A    between atoms: C_1  and  C_4 
REMARK    4  A    between atoms: C_4  and  N_5 
REMARK    5  A    between atoms: C_4  and  C_6 
REMARK    6  A    between atoms: C_6  and  C_7 
ROOT
HETATM    1  C   UNK N   1       0.779   1.299   0.080  0.00  0.00     0.174 C 
ENDROOT
BRANCH   1   2
HETATM    2  C   UNK N   1       2.170   1.872   0.059  0.00  0.00     0.130 C 
BRANCH   2   3
HETATM    3  O   UNK N   1       2.369   3.158   0.406  0.00  0.00    -0.777 OA
HETATM    4  H   UNK N   1       3.213   3.485   0.647  0.00  0.00     0.167 HD
ENDBRANCH   2   3
BRANCH   2   5
HETATM    5  O   UNK N   1       3.227   1.111  -0.294  0.00  0.00    -0.777 OA
HETATM    6  H   UNK N   1       3.137   0.212  -0.540  0.00  0.00     0.167 HD
ENDBRANCH   2   5
ENDBRANCH   1   2
BRANCH   1   7
HETATM    7  N   UNK N   1      -0.066   2.070  -0.819  0.00  0.00    -0.417 N 
HETATM    8  H   UNK N   1       0.107   2.853  -1.449  0.00  0.00     0.150 HD
HETATM    9  H   UNK N   1      -1.038   1.762  -0.819  0.00  0.00     0.150 HD
ENDBRANCH   1   7
BRANCH   1  10
HETATM   10  C   UNK N   1       0.807  -0.171  -0.355  0.00  0.00     0.073 C 
BRANCH  10  11
HETATM   11  C   UNK N   1      -0.461  -0.958  -0.181  0.00  0.00    -0.056 A 
HETATM   12  C   UNK N   1      -0.363  -2.348  -0.062  0.00  0.00     0.007 A 
HETATM   13  C   UNK N   1      -1.511  -3.129   0.090  0.00  0.00     0.001 A 
HETATM   14  C   UNK N   1      -2.769  -2.521   0.119  0.00  0.00     0.000 A 
HETATM   15  C   UNK N   1      -2.877  -1.133  -0.005  0.00  0.00     0.001 A 
HETATM   16  C   UNK N   1      -1.726  -0.351  -0.155  0.00  0.00     0.007 A 
ENDBRANCH  10  11
ENDBRANCH   1  10
TORSDOF 6
