MODEL 1
REMARK VINA RESULT:      -5.2      0.000      0.000
REMARK  6 active torsions:
REMARK  status: ('A' for Active; 'I' for Inactive)
REMARK    1  A    between atoms: C_1  and  O_2 
REMARK    2  A    between atoms: C_1  and  O_3 
REMARK    3  A    between atoms: C_1  and  C_4 
REMARK    4  A    between atoms: C_4  and  N_5 
REMARK    5  A    between atoms: C_4  and  C_6 
REMARK    6  A    between atoms: C_6  and  C_7 
ROOT
HETATM    1  C   UNK N   1      36.347  13.311  14.839  0.00  0.00     0.174 C 
ENDROOT
BRANCH   1   2
HETATM    2  C   UNK N   1      35.964  13.654  13.425  0.00  0.00     0.130 C 
BRANCH   2   3
HETATM    3  O   UNK N   1      34.685  13.516  13.027  0.00  0.00    -0.777 OA
HETATM    4  H   UNK N   1      34.450  13.428  12.124  0.00  0.00     0.167 HD
ENDBRANCH   2   3
BRANCH   2   5
HETATM    5  O   UNK N   1      36.884  14.111  12.550  0.00  0.00    -0.777 OA
HETATM    6  H   UNK N   1      37.655  13.625  12.334  0.00  0.00     0.167 HD
ENDBRANCH   2   5
ENDBRANCH   1   2
BRANCH   1   7
HETATM    7  N   UNK N   1      37.242  14.337  15.351  0.00  0.00    -0.417 N 
HETATM    8  H   UNK N   1      38.022  14.856  14.948  0.00  0.00     0.150 HD
HETATM    9  H   UNK N   1      37.049  14.591  16.320  0.00  0.00     0.150 HD
ENDBRANCH   1   7
BRANCH   1  10
HETATM   10  C   UNK N   1      35.095  13.218  15.718  0.00  0.00     0.073 C 
BRANCH  10  11
HETATM   11  C   UNK N   1      35.265  12.626  17.089  0.00  0.00    -0.056 A 
HETATM   12  C   UNK N   1      35.582  11.267  17.185  0.00  0.00     0.007 A 
HETATM   13  C   UNK N   1      35.741  10.663  18.434  0.00  0.00     0.001 A 
HETATM   14  C   UNK N   1      35.578  11.418  19.599  0.00  0.00     0.000 A 
HETATM   15  C   UNK N   1      35.255  12.776  19.513  0.00  0.00     0.001 A 
HETATM   16  C   UNK N   1      35.099  13.380  18.260  0.00  0.00     0.007 A 
ENDBRANCH  10  11
ENDBRANCH   1  10
TORSDOF 6
ENDMDL
MODEL 2
REMARK VINA RESULT:      -5.0     14.050     15.364
REMARK  6 active torsions:
REMARK  status: ('A' for Active; 'I' for Inactive)
REMARK    1  A    between atoms: C_1  and  O_2 
REMARK    2  A    between atoms: C_1  and  O_3 
REMARK    3  A    between atoms: C_1  and  C_4 
REMARK    4  A    between atoms: C_4  and  N_5 
REMARK    5  A    between atoms: C_4  and  C_6 
REMARK    6  A    between atoms: C_6  and  C_7 
ROOT
HETATM    1  C   UNK N   1      23.684  12.352  11.443  0.00  0.00     0.174 C 
ENDROOT
BRANCH   1   2
HETATM    2  C   UNK N   1      23.311  12.003  12.858  0.00  0.00     0.130 C 
BRANCH   2   3
HETATM    3  O   UNK N   1      23.958  12.588  13.884  0.00  0.00    -0.777 OA
HETATM    4  H   UNK N   1      23.889  12.272  14.763  0.00  0.00     0.167 HD
ENDBRANCH   2   3
BRANCH   2   5
HETATM    5  O   UNK N   1      22.327  11.116  13.117  0.00  0.00    -0.777 OA
HETATM    6  H   UNK N   1      21.662  10.910  12.491  0.00  0.00     0.167 HD
ENDBRANCH   2   5
ENDBRANCH   1   2
BRANCH   1   7
HETATM    7  N   UNK N   1      25.050  11.919  11.191  0.00  0.00    -0.417 N 
HETATM    8  H   UNK N   1      25.650  11.207  11.606  0.00  0.00     0.150 HD
HETATM    9  H   UNK N   1      25.503  12.438  10.440  0.00  0.00     0.150 HD
ENDBRANCH   1   7
BRANCH   1  10
HETATM   10  C   UNK N   1      22.725  11.668  10.461  0.00  0.00     0.073 C 
BRANCH  10  11
HETATM   11  C   UNK N   1      21.965  12.558   9.518  0.00  0.00    -0.056 A 
HETATM   12  C   UNK N   1      21.926  12.204   8.166  0.00  0.00     0.007 A 
HETATM   13  C   UNK N   1      21.244  13.002   7.244  0.00  0.00     0.001 A 
HETATM   14  C   UNK N   1      20.599  14.166   7.672  0.00  0.00     0.000 A 
HETATM   15  C   UNK N   1      20.638  14.530   9.021  0.00  0.00     0.001 A 
HETATM   16  C   UNK N   1      21.320  13.729   9.944  0.00  0.00     0.007 A 
ENDBRANCH  10  11
ENDBRANCH   1  10
TORSDOF 6
ENDMDL
MODEL 3
REMARK VINA RESULT:      -5.0      9.809     10.926
REMARK  6 active torsions:
REMARK  status: ('A' for Active; 'I' for Inactive)
REMARK    1  A    between atoms: C_1  and  O_2 
REMARK    2  A    between atoms: C_1  and  O_3 
REMARK    3  A    between atoms: C_1  and  C_4 
REMARK    4  A    between atoms: C_4  and  N_5 
REMARK    5  A    between atoms: C_4  and  C_6 
REMARK    6  A    between atoms: C_6  and  C_7 
ROOT
HETATM    1  C   UNK N   1      33.107  17.416   8.396  0.00  0.00     0.174 C 
ENDROOT
BRANCH   1   2
HETATM    2  C   UNK N   1      34.234  18.105   7.675  0.00  0.00     0.130 C 
BRANCH   2   3
HETATM    3  O   UNK N   1      34.978  19.023   8.319  0.00  0.00    -0.777 OA
HETATM    4  H   UNK N   1      34.786  19.297   9.194  0.00  0.00     0.167 HD
ENDBRANCH   2   3
BRANCH   2   5
HETATM    5  O   UNK N   1      34.517  17.808   6.389  0.00  0.00    -0.777 OA
HETATM    6  H   UNK N   1      34.240  18.349   5.677  0.00  0.00     0.167 HD
ENDBRANCH   2   5
ENDBRANCH   1   2
BRANCH   1   7
HETATM    7  N   UNK N   1      33.625  16.799   9.607  0.00  0.00    -0.417 N 
HETATM    8  H   UNK N   1      33.615  15.847   9.972  0.00  0.00     0.150 HD
HETATM    9  H   UNK N   1      34.099  17.460  10.223  0.00  0.00     0.150 HD
ENDBRANCH   1   7
BRANCH   1  10
HETATM   10  C   UNK N   1      32.009  18.427   8.747  0.00  0.00     0.073 C 
BRANCH  10  11
HETATM   11  C   UNK N   1      30.590  18.016   8.474  0.00  0.00    -0.056 A 
HETATM   12  C   UNK N   1      29.620  18.314   9.435  0.00  0.00     0.007 A 
HETATM   13  C   UNK N   1      28.288  17.945   9.237  0.00  0.00     0.001 A 
HETATM   14  C   UNK N   1      27.919  17.266   8.072  0.00  0.00     0.000 A 
HETATM   15  C   UNK N   1      28.883  16.958   7.108  0.00  0.00     0.001 A 
HETATM   16  C   UNK N   1      30.217  17.331   7.307  0.00  0.00     0.007 A 
ENDBRANCH  10  11
ENDBRANCH   1  10
TORSDOF 6
ENDMDL
MODEL 4
REMARK VINA RESULT:      -5.0     11.135     12.273
REMARK  6 active torsions:
REMARK  status: ('A' for Active; 'I' for Inactive)
REMARK    1  A    between atoms: C_1  and  O_2 
REMARK    2  A    between atoms: C_1  and  O_3 
REMARK    3  A    between atoms: C_1  and  C_4 
REMARK    4  A    between atoms: C_4  and  N_5 
REMARK    5  A    between atoms: C_4  and  C_6 
REMARK    6  A    between atoms: C_6  and  C_7 
ROOT
HETATM    1  C   UNK N   1      29.642  18.507   8.634  0.00  0.00     0.174 C 
ENDROOT
BRANCH   1   2
HETATM    2  C   UNK N   1      28.144  18.536   8.494  0.00  0.00     0.130 C 
BRANCH   2   3
HETATM    3  O   UNK N   1      27.583  19.135   7.427  0.00  0.00    -0.777 OA
HETATM    4  H   UNK N   1      27.368  20.047   7.422  0.00  0.00     0.167 HD
ENDBRANCH   2   3
BRANCH   2   5
HETATM    5  O   UNK N   1      27.351  17.960   9.422  0.00  0.00    -0.777 OA
HETATM    6  H   UNK N   1      26.500  18.293   9.630  0.00  0.00     0.167 HD
ENDBRANCH   2   5
ENDBRANCH   1   2
BRANCH   1   7
HETATM    7  N   UNK N   1      29.991  18.661  10.038  0.00  0.00    -0.417 N 
HETATM    8  H   UNK N   1      29.763  19.356  10.748  0.00  0.00     0.150 HD
HETATM    9  H   UNK N   1      30.592  17.914  10.386  0.00  0.00     0.150 HD
ENDBRANCH   1   7
BRANCH   1  10
HETATM   10  C   UNK N   1      30.196  17.182   8.096  0.00  0.00     0.073 C 
BRANCH  10  11
HETATM   11  C   UNK N   1      31.271  17.268   7.049  0.00  0.00    -0.056 A 
HETATM   12  C   UNK N   1      32.589  17.465   7.472  0.00  0.00     0.007 A 
HETATM   13  C   UNK N   1      33.625  17.564   6.541  0.00  0.00     0.001 A 
HETATM   14  C   UNK N   1      33.346  17.470   5.175  0.00  0.00     0.000 A 
HETATM   15  C   UNK N   1      32.030  17.278   4.742  0.00  0.00     0.001 A 
HETATM   16  C   UNK N   1      30.993  17.178   5.676  0.00  0.00     0.007 A 
ENDBRANCH  10  11
ENDBRANCH   1  10
TORSDOF 6
ENDMDL
MODEL 5
REMARK VINA RESULT:      -4.9      1.067      1.269
REMARK  6 active torsions:
REMARK  status: ('A' for Active; 'I' for Inactive)
REMARK    1  A    between atoms: C_1  and  O_2 
REMARK    2  A    between atoms: C_1  and  O_3 
REMARK    3  A    between atoms: C_1  and  C_4 
REMARK    4  A    between atoms: C_4  and  N_5 
REMARK    5  A    between atoms: C_4  and  C_6 
REMARK    6  A    between atoms: C_6  and  C_7 
ROOT
HETATM    1  C   UNK N   1      35.771  12.519  14.416  0.00  0.00     0.174 C 
ENDROOT
BRANCH   1   2
HETATM    2  C   UNK N   1      34.772  12.443  13.294  0.00  0.00     0.130 C 
BRANCH   2   3
HETATM    3  O   UNK N   1      34.190  11.266  12.994  0.00  0.00    -0.777 OA
HETATM    4  H   UNK N   1      33.365  11.010  13.357  0.00  0.00     0.167 HD
ENDBRANCH   2   3
BRANCH   2   5
HETATM    5  O   UNK N   1      34.441  13.544  12.586  0.00  0.00    -0.777 OA
HETATM    6  H   UNK N   1      33.927  13.501  11.804  0.00  0.00     0.167 HD
ENDBRANCH   2   5
ENDBRANCH   1   2
BRANCH   1   7
HETATM    7  N   UNK N   1      36.984  13.157  13.930  0.00  0.00    -0.417 N 
HETATM    8  H   UNK N   1      37.962  13.119  14.216  0.00  0.00     0.150 HD
HETATM    9  H   UNK N   1      36.823  13.772  13.133  0.00  0.00     0.150 HD
ENDBRANCH   1   7
BRANCH   1  10
HETATM   10  C   UNK N   1      35.189  13.319  15.588  0.00  0.00     0.073 C 
BRANCH  10  11
HETATM   11  C   UNK N   1      35.297  12.703  16.954  0.00  0.00    -0.056 A 
HETATM   12  C   UNK N   1      35.561  11.333  17.040  0.00  0.00     0.007 A 
HETATM   13  C   UNK N   1      35.659  10.707  18.285  0.00  0.00     0.001 A 
HETATM   14  C   UNK N   1      35.489  11.452  19.455  0.00  0.00     0.000 A 
HETATM   15  C   UNK N   1      35.219  12.821  19.379  0.00  0.00     0.001 A 
HETATM   16  C   UNK N   1      35.122  13.448  18.131  0.00  0.00     0.007 A 
ENDBRANCH  10  11
ENDBRANCH   1  10
TORSDOF 6
ENDMDL
MODEL 6
REMARK VINA RESULT:      -4.8      2.824      3.795
REMARK  6 active torsions:
REMARK  status: ('A' for Active; 'I' for Inactive)
REMARK    1  A    between atoms: C_1  and  O_2 
REMARK    2  A    between atoms: C_1  and  O_3 
REMARK    3  A    between atoms: C_1  and  C_4 
REMARK    4  A    between atoms: C_4  and  N_5 
REMARK    5  A    between atoms: C_4  and  C_6 
REMARK    6  A    between atoms: C_6  and  C_7 
ROOT
HETATM    1  C   UNK N   1      34.946  14.861  11.702  0.00  0.00     0.174 C 
ENDROOT
BRANCH   1   2
HETATM    2  C   UNK N   1      35.643  16.042  11.083  0.00  0.00     0.130 C 
BRANCH   2   3
HETATM    3  O   UNK N   1      34.929  17.126  10.723  0.00  0.00    -0.777 OA
HETATM    4  H   UNK N   1      35.149  17.988  11.016  0.00  0.00     0.167 HD
ENDBRANCH   2   3
BRANCH   2   5
HETATM    5  O   UNK N   1      36.979  16.036  10.890  0.00  0.00    -0.777 OA
HETATM    6  H   UNK N   1      37.508  15.288  11.081  0.00  0.00     0.167 HD
ENDBRANCH   2   5
ENDBRANCH   1   2
BRANCH   1   7
HETATM    7  N   UNK N   1      34.184  14.167  10.676  0.00  0.00    -0.417 N 
HETATM    8  H   UNK N   1      34.430  13.495   9.950  0.00  0.00     0.150 HD
HETATM    9  H   UNK N   1      33.192  14.404  10.684  0.00  0.00     0.150 HD
ENDBRANCH   1   7
BRANCH   1  10
HETATM   10  C   UNK N   1      35.974  13.911  12.327  0.00  0.00     0.073 C 
BRANCH  10  11
HETATM   11  C   UNK N   1      35.674  13.392  13.705  0.00  0.00    -0.056 A 
HETATM   12  C   UNK N   1      34.694  12.402  13.837  0.00  0.00     0.007 A 
HETATM   13  C   UNK N   1      34.367  11.892  15.096  0.00  0.00     0.001 A 
HETATM   14  C   UNK N   1      35.017  12.376  16.234  0.00  0.00     0.000 A 
HETATM   15  C   UNK N   1      35.994  13.369  16.112  0.00  0.00     0.001 A 
HETATM   16  C   UNK N   1      36.322  13.877  14.850  0.00  0.00     0.007 A 
ENDBRANCH  10  11
ENDBRANCH   1  10
TORSDOF 6
ENDMDL
MODEL 7
REMARK VINA RESULT:      -4.8      9.046     11.557
REMARK  6 active torsions:
REMARK  status: ('A' for Active; 'I' for Inactive)
REMARK    1  A    between atoms: C_1  and  O_2 
REMARK    2  A    between atoms: C_1  and  O_3 
REMARK    3  A    between atoms: C_1  and  C_4 
REMARK    4  A    between atoms: C_4  and  N_5 
REMARK    5  A    between atoms: C_4  and  C_6 
REMARK    6  A    between atoms: C_6  and  C_7 
ROOT
HETATM    1  C   UNK N   1      33.841  16.851   8.565  0.00  0.00     0.174 C 
ENDROOT
BRANCH   1   2
HETATM    2  C   UNK N   1      34.878  17.815   9.075  0.00  0.00     0.130 C 
BRANCH   2   3
HETATM    3  O   UNK N   1      35.118  18.957   8.403  0.00  0.00    -0.777 OA
HETATM    4  H   UNK N   1      34.812  19.788   8.706  0.00  0.00     0.167 HD
ENDBRANCH   2   3
BRANCH   2   5
HETATM    5  O   UNK N   1      35.566  17.556  10.207  0.00  0.00    -0.777 OA
HETATM    6  H   UNK N   1      36.104  16.796  10.303  0.00  0.00     0.167 HD
ENDBRANCH   2   5
ENDBRANCH   1   2
BRANCH   1   7
HETATM    7  N   UNK N   1      33.439  15.968   9.648  0.00  0.00    -0.417 N 
HETATM    8  H   UNK N   1      32.944  16.114  10.528  0.00  0.00     0.150 HD
HETATM    9  H   UNK N   1      33.709  14.997   9.496  0.00  0.00     0.150 HD
ENDBRANCH   1   7
BRANCH   1  10
HETATM   10  C   UNK N   1      32.625  17.617   8.031  0.00  0.00     0.073 C 
BRANCH  10  11
HETATM   11  C   UNK N   1      32.286  17.433   6.579  0.00  0.00    -0.056 A 
HETATM   12  C   UNK N   1      33.321  17.531   5.643  0.00  0.00     0.007 A 
HETATM   13  C   UNK N   1      33.060  17.379   4.279  0.00  0.00     0.001 A 
HETATM   14  C   UNK N   1      31.755  17.132   3.842  0.00  0.00     0.000 A 
HETATM   15  C   UNK N   1      30.714  17.038   4.770  0.00  0.00     0.001 A 
HETATM   16  C   UNK N   1      30.977  17.188   6.137  0.00  0.00     0.007 A 
ENDBRANCH  10  11
ENDBRANCH   1  10
TORSDOF 6
ENDMDL
MODEL 8
REMARK VINA RESULT:      -4.8      9.033     11.554
REMARK  6 active torsions:
REMARK  status: ('A' for Active; 'I' for Inactive)
REMARK    1  A    between atoms: C_1  and  O_2 
REMARK    2  A    between atoms: C_1  and  O_3 
REMARK    3  A    between atoms: C_1  and  C_4 
REMARK    4  A    between atoms: C_4  and  N_5 
REMARK    5  A    between atoms: C_4  and  C_6 
REMARK    6  A    between atoms: C_6  and  C_7 
ROOT
HETATM    1  C   UNK N   1      33.849  16.821   8.592  0.00  0.00     0.174 C 
ENDROOT
BRANCH   1   2
HETATM    2  C   UNK N   1      34.872  17.813   9.078  0.00  0.00     0.130 C 
BRANCH   2   3
HETATM    3  O   UNK N   1      35.562  17.562  10.207  0.00  0.00    -0.777 OA
HETATM    4  H   UNK N   1      35.796  16.693  10.467  0.00  0.00     0.167 HD
ENDBRANCH   2   3
BRANCH   2   5
HETATM    5  O   UNK N   1      35.115  18.948   8.392  0.00  0.00    -0.777 OA
HETATM    6  H   UNK N   1      34.976  19.797   8.762  0.00  0.00     0.167 HD
ENDBRANCH   2   5
ENDBRANCH   1   2
BRANCH   1   7
HETATM    7  N   UNK N   1      33.467  15.953   9.696  0.00  0.00    -0.417 N 
HETATM    8  H   UNK N   1      32.910  16.090  10.538  0.00  0.00     0.150 HD
HETATM    9  H   UNK N   1      33.836  15.007   9.608  0.00  0.00     0.150 HD
ENDBRANCH   1   7
BRANCH   1  10
HETATM   10  C   UNK N   1      32.618  17.556   8.049  0.00  0.00     0.073 C 
BRANCH  10  11
HETATM   11  C   UNK N   1      32.342  17.431   6.578  0.00  0.00    -0.056 A 
HETATM   12  C   UNK N   1      31.025  17.194   6.171  0.00  0.00     0.007 A 
HETATM   13  C   UNK N   1      30.715  17.058   4.816  0.00  0.00     0.001 A 
HETATM   14  C   UNK N   1      31.727  17.153   3.857  0.00  0.00     0.000 A 
HETATM   15  C   UNK N   1      33.047  17.383   4.254  0.00  0.00     0.001 A 
HETATM   16  C   UNK N   1      33.356  17.522   5.612  0.00  0.00     0.007 A 
ENDBRANCH  10  11
ENDBRANCH   1  10
TORSDOF 6
ENDMDL
MODEL 9
REMARK VINA RESULT:      -4.7      0.960      1.890
REMARK  6 active torsions:
REMARK  status: ('A' for Active; 'I' for Inactive)
REMARK    1  A    between atoms: C_1  and  O_2 
REMARK    2  A    between atoms: C_1  and  O_3 
REMARK    3  A    between atoms: C_1  and  C_4 
REMARK    4  A    between atoms: C_4  and  N_5 
REMARK    5  A    between atoms: C_4  and  C_6 
REMARK    6  A    between atoms: C_6  and  C_7 
ROOT
HETATM    1  C   UNK N   1      36.148  12.556  14.084  0.00  0.00     0.174 C 
ENDROOT
BRANCH   1   2
HETATM    2  C   UNK N   1      35.906  13.907  13.468  0.00  0.00     0.130 C 
BRANCH   2   3
HETATM    3  O   UNK N   1      36.740  14.927  13.744  0.00  0.00    -0.777 OA
HETATM    4  H   UNK N   1      37.260  14.950  14.524  0.00  0.00     0.167 HD
ENDBRANCH   2   3
BRANCH   2   5
HETATM    5  O   UNK N   1      34.867  14.110  12.630  0.00  0.00    -0.777 OA
HETATM    6  H   UNK N   1      34.987  14.325  11.727  0.00  0.00     0.167 HD
ENDBRANCH   2   5
ENDBRANCH   1   2
BRANCH   1   7
HETATM    7  N   UNK N   1      37.339  12.619  14.916  0.00  0.00    -0.417 N 
HETATM    8  H   UNK N   1      38.242  12.145  14.891  0.00  0.00     0.150 HD
HETATM    9  H   UNK N   1      37.254  13.278  15.690  0.00  0.00     0.150 HD
ENDBRANCH   1   7
BRANCH   1  10
HETATM   10  C   UNK N   1      34.938  12.136  14.927  0.00  0.00     0.073 C 
BRANCH  10  11
HETATM   11  C   UNK N   1      35.091  12.204  16.420  0.00  0.00    -0.056 A 
HETATM   12  C   UNK N   1      35.000  13.456  17.036  0.00  0.00     0.007 A 
HETATM   13  C   UNK N   1      35.147  13.578  18.420  0.00  0.00     0.001 A 
HETATM   14  C   UNK N   1      35.391  12.442  19.198  0.00  0.00     0.000 A 
HETATM   15  C   UNK N   1      35.489  11.187  18.590  0.00  0.00     0.001 A 
HETATM   16  C   UNK N   1      35.340  11.066  17.204  0.00  0.00     0.007 A 
ENDBRANCH  10  11
ENDBRANCH   1  10
TORSDOF 6
ENDMDL
