REMARK  5 active torsions:
REMARK  status: ('A' for Active; 'I' for Inactive)
REMARK    1  A    between atoms: C_5  and  C_7 
REMARK    2  A    between atoms: C_7  and  C_9 
REMARK    3  A    between atoms: C_9  and  C_10 
REMARK    4  A    between atoms: C_11  and  C_12 
REMARK    5  A    between atoms: C_12  and  C_14 
ROOT
HETATM    1  C   UNK N   1       2.148  -0.326  -0.086  0.00  0.00     0.163 C 
HETATM    2  O   UNK N   1       3.271  -0.734   0.171  0.00  0.00    -0.292 OA
ENDROOT
BRANCH   1   3
HETATM    3  C   UNK N   1       1.848   1.117   0.148  0.00  0.00     0.010 A 
HETATM    4  C   UNK N   1       0.567   1.658  -0.038  0.00  0.00     0.015 A 
HETATM    5  C   UNK N   1       0.331   3.020   0.172  0.00  0.00     0.001 A 
HETATM    6  C   UNK N   1       1.379   3.860   0.553  0.00  0.00     0.000 A 
HETATM    7  C   UNK N   1       2.660   3.337   0.736  0.00  0.00     0.001 A 
HETATM    8  C   UNK N   1       2.891   1.973   0.541  0.00  0.00     0.015 A 
ENDBRANCH   1   3
BRANCH   1   9
HETATM    9  C   UNK N   1       1.190  -1.317  -0.706  0.00  0.00     0.111 C 
BRANCH   9  10
HETATM   10  C   UNK N   1      -0.274  -1.001  -0.678  0.00  0.00    -0.015 C 
HETATM   11  C   UNK N   1      -1.214  -1.914  -0.386  0.00  0.00     0.058 C 
BRANCH  11  12
HETATM   12  C   UNK N   1      -0.948  -3.329  -0.011  0.00  0.00     0.247 C 
HETATM   13  O   UNK N   1       0.190  -3.717   0.200  0.00  0.00    -0.281 OA
BRANCH  12  14
HETATM   14  C   UNK N   1      -2.069  -4.280   0.110  0.00  0.00     0.251 C 
HETATM   15  O   UNK N   1      -3.212  -3.923  -0.118  0.00  0.00    -0.642 OA
HETATM   16  O   UNK N   1      -1.828  -5.559   0.462  0.00  0.00    -0.642 OA
ENDBRANCH  12  14
ENDBRANCH  11  12
ENDBRANCH   9  10
ENDBRANCH   1   9
TORSDOF 5
