MODEL 1
REMARK VINA RESULT:      -6.7      0.000      0.000
REMARK  5 active torsions:
REMARK  status: ('A' for Active; 'I' for Inactive)
REMARK    1  A    between atoms: C_5  and  C_7 
REMARK    2  A    between atoms: C_7  and  C_9 
REMARK    3  A    between atoms: C_9  and  C_10 
REMARK    4  A    between atoms: C_11  and  C_12 
REMARK    5  A    between atoms: C_12  and  C_14 
ROOT
HETATM    1  C   UNK N   1      27.259  24.322  -3.578  0.00  0.00     0.163 C 
HETATM    2  O   UNK N   1      26.972  23.849  -2.488  0.00  0.00    -0.292 OA
ENDROOT
BRANCH   1   3
HETATM    3  C   UNK N   1      26.450  25.468  -4.087  0.00  0.00     0.010 A 
HETATM    4  C   UNK N   1      25.745  25.411  -5.298  0.00  0.00     0.015 A 
HETATM    5  C   UNK N   1      25.014  26.514  -5.751  0.00  0.00     0.001 A 
HETATM    6  C   UNK N   1      24.997  27.694  -5.005  0.00  0.00     0.000 A 
HETATM    7  C   UNK N   1      25.698  27.768  -3.801  0.00  0.00     0.001 A 
HETATM    8  C   UNK N   1      26.415  26.660  -3.342  0.00  0.00     0.015 A 
ENDBRANCH   1   3
BRANCH   1   9
HETATM    9  C   UNK N   1      28.475  23.750  -4.269  0.00  0.00     0.111 C 
BRANCH   9  10
HETATM   10  C   UNK N   1      29.756  24.524  -4.206  0.00  0.00    -0.015 C 
HETATM   11  C   UNK N   1      30.769  24.196  -3.388  0.00  0.00     0.058 C 
BRANCH  11  12
HETATM   12  C   UNK N   1      30.790  23.019  -2.478  0.00  0.00     0.247 C 
HETATM   13  O   UNK N   1      30.225  23.055  -1.396  0.00  0.00    -0.281 OA
BRANCH  12  14
HETATM   14  C   UNK N   1      31.500  21.791  -2.882  0.00  0.00     0.251 C 
HETATM   15  O   UNK N   1      31.100  21.125  -3.821  0.00  0.00    -0.642 OA
HETATM   16  O   UNK N   1      32.608  21.407  -2.216  0.00  0.00    -0.642 OA
ENDBRANCH  12  14
ENDBRANCH  11  12
ENDBRANCH   9  10
ENDBRANCH   1   9
TORSDOF 5
ENDMDL
MODEL 2
REMARK VINA RESULT:      -6.3     17.029     18.842
REMARK  5 active torsions:
REMARK  status: ('A' for Active; 'I' for Inactive)
REMARK    1  A    between atoms: C_5  and  C_7 
REMARK    2  A    between atoms: C_7  and  C_9 
REMARK    3  A    between atoms: C_9  and  C_10 
REMARK    4  A    between atoms: C_11  and  C_12 
REMARK    5  A    between atoms: C_12  and  C_14 
ROOT
HETATM    1  C   UNK N   1      20.979  14.003   9.751  0.00  0.00     0.163 C 
HETATM    2  O   UNK N   1      19.914  13.425   9.911  0.00  0.00    -0.292 OA
ENDROOT
BRANCH   1   3
HETATM    3  C   UNK N   1      22.233  13.302  10.155  0.00  0.00     0.010 A 
HETATM    4  C   UNK N   1      23.435  13.444   9.447  0.00  0.00     0.015 A 
HETATM    5  C   UNK N   1      24.584  12.754   9.846  0.00  0.00     0.001 A 
HETATM    6  C   UNK N   1      24.537  11.899  10.949  0.00  0.00     0.000 A 
HETATM    7  C   UNK N   1      23.347  11.743  11.660  0.00  0.00     0.001 A 
HETATM    8  C   UNK N   1      22.204  12.445  11.269  0.00  0.00     0.015 A 
ENDBRANCH   1   3
BRANCH   1   9
HETATM    9  C   UNK N   1      20.926  15.350   9.069  0.00  0.00     0.111 C 
BRANCH   9  10
HETATM   10  C   UNK N   1      19.952  15.539   7.947  0.00  0.00    -0.015 C 
HETATM   11  C   UNK N   1      19.017  16.503   7.943  0.00  0.00     0.058 C 
BRANCH  11  12
HETATM   12  C   UNK N   1      18.842  17.531   9.004  0.00  0.00     0.247 C 
HETATM   13  O   UNK N   1      17.935  17.444   9.817  0.00  0.00    -0.281 OA
BRANCH  12  14
HETATM   14  C   UNK N   1      19.773  18.673   9.081  0.00  0.00     0.251 C 
HETATM   15  O   UNK N   1      19.862  19.332  10.103  0.00  0.00    -0.642 OA
HETATM   16  O   UNK N   1      20.543  18.983   8.019  0.00  0.00    -0.642 OA
ENDBRANCH  12  14
ENDBRANCH  11  12
ENDBRANCH   9  10
ENDBRANCH   1   9
TORSDOF 5
ENDMDL
MODEL 3
REMARK VINA RESULT:      -6.1     19.796     23.046
REMARK  5 active torsions:
REMARK  status: ('A' for Active; 'I' for Inactive)
REMARK    1  A    between atoms: C_5  and  C_7 
REMARK    2  A    between atoms: C_7  and  C_9 
REMARK    3  A    between atoms: C_9  and  C_10 
REMARK    4  A    between atoms: C_11  and  C_12 
REMARK    5  A    between atoms: C_12  and  C_14 
ROOT
HETATM    1  C   UNK N   1      35.162  12.997  15.165  0.00  0.00     0.163 C 
HETATM    2  O   UNK N   1      34.195  12.591  14.538  0.00  0.00    -0.292 OA
ENDROOT
BRANCH   1   3
HETATM    3  C   UNK N   1      35.282  12.622  16.605  0.00  0.00     0.010 A 
HETATM    4  C   UNK N   1      35.523  11.303  17.020  0.00  0.00     0.015 A 
HETATM    5  C   UNK N   1      35.608  10.988  18.379  0.00  0.00     0.001 A 
HETATM    6  C   UNK N   1      35.435  11.987  19.340  0.00  0.00     0.000 A 
HETATM    7  C   UNK N   1      35.188  13.302  18.942  0.00  0.00     0.001 A 
HETATM    8  C   UNK N   1      35.119  13.618  17.583  0.00  0.00     0.015 A 
ENDBRANCH   1   3
BRANCH   1   9
HETATM    9  C   UNK N   1      36.199  13.775  14.388  0.00  0.00     0.111 C 
BRANCH   9  10
HETATM   10  C   UNK N   1      36.760  13.161  13.142  0.00  0.00    -0.015 C 
HETATM   11  C   UNK N   1      36.401  13.550  11.908  0.00  0.00     0.058 C 
BRANCH  11  12
HETATM   12  C   UNK N   1      35.451  14.653  11.599  0.00  0.00     0.247 C 
HETATM   13  O   UNK N   1      34.253  14.518  11.789  0.00  0.00    -0.281 OA
BRANCH  12  14
HETATM   14  C   UNK N   1      35.957  15.928  11.058  0.00  0.00     0.251 C 
HETATM   15  O   UNK N   1      37.110  16.024  10.673  0.00  0.00    -0.642 OA
HETATM   16  O   UNK N   1      35.135  16.993  10.973  0.00  0.00    -0.642 OA
ENDBRANCH  12  14
ENDBRANCH  11  12
ENDBRANCH   9  10
ENDBRANCH   1   9
TORSDOF 5
ENDMDL
MODEL 4
REMARK VINA RESULT:      -6.0     11.332     12.974
REMARK  5 active torsions:
REMARK  status: ('A' for Active; 'I' for Inactive)
REMARK    1  A    between atoms: C_5  and  C_7 
REMARK    2  A    between atoms: C_7  and  C_9 
REMARK    3  A    between atoms: C_9  and  C_10 
REMARK    4  A    between atoms: C_11  and  C_12 
REMARK    5  A    between atoms: C_12  and  C_14 
ROOT
HETATM    1  C   UNK N   1      20.104  16.810   0.777  0.00  0.00     0.163 C 
HETATM    2  O   UNK N   1      20.386  17.435  -0.235  0.00  0.00    -0.292 OA
ENDROOT
BRANCH   1   3
HETATM    3  C   UNK N   1      20.125  15.319   0.717  0.00  0.00     0.010 A 
HETATM    4  C   UNK N   1      18.970  14.560   0.474  0.00  0.00     0.015 A 
HETATM    5  C   UNK N   1      19.028  13.163   0.446  0.00  0.00     0.001 A 
HETATM    6  C   UNK N   1      20.240  12.510   0.678  0.00  0.00     0.000 A 
HETATM    7  C   UNK N   1      21.395  13.251   0.927  0.00  0.00     0.001 A 
HETATM    8  C   UNK N   1      21.339  14.647   0.939  0.00  0.00     0.015 A 
ENDBRANCH   1   3
BRANCH   1   9
HETATM    9  C   UNK N   1      19.845  17.620   2.026  0.00  0.00     0.111 C 
BRANCH   9  10
HETATM   10  C   UNK N   1      20.813  17.499   3.163  0.00  0.00    -0.015 C 
HETATM   11  C   UNK N   1      21.395  18.561   3.744  0.00  0.00     0.058 C 
BRANCH  11  12
HETATM   12  C   UNK N   1      21.137  19.982   3.387  0.00  0.00     0.247 C 
HETATM   13  O   UNK N   1      20.225  20.603   3.909  0.00  0.00    -0.281 OA
BRANCH  12  14
HETATM   14  C   UNK N   1      21.992  20.655   2.391  0.00  0.00     0.251 C 
HETATM   15  O   UNK N   1      22.968  21.295   2.743  0.00  0.00    -0.642 OA
HETATM   16  O   UNK N   1      21.700  20.552   1.079  0.00  0.00    -0.642 OA
ENDBRANCH  12  14
ENDBRANCH  11  12
ENDBRANCH   9  10
ENDBRANCH   1   9
TORSDOF 5
ENDMDL
MODEL 5
REMARK VINA RESULT:      -5.9      8.912     11.311
REMARK  5 active torsions:
REMARK  status: ('A' for Active; 'I' for Inactive)
REMARK    1  A    between atoms: C_5  and  C_7 
REMARK    2  A    between atoms: C_7  and  C_9 
REMARK    3  A    between atoms: C_9  and  C_10 
REMARK    4  A    between atoms: C_11  and  C_12 
REMARK    5  A    between atoms: C_12  and  C_14 
ROOT
HETATM    1  C   UNK N   1      25.481  20.658   3.054  0.00  0.00     0.163 C 
HETATM    2  O   UNK N   1      26.015  21.195   2.094  0.00  0.00    -0.292 OA
ENDROOT
BRANCH   1   3
HETATM    3  C   UNK N   1      26.345  20.212   4.186  0.00  0.00     0.010 A 
HETATM    4  C   UNK N   1      26.385  20.890   5.414  0.00  0.00     0.015 A 
HETATM    5  C   UNK N   1      27.224  20.451   6.443  0.00  0.00     0.001 A 
HETATM    6  C   UNK N   1      28.046  19.340   6.249  0.00  0.00     0.000 A 
HETATM    7  C   UNK N   1      28.021  18.659   5.031  0.00  0.00     0.001 A 
HETATM    8  C   UNK N   1      27.171  19.089   4.009  0.00  0.00     0.015 A 
ENDBRANCH   1   3
BRANCH   1   9
HETATM    9  C   UNK N   1      23.972  20.580   3.038  0.00  0.00     0.111 C 
BRANCH   9  10
HETATM   10  C   UNK N   1      23.320  19.340   3.569  0.00  0.00    -0.015 C 
HETATM   11  C   UNK N   1      21.990  19.163   3.586  0.00  0.00     0.058 C 
BRANCH  11  12
HETATM   12  C   UNK N   1      20.989  20.127   3.052  0.00  0.00     0.247 C 
HETATM   13  O   UNK N   1      20.301  20.796   3.806  0.00  0.00    -0.281 OA
BRANCH  12  14
HETATM   14  C   UNK N   1      20.823  20.280   1.595  0.00  0.00     0.251 C 
HETATM   15  O   UNK N   1      20.811  21.388   1.086  0.00  0.00    -0.642 OA
HETATM   16  O   UNK N   1      20.697  19.187   0.816  0.00  0.00    -0.642 OA
ENDBRANCH  12  14
ENDBRANCH  11  12
ENDBRANCH   9  10
ENDBRANCH   1   9
TORSDOF 5
ENDMDL
MODEL 6
REMARK VINA RESULT:      -5.8     16.742     18.562
REMARK  5 active torsions:
REMARK  status: ('A' for Active; 'I' for Inactive)
REMARK    1  A    between atoms: C_5  and  C_7 
REMARK    2  A    between atoms: C_7  and  C_9 
REMARK    3  A    between atoms: C_9  and  C_10 
REMARK    4  A    between atoms: C_11  and  C_12 
REMARK    5  A    between atoms: C_12  and  C_14 
ROOT
HETATM    1  C   UNK N   1      21.411  13.419   8.648  0.00  0.00     0.163 C 
HETATM    2  O   UNK N   1      20.921  12.619   7.864  0.00  0.00    -0.292 OA
ENDROOT
BRANCH   1   3
HETATM    3  C   UNK N   1      22.381  12.912   9.663  0.00  0.00     0.010 A 
HETATM    4  C   UNK N   1      21.974  12.422  10.913  0.00  0.00     0.015 A 
HETATM    5  C   UNK N   1      22.916  11.975  11.845  0.00  0.00     0.001 A 
HETATM    6  C   UNK N   1      24.277  12.030  11.542  0.00  0.00     0.000 A 
HETATM    7  C   UNK N   1      24.698  12.520  10.305  0.00  0.00     0.001 A 
HETATM    8  C   UNK N   1      23.755  12.951   9.369  0.00  0.00     0.015 A 
ENDBRANCH   1   3
BRANCH   1   9
HETATM    9  C   UNK N   1      21.048  14.873   8.452  0.00  0.00     0.111 C 
BRANCH   9  10
HETATM   10  C   UNK N   1      20.080  15.222   7.364  0.00  0.00    -0.015 C 
HETATM   11  C   UNK N   1      19.670  16.478   7.125  0.00  0.00     0.058 C 
BRANCH  11  12
HETATM   12  C   UNK N   1      20.139  17.687   7.854  0.00  0.00     0.247 C 
HETATM   13  O   UNK N   1      21.095  18.330   7.451  0.00  0.00    -0.281 OA
BRANCH  12  14
HETATM   14  C   UNK N   1      19.444  18.119   9.081  0.00  0.00     0.251 C 
HETATM   15  O   UNK N   1      18.392  17.601   9.414  0.00  0.00    -0.642 OA
HETATM   16  O   UNK N   1      19.982  19.087   9.851  0.00  0.00    -0.642 OA
ENDBRANCH  12  14
ENDBRANCH  11  12
ENDBRANCH   9  10
ENDBRANCH   1   9
TORSDOF 5
ENDMDL
MODEL 7
REMARK VINA RESULT:      -5.7      1.477      2.452
REMARK  5 active torsions:
REMARK  status: ('A' for Active; 'I' for Inactive)
REMARK    1  A    between atoms: C_5  and  C_7 
REMARK    2  A    between atoms: C_7  and  C_9 
REMARK    3  A    between atoms: C_9  and  C_10 
REMARK    4  A    between atoms: C_11  and  C_12 
REMARK    5  A    between atoms: C_12  and  C_14 
ROOT
HETATM    1  C   UNK N   1      26.281  23.918  -5.743  0.00  0.00     0.163 C 
HETATM    2  O   UNK N   1      25.348  23.329  -6.270  0.00  0.00    -0.292 OA
ENDROOT
BRANCH   1   3
HETATM    3  C   UNK N   1      26.019  25.251  -5.126  0.00  0.00     0.010 A 
HETATM    4  C   UNK N   1      26.393  25.555  -3.808  0.00  0.00     0.015 A 
HETATM    5  C   UNK N   1      26.111  26.810  -3.259  0.00  0.00     0.001 A 
HETATM    6  C   UNK N   1      25.435  27.768  -4.017  0.00  0.00     0.000 A 
HETATM    7  C   UNK N   1      25.052  27.477  -5.327  0.00  0.00     0.001 A 
HETATM    8  C   UNK N   1      25.348  26.229  -5.879  0.00  0.00     0.015 A 
ENDBRANCH   1   3
BRANCH   1   9
HETATM    9  C   UNK N   1      27.603  23.187  -5.691  0.00  0.00     0.111 C 
BRANCH   9  10
HETATM   10  C   UNK N   1      28.860  24.000  -5.622  0.00  0.00    -0.015 C 
HETATM   11  C   UNK N   1      29.834  23.766  -4.728  0.00  0.00     0.058 C 
BRANCH  11  12
HETATM   12  C   UNK N   1      29.833  22.666  -3.727  0.00  0.00     0.247 C 
HETATM   13  O   UNK N   1      30.136  21.528  -4.049  0.00  0.00    -0.281 OA
BRANCH  12  14
HETATM   14  C   UNK N   1      29.464  22.946  -2.327  0.00  0.00     0.251 C 
HETATM   15  O   UNK N   1      28.294  23.071  -2.008  0.00  0.00    -0.642 OA
HETATM   16  O   UNK N   1      30.426  23.052  -1.389  0.00  0.00    -0.642 OA
ENDBRANCH  12  14
ENDBRANCH  11  12
ENDBRANCH   9  10
ENDBRANCH   1   9
TORSDOF 5
ENDMDL
MODEL 8
REMARK VINA RESULT:      -5.6      2.733      6.356
REMARK  5 active torsions:
REMARK  status: ('A' for Active; 'I' for Inactive)
REMARK    1  A    between atoms: C_5  and  C_7 
REMARK    2  A    between atoms: C_7  and  C_9 
REMARK    3  A    between atoms: C_9  and  C_10 
REMARK    4  A    between atoms: C_11  and  C_12 
REMARK    5  A    between atoms: C_12  and  C_14 
ROOT
HETATM    1  C   UNK N   1      27.163  24.566  -4.055  0.00  0.00     0.163 C 
HETATM    2  O   UNK N   1      26.251  24.483  -3.246  0.00  0.00    -0.292 OA
ENDROOT
BRANCH   1   3
HETATM    3  C   UNK N   1      28.515  24.078  -3.652  0.00  0.00     0.010 A 
HETATM    4  C   UNK N   1      29.652  24.270  -4.451  0.00  0.00     0.015 A 
HETATM    5  C   UNK N   1      30.898  23.780  -4.047  0.00  0.00     0.001 A 
HETATM    6  C   UNK N   1      31.016  23.076  -2.847  0.00  0.00     0.000 A 
HETATM    7  C   UNK N   1      29.892  22.872  -2.045  0.00  0.00     0.001 A 
HETATM    8  C   UNK N   1      28.651  23.376  -2.442  0.00  0.00     0.015 A 
ENDBRANCH   1   3
BRANCH   1   9
HETATM    9  C   UNK N   1      26.806  25.079  -5.431  0.00  0.00     0.111 C 
BRANCH   9  10
HETATM   10  C   UNK N   1      25.409  25.564  -5.667  0.00  0.00    -0.015 C 
HETATM   11  C   UNK N   1      25.042  26.845  -5.503  0.00  0.00     0.058 C 
BRANCH  11  12
HETATM   12  C   UNK N   1      25.953  27.956  -5.117  0.00  0.00     0.247 C 
HETATM   13  O   UNK N   1      26.732  28.436  -5.925  0.00  0.00    -0.281 OA
BRANCH  12  14
HETATM   14  C   UNK N   1      25.921  28.489  -3.742  0.00  0.00     0.251 C 
HETATM   15  O   UNK N   1      25.528  27.797  -2.818  0.00  0.00    -0.642 OA
HETATM   16  O   UNK N   1      26.341  29.747  -3.500  0.00  0.00    -0.642 OA
ENDBRANCH  12  14
ENDBRANCH  11  12
ENDBRANCH   9  10
ENDBRANCH   1   9
TORSDOF 5
ENDMDL
MODEL 9
REMARK VINA RESULT:      -5.6     16.332     18.102
REMARK  5 active torsions:
REMARK  status: ('A' for Active; 'I' for Inactive)
REMARK    1  A    between atoms: C_5  and  C_7 
REMARK    2  A    between atoms: C_7  and  C_9 
REMARK    3  A    between atoms: C_9  and  C_10 
REMARK    4  A    between atoms: C_11  and  C_12 
REMARK    5  A    between atoms: C_12  and  C_14 
ROOT
HETATM    1  C   UNK N   1      21.194  13.832   9.175  0.00  0.00     0.163 C 
HETATM    2  O   UNK N   1      20.478  13.157   8.450  0.00  0.00    -0.292 OA
ENDROOT
BRANCH   1   3
HETATM    3  C   UNK N   1      22.279  13.146   9.936  0.00  0.00     0.010 A 
HETATM    4  C   UNK N   1      22.034  12.447  11.128  0.00  0.00     0.015 A 
HETATM    5  C   UNK N   1      23.081  11.834  11.823  0.00  0.00     0.001 A 
HETATM    6  C   UNK N   1      24.388  11.930  11.343  0.00  0.00     0.000 A 
HETATM    7  C   UNK N   1      24.648  12.627  10.162  0.00  0.00     0.001 A 
HETATM    8  C   UNK N   1      23.599  13.225   9.460  0.00  0.00     0.015 A 
ENDBRANCH   1   3
BRANCH   1   9
HETATM    9  C   UNK N   1      20.964  15.326   9.158  0.00  0.00     0.111 C 
BRANCH   9  10
HETATM   10  C   UNK N   1      19.609  15.830   8.765  0.00  0.00    -0.015 C 
HETATM   11  C   UNK N   1      19.370  16.449   7.598  0.00  0.00     0.058 C 
BRANCH  11  12
HETATM   12  C   UNK N   1      20.377  16.682   6.528  0.00  0.00     0.247 C 
HETATM   13  O   UNK N   1      20.518  15.881   5.617  0.00  0.00    -0.281 OA
BRANCH  12  14
HETATM   14  C   UNK N   1      21.219  17.892   6.562  0.00  0.00     0.251 C 
HETATM   15  O   UNK N   1      22.233  17.961   5.890  0.00  0.00    -0.642 OA
HETATM   16  O   UNK N   1      20.857  18.939   7.331  0.00  0.00    -0.642 OA
ENDBRANCH  12  14
ENDBRANCH  11  12
ENDBRANCH   9  10
ENDBRANCH   1   9
TORSDOF 5
ENDMDL
