MODEL 1
REMARK VINA RESULT:      -4.6      0.000      0.000
REMARK  8 active torsions:
REMARK  status: ('A' for Active; 'I' for Inactive)
REMARK    1  A    between atoms: C_2  and  C_3 
REMARK    2  A    between atoms: C_3  and  C_4 
REMARK    3  A    between atoms: C_4  and  C_5 
REMARK    4  A    between atoms: C_5  and  C_6 
REMARK    5  A    between atoms: C_6  and  C_7 
REMARK    6  A    between atoms: C_7  and  P_9 
REMARK    7  A    between atoms: P_9  and  O_11 
REMARK    8  A    between atoms: P_9  and  O_12 
ROOT
HETATM    1  C   UNK N   1      23.273  20.095   3.231  0.00  0.00     0.137 C 
HETATM    2  O   UNK N   1      23.164  21.248   2.843  0.00  0.00    -0.297 OA
ENDROOT
BRANCH   1   3
HETATM    3  C   UNK N   1      24.632  19.493   3.469  0.00  0.00     0.079 C 
BRANCH   3   4
HETATM    4  C   UNK N   1      25.738  20.430   3.002  0.00  0.00     0.007 C 
BRANCH   4   5
HETATM    5  C   UNK N   1      26.940  20.366   3.919  0.00  0.00     0.000 C 
BRANCH   5   6
HETATM    6  C   UNK N   1      26.447  20.416   5.352  0.00  0.00    -0.005 C 
HETATM    7  C   UNK N   1      27.164  21.515   6.108  0.00  0.00     0.005 C 
ENDBRANCH   5   6
ENDBRANCH   4   5
ENDBRANCH   3   4
ENDBRANCH   1   3
BRANCH   1   8
HETATM    8  C   UNK N   1      22.036  19.291   3.528  0.00  0.00     0.203 C 
BRANCH   8   9
HETATM    9  P   UNK N   1      20.629  19.726   2.370  0.00  0.00     0.242 P 
HETATM   10  O   UNK N   1      19.186  19.254   2.690  0.00  0.00    -0.653 OA
BRANCH   9  11
HETATM   11  O   UNK N   1      20.870  18.033   2.663  0.00  0.00    -0.329 OA
HETATM   12  H   UNK N   1      21.374  17.410   2.117  0.00  0.00     0.220 HD
ENDBRANCH   9  11
BRANCH   9  13
HETATM   13  O   UNK N   1      20.389  20.545   3.885  0.00  0.00    -0.329 OA
HETATM   14  H   UNK N   1      19.642  20.850   4.422  0.00  0.00     0.220 HD
ENDBRANCH   9  13
ENDBRANCH   8   9
ENDBRANCH   1   8
TORSDOF 8
ENDMDL
MODEL 2
REMARK VINA RESULT:      -4.5      9.457     11.117
REMARK  8 active torsions:
REMARK  status: ('A' for Active; 'I' for Inactive)
REMARK    1  A    between atoms: C_2  and  C_3 
REMARK    2  A    between atoms: C_3  and  C_4 
REMARK    3  A    between atoms: C_4  and  C_5 
REMARK    4  A    between atoms: C_5  and  C_6 
REMARK    5  A    between atoms: C_6  and  C_7 
REMARK    6  A    between atoms: C_7  and  P_9 
REMARK    7  A    between atoms: P_9  and  O_11 
REMARK    8  A    between atoms: P_9  and  O_12 
ROOT
HETATM    1  C   UNK N   1      28.230  23.993  -3.268  0.00  0.00     0.137 C 
HETATM    2  O   UNK N   1      27.554  23.553  -2.352  0.00  0.00    -0.297 OA
ENDROOT
BRANCH   1   3
HETATM    3  C   UNK N   1      27.575  24.560  -4.499  0.00  0.00     0.079 C 
BRANCH   3   4
HETATM    4  C   UNK N   1      26.261  25.250  -4.154  0.00  0.00     0.007 C 
BRANCH   4   5
HETATM    5  C   UNK N   1      26.494  26.654  -3.638  0.00  0.00     0.000 C 
BRANCH   5   6
HETATM    6  C   UNK N   1      25.543  27.589  -4.358  0.00  0.00    -0.005 C 
HETATM    7  C   UNK N   1      24.944  26.894  -5.562  0.00  0.00     0.005 C 
ENDBRANCH   5   6
ENDBRANCH   4   5
ENDBRANCH   3   4
ENDBRANCH   1   3
BRANCH   1   8
HETATM    8  C   UNK N   1      29.729  24.022  -3.139  0.00  0.00     0.203 C 
BRANCH   8   9
HETATM    9  P   UNK N   1      30.440  22.304  -2.908  0.00  0.00     0.242 P 
HETATM   10  O   UNK N   1      31.873  22.127  -2.340  0.00  0.00    -0.653 OA
BRANCH   9  11
HETATM   11  O   UNK N   1      31.356  23.370  -3.926  0.00  0.00    -0.329 OA
HETATM   12  H   UNK N   1      31.016  23.943  -4.632  0.00  0.00     0.220 HD
ENDBRANCH   9  11
BRANCH   9  13
HETATM   13  O   UNK N   1      30.224  23.041  -1.349  0.00  0.00    -0.329 OA
HETATM   14  H   UNK N   1      29.980  23.910  -0.996  0.00  0.00     0.220 HD
ENDBRANCH   9  13
ENDBRANCH   8   9
ENDBRANCH   1   8
TORSDOF 8
ENDMDL
MODEL 3
REMARK VINA RESULT:      -4.5     10.430     11.593
REMARK  8 active torsions:
REMARK  status: ('A' for Active; 'I' for Inactive)
REMARK    1  A    between atoms: C_2  and  C_3 
REMARK    2  A    between atoms: C_3  and  C_4 
REMARK    3  A    between atoms: C_4  and  C_5 
REMARK    4  A    between atoms: C_5  and  C_6 
REMARK    5  A    between atoms: C_6  and  C_7 
REMARK    6  A    between atoms: C_7  and  P_9 
REMARK    7  A    between atoms: P_9  and  O_11 
REMARK    8  A    between atoms: P_9  and  O_12 
ROOT
HETATM    1  C   UNK N   1      33.142  17.665   6.420  0.00  0.00     0.137 C 
HETATM    2  O   UNK N   1      34.105  17.675   5.671  0.00  0.00    -0.297 OA
ENDROOT
BRANCH   1   3
HETATM    3  C   UNK N   1      31.798  17.190   5.934  0.00  0.00     0.079 C 
BRANCH   3   4
HETATM    4  C   UNK N   1      30.972  16.616   7.078  0.00  0.00     0.007 C 
BRANCH   4   5
HETATM    5  C   UNK N   1      29.733  17.446   7.335  0.00  0.00     0.000 C 
BRANCH   5   6
HETATM    6  C   UNK N   1      29.647  17.725   8.822  0.00  0.00    -0.005 C 
HETATM    7  C   UNK N   1      28.206  17.951   9.225  0.00  0.00     0.005 C 
ENDBRANCH   5   6
ENDBRANCH   4   5
ENDBRANCH   3   4
ENDBRANCH   1   3
BRANCH   1   8
HETATM    8  C   UNK N   1      33.314  18.077   7.857  0.00  0.00     0.203 C 
BRANCH   8   9
HETATM    9  P   UNK N   1      34.790  17.238   8.648  0.00  0.00     0.242 P 
HETATM   10  O   UNK N   1      35.329  17.740  10.014  0.00  0.00    -0.653 OA
BRANCH   9  11
HETATM   11  O   UNK N   1      34.956  18.941   8.357  0.00  0.00    -0.329 OA
HETATM   12  H   UNK N   1      35.703  19.507   8.605  0.00  0.00     0.220 HD
ENDBRANCH   9  11
BRANCH   9  13
HETATM   13  O   UNK N   1      33.385  16.956   9.632  0.00  0.00    -0.329 OA
HETATM   14  H   UNK N   1      33.138  17.035  10.566  0.00  0.00     0.220 HD
ENDBRANCH   9  13
ENDBRANCH   8   9
ENDBRANCH   1   8
TORSDOF 8
ENDMDL
MODEL 4
REMARK VINA RESULT:      -4.4     16.464     18.003
REMARK  8 active torsions:
REMARK  status: ('A' for Active; 'I' for Inactive)
REMARK    1  A    between atoms: C_2  and  C_3 
REMARK    2  A    between atoms: C_3  and  C_4 
REMARK    3  A    between atoms: C_4  and  C_5 
REMARK    4  A    between atoms: C_5  and  C_6 
REMARK    5  A    between atoms: C_6  and  C_7 
REMARK    6  A    between atoms: C_7  and  P_9 
REMARK    7  A    between atoms: P_9  and  O_11 
REMARK    8  A    between atoms: P_9  and  O_12 
ROOT
HETATM    1  C   UNK N   1      35.618  13.888  13.317  0.00  0.00     0.137 C 
HETATM    2  O   UNK N   1      34.715  13.224  12.833  0.00  0.00    -0.297 OA
ENDROOT
BRANCH   1   3
HETATM    3  C   UNK N   1      36.093  13.626  14.722  0.00  0.00     0.079 C 
BRANCH   3   4
HETATM    4  C   UNK N   1      34.959  13.106  15.597  0.00  0.00     0.007 C 
BRANCH   4   5
HETATM    5  C   UNK N   1      35.487  12.500  16.879  0.00  0.00     0.000 C 
BRANCH   5   6
HETATM    6  C   UNK N   1      35.123  13.422  18.026  0.00  0.00    -0.005 C 
HETATM    7  C   UNK N   1      35.223  12.679  19.341  0.00  0.00     0.005 C 
ENDBRANCH   5   6
ENDBRANCH   4   5
ENDBRANCH   3   4
ENDBRANCH   1   3
BRANCH   1   8
HETATM    8  C   UNK N   1      36.300  14.937  12.481  0.00  0.00     0.203 C 
BRANCH   8   9
HETATM    9  P   UNK N   1      36.482  14.393  10.698  0.00  0.00     0.242 P 
HETATM   10  O   UNK N   1      37.810  14.654   9.939  0.00  0.00    -0.653 OA
BRANCH   9  11
HETATM   11  O   UNK N   1      36.735  16.083  11.002  0.00  0.00    -0.329 OA
HETATM   12  H   UNK N   1      37.287  16.694  10.489  0.00  0.00     0.220 HD
ENDBRANCH   9  11
BRANCH   9  13
HETATM   13  O   UNK N   1      37.566  13.461  11.686  0.00  0.00    -0.329 OA
HETATM   14  H   UNK N   1      37.978  12.584  11.666  0.00  0.00     0.220 HD
ENDBRANCH   9  13
ENDBRANCH   8   9
ENDBRANCH   1   8
TORSDOF 8
ENDMDL
MODEL 5
REMARK VINA RESULT:      -4.2      7.952      8.816
REMARK  8 active torsions:
REMARK  status: ('A' for Active; 'I' for Inactive)
REMARK    1  A    between atoms: C_2  and  C_3 
REMARK    2  A    between atoms: C_3  and  C_4 
REMARK    3  A    between atoms: C_4  and  C_5 
REMARK    4  A    between atoms: C_5  and  C_6 
REMARK    5  A    between atoms: C_6  and  C_7 
REMARK    6  A    between atoms: C_7  and  P_9 
REMARK    7  A    between atoms: P_9  and  O_11 
REMARK    8  A    between atoms: P_9  and  O_12 
ROOT
HETATM    1  C   UNK N   1      20.749  14.407   8.831  0.00  0.00     0.137 C 
HETATM    2  O   UNK N   1      20.250  13.824   7.882  0.00  0.00    -0.297 OA
ENDROOT
BRANCH   1   3
HETATM    3  C   UNK N   1      21.526  13.647   9.873  0.00  0.00     0.079 C 
BRANCH   3   4
HETATM    4  C   UNK N   1      22.244  12.451   9.260  0.00  0.00     0.007 C 
BRANCH   4   5
HETATM    5  C   UNK N   1      22.693  11.473  10.324  0.00  0.00     0.000 C 
BRANCH   5   6
HETATM    6  C   UNK N   1      23.529  12.226  11.340  0.00  0.00    -0.005 C 
HETATM    7  C   UNK N   1      23.104  11.849  12.743  0.00  0.00     0.005 C 
ENDBRANCH   5   6
ENDBRANCH   4   5
ENDBRANCH   3   4
ENDBRANCH   1   3
BRANCH   1   8
HETATM    8  C   UNK N   1      20.636  15.904   8.927  0.00  0.00     0.203 C 
BRANCH   8   9
HETATM    9  P   UNK N   1      20.400  16.693   7.245  0.00  0.00     0.242 P 
HETATM   10  O   UNK N   1      21.285  17.895   6.820  0.00  0.00    -0.653 OA
BRANCH   9  11
HETATM   11  O   UNK N   1      20.228  17.754   8.607  0.00  0.00    -0.329 OA
HETATM   12  H   UNK N   1      20.936  18.103   9.171  0.00  0.00     0.220 HD
ENDBRANCH   9  11
BRANCH   9  13
HETATM   13  O   UNK N   1      21.963  15.933   7.300  0.00  0.00    -0.329 OA
HETATM   14  H   UNK N   1      22.885  16.202   7.433  0.00  0.00     0.220 HD
ENDBRANCH   9  13
ENDBRANCH   8   9
ENDBRANCH   1   8
TORSDOF 8
ENDMDL
MODEL 6
REMARK VINA RESULT:      -4.2     12.837     14.343
REMARK  8 active torsions:
REMARK  status: ('A' for Active; 'I' for Inactive)
REMARK    1  A    between atoms: C_2  and  C_3 
REMARK    2  A    between atoms: C_3  and  C_4 
REMARK    3  A    between atoms: C_4  and  C_5 
REMARK    4  A    between atoms: C_5  and  C_6 
REMARK    5  A    between atoms: C_6  and  C_7 
REMARK    6  A    between atoms: C_7  and  P_9 
REMARK    7  A    between atoms: P_9  and  O_11 
REMARK    8  A    between atoms: P_9  and  O_12 
ROOT
HETATM    1  C   UNK N   1      34.982  16.535  10.201  0.00  0.00     0.137 C 
HETATM    2  O   UNK N   1      35.700  17.517  10.298  0.00  0.00    -0.297 OA
ENDROOT
BRANCH   1   3
HETATM    3  C   UNK N   1      34.294  16.216   8.900  0.00  0.00     0.079 C 
BRANCH   3   4
HETATM    4  C   UNK N   1      34.399  17.379   7.923  0.00  0.00     0.007 C 
BRANCH   4   5
HETATM    5  C   UNK N   1      33.171  18.261   7.980  0.00  0.00     0.000 C 
BRANCH   5   6
HETATM    6  C   UNK N   1      31.958  17.374   8.178  0.00  0.00    -0.005 C 
HETATM    7  C   UNK N   1      30.832  18.167   8.808  0.00  0.00     0.005 C 
ENDBRANCH   5   6
ENDBRANCH   4   5
ENDBRANCH   3   4
ENDBRANCH   1   3
BRANCH   1   8
HETATM    8  C   UNK N   1      34.832  15.605  11.374  0.00  0.00     0.203 C 
BRANCH   8   9
HETATM    9  P   UNK N   1      35.850  14.048  11.163  0.00  0.00     0.242 P 
HETATM   10  O   UNK N   1      36.511  13.378  12.397  0.00  0.00    -0.653 OA
BRANCH   9  11
HETATM   11  O   UNK N   1      36.669  15.391  11.896  0.00  0.00    -0.329 OA
HETATM   12  H   UNK N   1      36.866  16.250  11.490  0.00  0.00     0.220 HD
ENDBRANCH   9  11
BRANCH   9  13
HETATM   13  O   UNK N   1      34.424  13.670  12.082  0.00  0.00    -0.329 OA
HETATM   14  H   UNK N   1      33.612  13.154  11.963  0.00  0.00     0.220 HD
ENDBRANCH   9  13
ENDBRANCH   8   9
ENDBRANCH   1   8
TORSDOF 8
ENDMDL
MODEL 7
REMARK VINA RESULT:      -4.2     17.311     18.808
REMARK  8 active torsions:
REMARK  status: ('A' for Active; 'I' for Inactive)
REMARK    1  A    between atoms: C_2  and  C_3 
REMARK    2  A    between atoms: C_3  and  C_4 
REMARK    3  A    between atoms: C_4  and  C_5 
REMARK    4  A    between atoms: C_5  and  C_6 
REMARK    5  A    between atoms: C_6  and  C_7 
REMARK    6  A    between atoms: C_7  and  P_9 
REMARK    7  A    between atoms: P_9  and  O_11 
REMARK    8  A    between atoms: P_9  and  O_12 
ROOT
HETATM    1  C   UNK N   1      36.597  13.948  15.085  0.00  0.00     0.137 C 
HETATM    2  O   UNK N   1      37.429  14.677  15.600  0.00  0.00    -0.297 OA
ENDROOT
BRANCH   1   3
HETATM    3  C   UNK N   1      36.016  12.788  15.849  0.00  0.00     0.079 C 
BRANCH   3   4
HETATM    4  C   UNK N   1      35.275  13.266  17.092  0.00  0.00     0.007 C 
BRANCH   4   5
HETATM    5  C   UNK N   1      35.219  12.185  18.150  0.00  0.00     0.000 C 
BRANCH   5   6
HETATM    6  C   UNK N   1      35.657  10.878  17.519  0.00  0.00    -0.005 C 
HETATM    7  C   UNK N   1      34.769   9.748  17.994  0.00  0.00     0.005 C 
ENDBRANCH   5   6
ENDBRANCH   4   5
ENDBRANCH   3   4
ENDBRANCH   1   3
BRANCH   1   8
HETATM    8  C   UNK N   1      36.107  14.247  13.694  0.00  0.00     0.203 C 
BRANCH   8   9
HETATM    9  P   UNK N   1      35.937  12.689  12.667  0.00  0.00     0.242 P 
HETATM   10  O   UNK N   1      35.646  12.790  11.146  0.00  0.00    -0.653 OA
BRANCH   9  11
HETATM   11  O   UNK N   1      34.574  13.764  12.640  0.00  0.00    -0.329 OA
HETATM   12  H   UNK N   1      34.051  14.027  11.866  0.00  0.00     0.220 HD
ENDBRANCH   9  11
BRANCH   9  13
HETATM   13  O   UNK N   1      37.359  13.549  12.159  0.00  0.00    -0.329 OA
HETATM   14  H   UNK N   1      38.046  13.459  11.480  0.00  0.00     0.220 HD
ENDBRANCH   9  13
ENDBRANCH   8   9
ENDBRANCH   1   8
TORSDOF 8
ENDMDL
MODEL 8
REMARK VINA RESULT:      -4.2     11.939     13.260
REMARK  8 active torsions:
REMARK  status: ('A' for Active; 'I' for Inactive)
REMARK    1  A    between atoms: C_2  and  C_3 
REMARK    2  A    between atoms: C_3  and  C_4 
REMARK    3  A    between atoms: C_4  and  C_5 
REMARK    4  A    between atoms: C_5  and  C_6 
REMARK    5  A    between atoms: C_6  and  C_7 
REMARK    6  A    between atoms: C_7  and  P_9 
REMARK    7  A    between atoms: P_9  and  O_11 
REMARK    8  A    between atoms: P_9  and  O_12 
ROOT
HETATM    1  C   UNK N   1      34.645  17.255   9.291  0.00  0.00     0.137 C 
HETATM    2  O   UNK N   1      35.569  17.679   9.967  0.00  0.00    -0.297 OA
ENDROOT
BRANCH   1   3
HETATM    3  C   UNK N   1      34.241  17.958   8.022  0.00  0.00     0.079 C 
BRANCH   3   4
HETATM    4  C   UNK N   1      33.520  17.008   7.073  0.00  0.00     0.007 C 
BRANCH   4   5
HETATM    5  C   UNK N   1      33.599  17.492   5.642  0.00  0.00     0.000 C 
BRANCH   5   6
HETATM    6  C   UNK N   1      32.216  17.391   5.029  0.00  0.00    -0.005 C 
HETATM    7  C   UNK N   1      32.322  17.304   3.522  0.00  0.00     0.005 C 
ENDBRANCH   5   6
ENDBRANCH   4   5
ENDBRANCH   3   4
ENDBRANCH   1   3
BRANCH   1   8
HETATM    8  C   UNK N   1      33.945  15.988   9.699  0.00  0.00     0.203 C 
BRANCH   8   9
HETATM    9  P   UNK N   1      34.877  15.081  11.047  0.00  0.00     0.242 P 
HETATM   10  O   UNK N   1      34.766  13.538  11.165  0.00  0.00    -0.653 OA
BRANCH   9  11
HETATM   11  O   UNK N   1      33.157  14.851  11.033  0.00  0.00    -0.329 OA
HETATM   12  H   UNK N   1      32.477  15.525  10.877  0.00  0.00     0.220 HD
ENDBRANCH   9  11
BRANCH   9  13
HETATM   13  O   UNK N   1      35.532  14.627   9.502  0.00  0.00    -0.329 OA
HETATM   14  H   UNK N   1      36.243  14.061   9.165  0.00  0.00     0.220 HD
ENDBRANCH   9  13
ENDBRANCH   8   9
ENDBRANCH   1   8
TORSDOF 8
ENDMDL
MODEL 9
REMARK VINA RESULT:      -4.2     16.319     17.821
REMARK  8 active torsions:
REMARK  status: ('A' for Active; 'I' for Inactive)
REMARK    1  A    between atoms: C_2  and  C_3 
REMARK    2  A    between atoms: C_3  and  C_4 
REMARK    3  A    between atoms: C_4  and  C_5 
REMARK    4  A    between atoms: C_5  and  C_6 
REMARK    5  A    between atoms: C_6  and  C_7 
REMARK    6  A    between atoms: C_7  and  P_9 
REMARK    7  A    between atoms: P_9  and  O_11 
REMARK    8  A    between atoms: P_9  and  O_12 
ROOT
HETATM    1  C   UNK N   1      36.631  13.037  13.706  0.00  0.00     0.137 C 
HETATM    2  O   UNK N   1      36.895  12.150  12.910  0.00  0.00    -0.297 OA
ENDROOT
BRANCH   1   3
HETATM    3  C   UNK N   1      36.855  12.834  15.181  0.00  0.00     0.079 C 
BRANCH   3   4
HETATM    4  C   UNK N   1      35.680  12.105  15.820  0.00  0.00     0.007 C 
BRANCH   4   5
HETATM    5  C   UNK N   1      34.676  13.078  16.399  0.00  0.00     0.000 C 
BRANCH   5   6
HETATM    6  C   UNK N   1      35.207  13.573  17.730  0.00  0.00    -0.005 C 
HETATM    7  C   UNK N   1      35.279  12.429  18.718  0.00  0.00     0.005 C 
ENDBRANCH   5   6
ENDBRANCH   4   5
ENDBRANCH   3   4
ENDBRANCH   1   3
BRANCH   1   8
HETATM    8  C   UNK N   1      36.132  14.363  13.201  0.00  0.00     0.203 C 
BRANCH   8   9
HETATM    9  P   UNK N   1      35.363  14.215  11.499  0.00  0.00     0.242 P 
HETATM   10  O   UNK N   1      33.952  14.803  11.230  0.00  0.00    -0.653 OA
BRANCH   9  11
HETATM   11  O   UNK N   1      34.443  13.535  12.805  0.00  0.00    -0.329 OA
HETATM   12  H   UNK N   1      33.951  12.699  12.801  0.00  0.00     0.220 HD
ENDBRANCH   9  11
BRANCH   9  13
HETATM   13  O   UNK N   1      35.682  15.891  11.831  0.00  0.00    -0.329 OA
HETATM   14  H   UNK N   1      36.058  16.419  12.553  0.00  0.00     0.220 HD
ENDBRANCH   9  13
ENDBRANCH   8   9
ENDBRANCH   1   8
TORSDOF 8
ENDMDL
