REMARK  8 active torsions:
REMARK  status: ('A' for Active; 'I' for Inactive)
REMARK    1  A    between atoms: C_2  and  C_3 
REMARK    2  A    between atoms: C_3  and  C_4 
REMARK    3  A    between atoms: C_4  and  C_5 
REMARK    4  A    between atoms: C_5  and  C_6 
REMARK    5  A    between atoms: C_6  and  C_7 
REMARK    6  A    between atoms: C_7  and  P_9 
REMARK    7  A    between atoms: P_9  and  O_11 
REMARK    8  A    between atoms: P_9  and  O_12 
ROOT
HETATM    1  C   UNK N   1       0.863   0.078  -0.145  0.00  0.00     0.137 C 
HETATM    2  O   UNK N   1       0.676   1.271   0.033  0.00  0.00    -0.297 OA
ENDROOT
BRANCH   1   3
HETATM    3  C   UNK N   1      -0.273  -0.902  -0.019  0.00  0.00     0.079 C 
BRANCH   3   4
HETATM    4  C   UNK N   1      -1.575  -0.192   0.330  0.00  0.00     0.007 C 
BRANCH   4   5
HETATM    5  C   UNK N   1      -2.776  -1.058   0.018  0.00  0.00     0.000 C 
BRANCH   5   6
HETATM    6  C   UNK N   1      -4.023  -0.206   0.146  0.00  0.00    -0.005 C 
HETATM    7  C   UNK N   1      -5.255  -1.046  -0.116  0.00  0.00     0.005 C 
ENDBRANCH   5   6
ENDBRANCH   4   5
ENDBRANCH   3   4
ENDBRANCH   1   3
BRANCH   1   8
HETATM    8  C   UNK N   1       2.228  -0.408  -0.551  0.00  0.00     0.203 C 
BRANCH   8   9
HETATM    9  P   UNK N   1       3.542   0.098   0.684  0.00  0.00     0.242 P 
HETATM   10  O   UNK N   1       5.023   0.217   0.237  0.00  0.00    -0.653 OA
BRANCH   9  11
HETATM   11  O   UNK N   1       3.795  -1.427  -0.105  0.00  0.00    -0.329 OA
HETATM   12  H   UNK N   1       3.128  -1.976  -0.546  0.00  0.00     0.220 HD
ENDBRANCH   9  11
BRANCH   9  13
HETATM   13  O   UNK N   1       3.381   1.347  -0.514  0.00  0.00    -0.329 OA
HETATM   14  H   UNK N   1       3.939   1.774  -1.182  0.00  0.00     0.220 HD
ENDBRANCH   9  13
ENDBRANCH   8   9
ENDBRANCH   1   8
TORSDOF 8
