MODEL 1
REMARK VINA RESULT:      -5.2      0.000      0.000
REMARK  5 active torsions:
REMARK  status: ('A' for Active; 'I' for Inactive)
REMARK    1  A    between atoms: C_2  and  N_1 
REMARK    2  A    between atoms: C_2  and  C_3 
REMARK    3  A    between atoms: C_2  and  C_5 
REMARK    4  A    between atoms: C_5  and  C_6 
REMARK    5  A    between atoms: C_6  and  C_7 
ROOT
HETATM    1  C   UNK N   1      25.575  25.583  -6.149  0.00  0.00     0.037 C 
ENDROOT
BRANCH   1   2
HETATM    2  C   UNK N   1      25.530  24.352  -5.235  0.00  0.00     0.144 C 
BRANCH   2   3
HETATM    3  N   UNK N   1      25.572  23.158  -6.062  0.00  0.00    -0.420 N 
HETATM    4  H   UNK N   1      25.572  23.008  -7.071  0.00  0.00     0.150 HD
HETATM    5  H   UNK N   1      25.610  22.293  -5.523  0.00  0.00     0.150 HD
ENDBRANCH   2   3
BRANCH   2   6
HETATM    6  C   UNK N   1      26.660  24.294  -4.229  0.00  0.00     0.145 C 
HETATM    7  O   UNK N   1      26.405  24.056  -3.059  0.00  0.00    -0.296 OA
HETATM    8  C   UNK N   1      28.085  24.516  -4.623  0.00  0.00     0.093 C 
ENDBRANCH   2   6
ENDBRANCH   1   2
BRANCH   1   9
HETATM    9  C   UNK N   1      25.006  26.807  -5.439  0.00  0.00     0.041 C 
BRANCH   9  10
HETATM   10  C   UNK N   1      26.009  27.900  -5.289  0.00  0.00    -0.058 A 
HETATM   11  C   UNK N   1      26.993  28.104  -6.266  0.00  0.00     0.007 A 
HETATM   12  C   UNK N   1      27.891  29.170  -6.144  0.00  0.00     0.001 A 
HETATM   13  C   UNK N   1      27.801  30.039  -5.053  0.00  0.00     0.000 A 
HETATM   14  C   UNK N   1      26.819  29.839  -4.078  0.00  0.00     0.001 A 
HETATM   15  C   UNK N   1      25.922  28.772  -4.198  0.00  0.00     0.007 A 
ENDBRANCH   9  10
ENDBRANCH   1   9
TORSDOF 5
ENDMDL
MODEL 2
REMARK VINA RESULT:      -5.2      2.647      3.744
REMARK  5 active torsions:
REMARK  status: ('A' for Active; 'I' for Inactive)
REMARK    1  A    between atoms: C_2  and  N_1 
REMARK    2  A    between atoms: C_2  and  C_3 
REMARK    3  A    between atoms: C_2  and  C_5 
REMARK    4  A    between atoms: C_5  and  C_6 
REMARK    5  A    between atoms: C_6  and  C_7 
ROOT
HETATM    1  C   UNK N   1      27.816  24.000  -2.881  0.00  0.00     0.037 C 
ENDROOT
BRANCH   1   2
HETATM    2  C   UNK N   1      29.215  23.755  -3.460  0.00  0.00     0.144 C 
BRANCH   2   3
HETATM    3  N   UNK N   1      29.885  25.036  -3.609  0.00  0.00    -0.420 N 
HETATM    4  H   UNK N   1      29.614  25.995  -3.391  0.00  0.00     0.150 HD
HETATM    5  H   UNK N   1      30.818  24.960  -4.015  0.00  0.00     0.150 HD
ENDBRANCH   2   3
BRANCH   2   6
HETATM    6  C   UNK N   1      30.078  22.844  -2.615  0.00  0.00     0.145 C 
HETATM    7  O   UNK N   1      30.210  23.083  -1.424  0.00  0.00    -0.296 OA
HETATM    8  C   UNK N   1      30.777  21.653  -3.189  0.00  0.00     0.093 C 
ENDBRANCH   2   6
ENDBRANCH   1   2
BRANCH   1   9
HETATM    9  C   UNK N   1      26.768  24.022  -3.989  0.00  0.00     0.041 C 
BRANCH   9  10
HETATM   10  C   UNK N   1      26.251  25.394  -4.262  0.00  0.00    -0.058 A 
HETATM   11  C   UNK N   1      25.507  25.659  -5.419  0.00  0.00     0.007 A 
HETATM   12  C   UNK N   1      24.976  26.936  -5.633  0.00  0.00     0.001 A 
HETATM   13  C   UNK N   1      25.182  27.946  -4.690  0.00  0.00     0.000 A 
HETATM   14  C   UNK N   1      25.922  27.683  -3.533  0.00  0.00     0.001 A 
HETATM   15  C   UNK N   1      26.454  26.408  -3.319  0.00  0.00     0.007 A 
ENDBRANCH   9  10
ENDBRANCH   1   9
TORSDOF 5
ENDMDL
MODEL 3
REMARK VINA RESULT:      -4.9     24.852     26.950
REMARK  5 active torsions:
REMARK  status: ('A' for Active; 'I' for Inactive)
REMARK    1  A    between atoms: C_2  and  N_1 
REMARK    2  A    between atoms: C_2  and  C_3 
REMARK    3  A    between atoms: C_2  and  C_5 
REMARK    4  A    between atoms: C_5  and  C_6 
REMARK    5  A    between atoms: C_6  and  C_7 
ROOT
HETATM    1  C   UNK N   1      36.464  12.635  14.690  0.00  0.00     0.037 C 
ENDROOT
BRANCH   1   2
HETATM    2  C   UNK N   1      35.824  13.832  13.976  0.00  0.00     0.144 C 
BRANCH   2   3
HETATM    3  N   UNK N   1      36.790  14.917  13.936  0.00  0.00    -0.420 N 
HETATM    4  H   UNK N   1      37.214  15.501  14.656  0.00  0.00     0.150 HD
HETATM    5  H   UNK N   1      37.109  15.140  12.993  0.00  0.00     0.150 HD
ENDBRANCH   2   3
BRANCH   2   6
HETATM    6  C   UNK N   1      35.363  13.531  12.567  0.00  0.00     0.145 C 
HETATM    7  O   UNK N   1      34.505  14.235  12.056  0.00  0.00    -0.296 OA
HETATM    8  C   UNK N   1      35.928  12.398  11.771  0.00  0.00     0.093 C 
ENDBRANCH   2   6
ENDBRANCH   1   2
BRANCH   1   9
HETATM    9  C   UNK N   1      35.408  11.813  15.421  0.00  0.00     0.041 C 
BRANCH   9  10
HETATM   10  C   UNK N   1      35.419  12.047  16.894  0.00  0.00    -0.058 A 
HETATM   11  C   UNK N   1      35.162  13.322  17.415  0.00  0.00     0.007 A 
HETATM   12  C   UNK N   1      35.116  13.517  18.800  0.00  0.00     0.001 A 
HETATM   13  C   UNK N   1      35.316  12.437  19.666  0.00  0.00     0.000 A 
HETATM   14  C   UNK N   1      35.570  11.164  19.148  0.00  0.00     0.001 A 
HETATM   15  C   UNK N   1      35.618  10.969  17.763  0.00  0.00     0.007 A 
ENDBRANCH   9  10
ENDBRANCH   1   9
TORSDOF 5
ENDMDL
MODEL 4
REMARK VINA RESULT:      -4.9     25.263     27.327
REMARK  5 active torsions:
REMARK  status: ('A' for Active; 'I' for Inactive)
REMARK    1  A    between atoms: C_2  and  N_1 
REMARK    2  A    between atoms: C_2  and  C_3 
REMARK    3  A    between atoms: C_2  and  C_5 
REMARK    4  A    between atoms: C_5  and  C_6 
REMARK    5  A    between atoms: C_6  and  C_7 
ROOT
HETATM    1  C   UNK N   1      34.155  10.790  14.908  0.00  0.00     0.037 C 
ENDROOT
BRANCH   1   2
HETATM    2  C   UNK N   1      34.787  10.986  13.524  0.00  0.00     0.144 C 
BRANCH   2   3
HETATM    3  N   UNK N   1      33.774  10.736  12.513  0.00  0.00    -0.420 N 
HETATM    4  H   UNK N   1      33.575   9.940  11.907  0.00  0.00     0.150 HD
HETATM    5  H   UNK N   1      33.131  11.517  12.383  0.00  0.00     0.150 HD
ENDBRANCH   2   3
BRANCH   2   6
HETATM    6  C   UNK N   1      35.371  12.365  13.306  0.00  0.00     0.145 C 
HETATM    7  O   UNK N   1      34.621  13.300  13.073  0.00  0.00    -0.296 OA
HETATM    8  C   UNK N   1      36.842  12.624  13.370  0.00  0.00     0.093 C 
ENDBRANCH   2   6
ENDBRANCH   1   2
BRANCH   1   9
HETATM    9  C   UNK N   1      35.212  10.394  15.935  0.00  0.00     0.041 C 
BRANCH   9  10
HETATM   10  C   UNK N   1      35.176  11.254  17.153  0.00  0.00    -0.058 A 
HETATM   11  C   UNK N   1      35.302  10.687  18.429  0.00  0.00     0.007 A 
HETATM   12  C   UNK N   1      35.328  11.510  19.561  0.00  0.00     0.001 A 
HETATM   13  C   UNK N   1      35.238  12.897  19.420  0.00  0.00     0.000 A 
HETATM   14  C   UNK N   1      35.115  13.464  18.148  0.00  0.00     0.001 A 
HETATM   15  C   UNK N   1      35.087  12.643  17.016  0.00  0.00     0.007 A 
ENDBRANCH   9  10
ENDBRANCH   1   9
TORSDOF 5
ENDMDL
MODEL 5
REMARK VINA RESULT:      -4.9     14.525     15.760
REMARK  5 active torsions:
REMARK  status: ('A' for Active; 'I' for Inactive)
REMARK    1  A    between atoms: C_2  and  N_1 
REMARK    2  A    between atoms: C_2  and  C_3 
REMARK    3  A    between atoms: C_2  and  C_5 
REMARK    4  A    between atoms: C_5  and  C_6 
REMARK    5  A    between atoms: C_6  and  C_7 
ROOT
HETATM    1  C   UNK N   1      28.386  17.666   6.538  0.00  0.00     0.037 C 
ENDROOT
BRANCH   1   2
HETATM    2  C   UNK N   1      28.468  18.804   7.563  0.00  0.00     0.144 C 
BRANCH   2   3
HETATM    3  N   UNK N   1      27.287  19.639   7.423  0.00  0.00    -0.420 N 
HETATM    4  H   UNK N   1      26.616  19.778   6.668  0.00  0.00     0.150 HD
HETATM    5  H   UNK N   1      27.089  20.202   8.251  0.00  0.00     0.150 HD
ENDBRANCH   2   3
BRANCH   2   6
HETATM    6  C   UNK N   1      28.569  18.331   8.997  0.00  0.00     0.145 C 
HETATM    7  O   UNK N   1      27.662  17.665   9.471  0.00  0.00    -0.296 OA
HETATM    8  C   UNK N   1      29.750  18.651   9.857  0.00  0.00     0.093 C 
ENDBRANCH   2   6
ENDBRANCH   1   2
BRANCH   1   9
HETATM    9  C   UNK N   1      29.503  16.652   6.764  0.00  0.00     0.041 C 
BRANCH   9  10
HETATM   10  C   UNK N   1      30.783  17.054   6.112  0.00  0.00    -0.058 A 
HETATM   11  C   UNK N   1      31.972  17.112   6.850  0.00  0.00     0.007 A 
HETATM   12  C   UNK N   1      33.177  17.432   6.214  0.00  0.00     0.001 A 
HETATM   13  C   UNK N   1      33.196  17.685   4.839  0.00  0.00     0.000 A 
HETATM   14  C   UNK N   1      32.011  17.626   4.100  0.00  0.00     0.001 A 
HETATM   15  C   UNK N   1      30.806  17.308   4.736  0.00  0.00     0.007 A 
ENDBRANCH   9  10
ENDBRANCH   1   9
TORSDOF 5
ENDMDL
MODEL 6
REMARK VINA RESULT:      -4.9     25.580     27.639
REMARK  5 active torsions:
REMARK  status: ('A' for Active; 'I' for Inactive)
REMARK    1  A    between atoms: C_2  and  N_1 
REMARK    2  A    between atoms: C_2  and  C_3 
REMARK    3  A    between atoms: C_2  and  C_5 
REMARK    4  A    between atoms: C_5  and  C_6 
REMARK    5  A    between atoms: C_6  and  C_7 
ROOT
HETATM    1  C   UNK N   1      36.686  13.279  15.150  0.00  0.00     0.037 C 
ENDROOT
BRANCH   1   2
HETATM    2  C   UNK N   1      36.584  12.824  13.689  0.00  0.00     0.144 C 
BRANCH   2   3
HETATM    3  N   UNK N   1      36.902  13.952  12.829  0.00  0.00    -0.420 N 
HETATM    4  H   UNK N   1      36.337  14.552  12.229  0.00  0.00     0.150 HD
HETATM    5  H   UNK N   1      37.894  14.191  12.826  0.00  0.00     0.150 HD
ENDBRANCH   2   3
BRANCH   2   6
HETATM    6  C   UNK N   1      37.498  11.668  13.342  0.00  0.00     0.145 C 
HETATM    7  O   UNK N   1      37.730  11.423  12.168  0.00  0.00    -0.296 OA
HETATM    8  C   UNK N   1      38.133  10.814  14.393  0.00  0.00     0.093 C 
ENDBRANCH   2   6
ENDBRANCH   1   2
BRANCH   1   9
HETATM    9  C   UNK N   1      35.316  13.257  15.820  0.00  0.00     0.041 C 
BRANCH   9  10
HETATM   10  C   UNK N   1      35.342  12.594  17.156  0.00  0.00    -0.058 A 
HETATM   11  C   UNK N   1      35.652  11.232  17.270  0.00  0.00     0.007 A 
HETATM   12  C   UNK N   1      35.733  10.636  18.533  0.00  0.00     0.001 A 
HETATM   13  C   UNK N   1      35.513  11.399  19.683  0.00  0.00     0.000 A 
HETATM   14  C   UNK N   1      35.206  12.759  19.571  0.00  0.00     0.001 A 
HETATM   15  C   UNK N   1      35.123  13.356  18.309  0.00  0.00     0.007 A 
ENDBRANCH   9  10
ENDBRANCH   1   9
TORSDOF 5
ENDMDL
MODEL 7
REMARK VINA RESULT:      -4.8     16.534     18.018
REMARK  5 active torsions:
REMARK  status: ('A' for Active; 'I' for Inactive)
REMARK    1  A    between atoms: C_2  and  N_1 
REMARK    2  A    between atoms: C_2  and  C_3 
REMARK    3  A    between atoms: C_2  and  C_5 
REMARK    4  A    between atoms: C_5  and  C_6 
REMARK    5  A    between atoms: C_6  and  C_7 
ROOT
HETATM    1  C   UNK N   1      32.963  16.811   8.334  0.00  0.00     0.037 C 
ENDROOT
BRANCH   1   2
HETATM    2  C   UNK N   1      34.451  17.096   8.569  0.00  0.00     0.144 C 
BRANCH   2   3
HETATM    3  N   UNK N   1      34.682  18.521   8.404  0.00  0.00    -0.420 N 
HETATM    4  H   UNK N   1      34.718  19.132   7.589  0.00  0.00     0.150 HD
HETATM    5  H   UNK N   1      34.839  19.010   9.285  0.00  0.00     0.150 HD
ENDBRANCH   2   3
BRANCH   2   6
HETATM    6  C   UNK N   1      34.949  16.672   9.934  0.00  0.00     0.145 C 
HETATM    7  O   UNK N   1      35.707  17.407  10.548  0.00  0.00    -0.296 OA
HETATM    8  C   UNK N   1      34.538  15.378  10.562  0.00  0.00     0.093 C 
ENDBRANCH   2   6
ENDBRANCH   1   2
BRANCH   1   9
HETATM    9  C   UNK N   1      32.150  18.100   8.386  0.00  0.00     0.041 C 
BRANCH   9  10
HETATM   10  C   UNK N   1      30.679  17.852   8.343  0.00  0.00    -0.058 A 
HETATM   11  C   UNK N   1      29.848  18.312   9.373  0.00  0.00     0.007 A 
HETATM   12  C   UNK N   1      28.464  18.126   9.291  0.00  0.00     0.001 A 
HETATM   13  C   UNK N   1      27.907  17.490   8.178  0.00  0.00     0.000 A 
HETATM   14  C   UNK N   1      28.735  17.032   7.148  0.00  0.00     0.001 A 
HETATM   15  C   UNK N   1      30.119  17.216   7.230  0.00  0.00     0.007 A 
ENDBRANCH   9  10
ENDBRANCH   1   9
TORSDOF 5
ENDMDL
MODEL 8
REMARK VINA RESULT:      -4.8     13.810     15.780
REMARK  5 active torsions:
REMARK  status: ('A' for Active; 'I' for Inactive)
REMARK    1  A    between atoms: C_2  and  N_1 
REMARK    2  A    between atoms: C_2  and  C_3 
REMARK    3  A    between atoms: C_2  and  C_5 
REMARK    4  A    between atoms: C_5  and  C_6 
REMARK    5  A    between atoms: C_6  and  C_7 
ROOT
HETATM    1  C   UNK N   1      31.276  16.683   7.684  0.00  0.00     0.037 C 
ENDROOT
BRANCH   1   2
HETATM    2  C   UNK N   1      32.452  17.602   8.038  0.00  0.00     0.144 C 
BRANCH   2   3
HETATM    3  N   UNK N   1      33.120  17.067   9.212  0.00  0.00    -0.420 N 
HETATM    4  H   UNK N   1      33.502  17.497  10.054  0.00  0.00     0.150 HD
HETATM    5  H   UNK N   1      33.229  16.052   9.189  0.00  0.00     0.150 HD
ENDBRANCH   2   3
BRANCH   2   6
HETATM    6  C   UNK N   1      33.464  17.759   6.924  0.00  0.00     0.145 C 
HETATM    7  O   UNK N   1      34.580  18.181   7.187  0.00  0.00    -0.296 OA
HETATM    8  C   UNK N   1      33.145  17.409   5.506  0.00  0.00     0.093 C 
ENDBRANCH   2   6
ENDBRANCH   1   2
BRANCH   1   9
HETATM    9  C   UNK N   1      29.965  17.251   8.218  0.00  0.00     0.041 C 
BRANCH   9  10
HETATM   10  C   UNK N   1      29.223  18.042   7.193  0.00  0.00    -0.058 A 
HETATM   11  C   UNK N   1      29.354  17.743   5.830  0.00  0.00     0.007 A 
HETATM   12  C   UNK N   1      28.607  18.453   4.883  0.00  0.00     0.001 A 
HETATM   13  C   UNK N   1      27.723  19.453   5.296  0.00  0.00     0.000 A 
HETATM   14  C   UNK N   1      27.588  19.750   6.656  0.00  0.00     0.001 A 
HETATM   15  C   UNK N   1      28.336  19.043   7.603  0.00  0.00     0.007 A 
ENDBRANCH   9  10
ENDBRANCH   1   9
TORSDOF 5
ENDMDL
MODEL 9
REMARK VINA RESULT:      -4.7     17.661     20.064
REMARK  5 active torsions:
REMARK  status: ('A' for Active; 'I' for Inactive)
REMARK    1  A    between atoms: C_2  and  N_1 
REMARK    2  A    between atoms: C_2  and  C_3 
REMARK    3  A    between atoms: C_2  and  C_5 
REMARK    4  A    between atoms: C_5  and  C_6 
REMARK    5  A    between atoms: C_6  and  C_7 
ROOT
HETATM    1  C   UNK N   1      20.989  13.814   8.067  0.00  0.00     0.037 C 
ENDROOT
BRANCH   1   2
HETATM    2  C   UNK N   1      20.394  15.181   7.710  0.00  0.00     0.144 C 
BRANCH   2   3
HETATM    3  N   UNK N   1      19.760  15.734   8.895  0.00  0.00    -0.420 N 
HETATM    4  H   UNK N   1      18.860  15.570   9.345  0.00  0.00     0.150 HD
HETATM    5  H   UNK N   1      20.334  16.428   9.374  0.00  0.00     0.150 HD
ENDBRANCH   2   3
BRANCH   2   6
HETATM    6  C   UNK N   1      21.408  16.174   7.186  0.00  0.00     0.145 C 
HETATM    7  O   UNK N   1      21.173  17.369   7.272  0.00  0.00    -0.296 OA
HETATM    8  C   UNK N   1      22.698  15.739   6.566  0.00  0.00     0.093 C 
ENDBRANCH   2   6
ENDBRANCH   1   2
BRANCH   1   9
HETATM    9  C   UNK N   1      20.883  13.551   9.566  0.00  0.00     0.041 C 
BRANCH   9  10
HETATM   10  C   UNK N   1      22.161  13.054  10.153  0.00  0.00    -0.058 A 
HETATM   11  C   UNK N   1      22.160  12.324  11.349  0.00  0.00     0.007 A 
HETATM   12  C   UNK N   1      23.359  11.811  11.857  0.00  0.00     0.001 A 
HETATM   13  C   UNK N   1      24.557  12.019  11.168  0.00  0.00     0.000 A 
HETATM   14  C   UNK N   1      24.559  12.745   9.973  0.00  0.00     0.001 A 
HETATM   15  C   UNK N   1      23.362  13.260   9.465  0.00  0.00     0.007 A 
ENDBRANCH   9  10
ENDBRANCH   1   9
TORSDOF 5
ENDMDL
