MODEL 1
REMARK VINA RESULT:      -6.4      0.000      0.000
REMARK  6 active torsions:
REMARK  status: ('A' for Active; 'I' for Inactive)
REMARK    1  A    between atoms: C_5  and  C_7 
REMARK    2  A    between atoms: C_7  and  C_9 
REMARK    3  A    between atoms: C_10  and  C_11 
REMARK    4  A    between atoms: C_12  and  O_13 
REMARK    5  A    between atoms: C_12  and  C_14 
REMARK    6  A    between atoms: C_14  and  O_15 
ROOT
HETATM    1  C   UNK N   1      30.051  17.200   7.250  0.00  0.00     0.056 C 
HETATM    2  C   UNK N   1      31.379  17.254   7.217  0.00  0.00     0.007 C 
ENDROOT
BRANCH   1   3
HETATM    3  C   UNK N   1      29.140  17.428   6.110  0.00  0.00     0.182 C 
HETATM    4  O   UNK N   1      29.075  16.548   5.266  0.00  0.00    -0.288 OA
BRANCH   3   5
HETATM    5  C   UNK N   1      28.319  18.656   5.923  0.00  0.00     0.014 A 
HETATM    6  C   UNK N   1      27.956  19.039   4.622  0.00  0.00     0.015 A 
HETATM    7  C   UNK N   1      27.207  20.198   4.403  0.00  0.00     0.001 A 
HETATM    8  C   UNK N   1      26.821  20.991   5.485  0.00  0.00     0.000 A 
HETATM    9  C   UNK N   1      27.180  20.624   6.785  0.00  0.00     0.001 A 
HETATM   10  C   UNK N   1      27.925  19.460   7.004  0.00  0.00     0.015 A 
ENDBRANCH   3   5
ENDBRANCH   1   3
BRANCH   2  11
HETATM   11  C   UNK N   1      32.233  17.005   8.406  0.00  0.00     0.043 C 
HETATM   12  C   UNK N   1      33.482  17.426   8.729  0.00  0.00     0.139 C 
BRANCH  12  13
HETATM   13  O   UNK N   1      33.943  17.070   9.944  0.00  0.00    -0.355 OA
HETATM   14  H   UNK N   1      34.082  16.167  10.151  0.00  0.00     0.218 HD
ENDBRANCH  12  13
BRANCH  12  15
HETATM   15  C   UNK N   1      34.396  18.238   7.870  0.00  0.00     0.200 C 
HETATM   16  O   UNK N   1      35.050  19.130   8.387  0.00  0.00    -0.645 OA
BRANCH  15  17
HETATM   17  O   UNK N   1      34.573  17.990   6.562  0.00  0.00    -0.771 OA
HETATM   18  H   UNK N   1      34.856  18.657   5.966  0.00  0.00     0.167 HD
ENDBRANCH  15  17
ENDBRANCH  12  15
ENDBRANCH   2  11
TORSDOF 6
ENDMDL
MODEL 2
REMARK VINA RESULT:      -6.3      7.918     11.761
REMARK  6 active torsions:
REMARK  status: ('A' for Active; 'I' for Inactive)
REMARK    1  A    between atoms: C_5  and  C_7 
REMARK    2  A    between atoms: C_7  and  C_9 
REMARK    3  A    between atoms: C_10  and  C_11 
REMARK    4  A    between atoms: C_12  and  O_13 
REMARK    5  A    between atoms: C_12  and  C_14 
REMARK    6  A    between atoms: C_14  and  O_15 
ROOT
HETATM    1  C   UNK N   1      35.466  13.472  14.383  0.00  0.00     0.056 C 
HETATM    2  C   UNK N   1      35.605  13.418  13.062  0.00  0.00     0.007 C 
ENDROOT
BRANCH   1   3
HETATM    3  C   UNK N   1      34.748  12.493  15.225  0.00  0.00     0.182 C 
HETATM    4  O   UNK N   1      33.900  11.806  14.678  0.00  0.00    -0.288 OA
BRANCH   3   5
HETATM    5  C   UNK N   1      34.983  12.308  16.683  0.00  0.00     0.014 A 
HETATM    6  C   UNK N   1      34.961  13.433  17.524  0.00  0.00     0.015 A 
HETATM    7  C   UNK N   1      35.200  13.304  18.893  0.00  0.00     0.001 A 
HETATM    8  C   UNK N   1      35.472  12.048  19.437  0.00  0.00     0.000 A 
HETATM    9  C   UNK N   1      35.501  10.921  18.612  0.00  0.00     0.001 A 
HETATM   10  C   UNK N   1      35.256  11.049  17.240  0.00  0.00     0.015 A 
ENDBRANCH   3   5
ENDBRANCH   1   3
BRANCH   2  11
HETATM   11  C   UNK N   1      36.350  14.438  12.282  0.00  0.00     0.043 C 
HETATM   12  C   UNK N   1      35.963  15.284  11.293  0.00  0.00     0.139 C 
BRANCH  12  13
HETATM   13  O   UNK N   1      36.891  16.151  10.844  0.00  0.00    -0.355 OA
HETATM   14  H   UNK N   1      36.764  17.074  10.944  0.00  0.00     0.218 HD
ENDBRANCH  12  13
BRANCH  12  15
HETATM   15  C   UNK N   1      34.614  15.343  10.652  0.00  0.00     0.200 C 
HETATM   16  O   UNK N   1      34.530  15.726   9.494  0.00  0.00    -0.645 OA
BRANCH  15  17
HETATM   17  O   UNK N   1      33.496  14.938  11.274  0.00  0.00    -0.771 OA
HETATM   18  H   UNK N   1      33.160  15.384  12.028  0.00  0.00     0.167 HD
ENDBRANCH  15  17
ENDBRANCH  12  15
ENDBRANCH   2  11
TORSDOF 6
ENDMDL
MODEL 3
REMARK VINA RESULT:      -6.2      5.908     10.171
REMARK  6 active torsions:
REMARK  status: ('A' for Active; 'I' for Inactive)
REMARK    1  A    between atoms: C_5  and  C_7 
REMARK    2  A    between atoms: C_7  and  C_9 
REMARK    3  A    between atoms: C_10  and  C_11 
REMARK    4  A    between atoms: C_12  and  O_13 
REMARK    5  A    between atoms: C_12  and  C_14 
REMARK    6  A    between atoms: C_14  and  O_15 
ROOT
HETATM    1  C   UNK N   1      24.124  19.819   3.112  0.00  0.00     0.056 C 
HETATM    2  C   UNK N   1      23.024  20.565   3.124  0.00  0.00     0.007 C 
ENDROOT
BRANCH   1   3
HETATM    3  C   UNK N   1      25.512  20.308   3.242  0.00  0.00     0.182 C 
HETATM    4  O   UNK N   1      25.969  20.940   2.302  0.00  0.00    -0.288 OA
BRANCH   3   5
HETATM    5  C   UNK N   1      26.380  20.067   4.427  0.00  0.00     0.014 A 
HETATM    6  C   UNK N   1      26.930  18.789   4.618  0.00  0.00     0.015 A 
HETATM    7  C   UNK N   1      27.730  18.516   5.730  0.00  0.00     0.001 A 
HETATM    8  C   UNK N   1      27.982  19.518   6.668  0.00  0.00     0.000 A 
HETATM    9  C   UNK N   1      27.438  20.793   6.493  0.00  0.00     0.001 A 
HETATM   10  C   UNK N   1      26.641  21.067   5.376  0.00  0.00     0.015 A 
ENDBRANCH   3   5
ENDBRANCH   1   3
BRANCH   2  11
HETATM   11  C   UNK N   1      21.657  19.999   2.996  0.00  0.00     0.043 C 
HETATM   12  C   UNK N   1      20.686  20.177   2.065  0.00  0.00     0.139 C 
BRANCH  12  13
HETATM   13  O   UNK N   1      19.568  19.440   2.211  0.00  0.00    -0.355 OA
HETATM   14  H   UNK N   1      18.810  19.806   2.621  0.00  0.00     0.218 HD
ENDBRANCH  12  13
BRANCH  12  15
HETATM   15  C   UNK N   1      20.733  21.113   0.900  0.00  0.00     0.200 C 
HETATM   16  O   UNK N   1      21.073  20.678  -0.190  0.00  0.00    -0.645 OA
BRANCH  15  17
HETATM   17  O   UNK N   1      20.359  22.399   0.987  0.00  0.00    -0.771 OA
HETATM   18  H   UNK N   1      20.931  23.058   1.331  0.00  0.00     0.167 HD
ENDBRANCH  15  17
ENDBRANCH  12  15
ENDBRANCH   2  11
TORSDOF 6
ENDMDL
MODEL 4
REMARK VINA RESULT:      -6.1     10.717     12.700
REMARK  6 active torsions:
REMARK  status: ('A' for Active; 'I' for Inactive)
REMARK    1  A    between atoms: C_5  and  C_7 
REMARK    2  A    between atoms: C_7  and  C_9 
REMARK    3  A    between atoms: C_10  and  C_11 
REMARK    4  A    between atoms: C_12  and  O_13 
REMARK    5  A    between atoms: C_12  and  C_14 
REMARK    6  A    between atoms: C_14  and  O_15 
ROOT
HETATM    1  C   UNK N   1      28.692  24.320  -3.803  0.00  0.00     0.056 C 
HETATM    2  C   UNK N   1      29.161  23.288  -4.498  0.00  0.00     0.007 C 
ENDROOT
BRANCH   1   3
HETATM    3  C   UNK N   1      27.280  24.558  -3.440  0.00  0.00     0.182 C 
HETATM    4  O   UNK N   1      26.775  23.789  -2.638  0.00  0.00    -0.288 OA
BRANCH   3   5
HETATM    5  C   UNK N   1      26.443  25.655  -4.000  0.00  0.00     0.014 A 
HETATM    6  C   UNK N   1      25.780  25.449  -5.221  0.00  0.00     0.015 A 
HETATM    7  C   UNK N   1      25.005  26.462  -5.790  0.00  0.00     0.001 A 
HETATM    8  C   UNK N   1      24.892  27.696  -5.148  0.00  0.00     0.000 A 
HETATM    9  C   UNK N   1      25.550  27.915  -3.935  0.00  0.00     0.001 A 
HETATM   10  C   UNK N   1      26.322  26.899  -3.362  0.00  0.00     0.015 A 
ENDBRANCH   3   5
ENDBRANCH   1   3
BRANCH   2  11
HETATM   11  C   UNK N   1      30.600  23.110  -4.818  0.00  0.00     0.043 C 
HETATM   12  C   UNK N   1      31.646  22.667  -4.075  0.00  0.00     0.139 C 
BRANCH  12  13
HETATM   13  O   UNK N   1      32.830  22.555  -4.707  0.00  0.00    -0.355 OA
HETATM   14  H   UNK N   1      33.443  21.895  -4.451  0.00  0.00     0.218 HD
ENDBRANCH  12  13
BRANCH  12  15
HETATM   15  C   UNK N   1      31.614  22.298  -2.627  0.00  0.00     0.200 C 
HETATM   16  O   UNK N   1      32.378  21.435  -2.223  0.00  0.00    -0.645 OA
BRANCH  15  17
HETATM   17  O   UNK N   1      30.821  22.917  -1.738  0.00  0.00    -0.771 OA
HETATM   18  H   UNK N   1      31.078  23.714  -1.316  0.00  0.00     0.167 HD
ENDBRANCH  15  17
ENDBRANCH  12  15
ENDBRANCH   2  11
TORSDOF 6
ENDMDL
MODEL 5
REMARK VINA RESULT:      -6.1      1.423      1.821
REMARK  6 active torsions:
REMARK  status: ('A' for Active; 'I' for Inactive)
REMARK    1  A    between atoms: C_5  and  C_7 
REMARK    2  A    between atoms: C_7  and  C_9 
REMARK    3  A    between atoms: C_10  and  C_11 
REMARK    4  A    between atoms: C_12  and  O_13 
REMARK    5  A    between atoms: C_12  and  C_14 
REMARK    6  A    between atoms: C_14  and  O_15 
ROOT
HETATM    1  C   UNK N   1      29.941  17.299   8.343  0.00  0.00     0.056 C 
HETATM    2  C   UNK N   1      31.196  17.706   8.512  0.00  0.00     0.007 C 
ENDROOT
BRANCH   1   3
HETATM    3  C   UNK N   1      28.757  18.167   8.180  0.00  0.00     0.182 C 
HETATM    4  O   UNK N   1      28.071  18.364   9.171  0.00  0.00    -0.288 OA
BRANCH   3   5
HETATM    5  C   UNK N   1      28.346  18.793   6.893  0.00  0.00     0.014 A 
HETATM    6  C   UNK N   1      28.616  18.119   5.692  0.00  0.00     0.015 A 
HETATM    7  C   UNK N   1      28.268  18.684   4.463  0.00  0.00     0.001 A 
HETATM    8  C   UNK N   1      27.651  19.936   4.423  0.00  0.00     0.000 A 
HETATM    9  C   UNK N   1      27.381  20.620   5.611  0.00  0.00     0.001 A 
HETATM   10  C   UNK N   1      27.725  20.051   6.842  0.00  0.00     0.015 A 
ENDBRANCH   3   5
ENDBRANCH   1   3
BRANCH   2  11
HETATM   11  C   UNK N   1      32.340  16.773   8.661  0.00  0.00     0.043 C 
HETATM   12  C   UNK N   1      33.655  16.892   8.347  0.00  0.00     0.139 C 
BRANCH  12  13
HETATM   13  O   UNK N   1      34.453  15.863   8.691  0.00  0.00    -0.355 OA
HETATM   14  H   UNK N   1      35.222  15.673   8.190  0.00  0.00     0.218 HD
ENDBRANCH  12  13
BRANCH  12  15
HETATM   15  C   UNK N   1      34.301  18.048   7.654  0.00  0.00     0.200 C 
HETATM   16  O   UNK N   1      34.304  18.074   6.433  0.00  0.00    -0.645 OA
BRANCH  15  17
HETATM   17  O   UNK N   1      34.828  19.090   8.317  0.00  0.00    -0.771 OA
HETATM   18  H   UNK N   1      35.749  19.159   8.478  0.00  0.00     0.167 HD
ENDBRANCH  15  17
ENDBRANCH  12  15
ENDBRANCH   2  11
TORSDOF 6
ENDMDL
MODEL 6
REMARK VINA RESULT:      -6.0      3.349      5.134
REMARK  6 active torsions:
REMARK  status: ('A' for Active; 'I' for Inactive)
REMARK    1  A    between atoms: C_5  and  C_7 
REMARK    2  A    between atoms: C_7  and  C_9 
REMARK    3  A    between atoms: C_10  and  C_11 
REMARK    4  A    between atoms: C_12  and  O_13 
REMARK    5  A    between atoms: C_12  and  C_14 
REMARK    6  A    between atoms: C_14  and  O_15 
ROOT
HETATM    1  C   UNK N   1      33.914  16.915   8.938  0.00  0.00     0.056 C 
HETATM    2  C   UNK N   1      33.953  15.590   9.033  0.00  0.00     0.007 C 
ENDROOT
BRANCH   1   3
HETATM    3  C   UNK N   1      33.950  17.702   7.688  0.00  0.00     0.182 C 
HETATM    4  O   UNK N   1      34.814  18.560   7.596  0.00  0.00    -0.288 OA
BRANCH   3   5
HETATM    5  C   UNK N   1      32.998  17.525   6.557  0.00  0.00     0.014 A 
HETATM    6  C   UNK N   1      31.644  17.281   6.840  0.00  0.00     0.015 A 
HETATM    7  C   UNK N   1      30.725  17.086   5.806  0.00  0.00     0.001 A 
HETATM    8  C   UNK N   1      31.152  17.125   4.478  0.00  0.00     0.000 A 
HETATM    9  C   UNK N   1      32.497  17.362   4.183  0.00  0.00     0.001 A 
HETATM   10  C   UNK N   1      33.417  17.563   5.218  0.00  0.00     0.015 A 
ENDBRANCH   3   5
ENDBRANCH   1   3
BRANCH   2  11
HETATM   11  C   UNK N   1      33.905  14.866  10.328  0.00  0.00     0.043 C 
HETATM   12  C   UNK N   1      34.871  14.553  11.228  0.00  0.00     0.139 C 
BRANCH  12  13
HETATM   13  O   UNK N   1      34.467  13.942  12.359  0.00  0.00    -0.355 OA
HETATM   14  H   UNK N   1      33.616  13.553  12.409  0.00  0.00     0.218 HD
ENDBRANCH  12  13
BRANCH  12  15
HETATM   15  C   UNK N   1      36.336  14.812  11.086  0.00  0.00     0.200 C 
HETATM   16  O   UNK N   1      37.099  13.859  11.028  0.00  0.00    -0.645 OA
BRANCH  15  17
HETATM   17  O   UNK N   1      36.845  16.047  10.960  0.00  0.00    -0.771 OA
HETATM   18  H   UNK N   1      36.304  16.790  10.773  0.00  0.00     0.167 HD
ENDBRANCH  15  17
ENDBRANCH  12  15
ENDBRANCH   2  11
TORSDOF 6
ENDMDL
MODEL 7
REMARK VINA RESULT:      -5.8      8.335      9.906
REMARK  6 active torsions:
REMARK  status: ('A' for Active; 'I' for Inactive)
REMARK    1  A    between atoms: C_5  and  C_7 
REMARK    2  A    between atoms: C_7  and  C_9 
REMARK    3  A    between atoms: C_10  and  C_11 
REMARK    4  A    between atoms: C_12  and  O_13 
REMARK    5  A    between atoms: C_12  and  C_14 
REMARK    6  A    between atoms: C_14  and  O_15 
ROOT
HETATM    1  C   UNK N   1      21.162  14.291   9.567  0.00  0.00     0.056 C 
HETATM    2  C   UNK N   1      21.241  12.974   9.725  0.00  0.00     0.007 C 
ENDROOT
BRANCH   1   3
HETATM    3  C   UNK N   1      20.774  15.000   8.330  0.00  0.00     0.182 C 
HETATM    4  O   UNK N   1      19.580  15.100   8.098  0.00  0.00    -0.288 OA
BRANCH   3   5
HETATM    5  C   UNK N   1      21.740  15.577   7.355  0.00  0.00     0.014 A 
HETATM    6  C   UNK N   1      21.450  16.816   6.762  0.00  0.00     0.015 A 
HETATM    7  C   UNK N   1      22.319  17.378   5.824  0.00  0.00     0.001 A 
HETATM    8  C   UNK N   1      23.486  16.702   5.464  0.00  0.00     0.000 A 
HETATM    9  C   UNK N   1      23.785  15.466   6.044  0.00  0.00     0.001 A 
HETATM   10  C   UNK N   1      22.916  14.905   6.987  0.00  0.00     0.015 A 
ENDBRANCH   3   5
ENDBRANCH   1   3
BRANCH   2  11
HETATM   11  C   UNK N   1      21.631  12.331  11.005  0.00  0.00     0.043 C 
HETATM   12  C   UNK N   1      22.842  12.009  11.526  0.00  0.00     0.139 C 
BRANCH  12  13
HETATM   13  O   UNK N   1      22.846  11.492  12.770  0.00  0.00    -0.355 OA
HETATM   14  H   UNK N   1      22.292  10.767  12.983  0.00  0.00     0.218 HD
ENDBRANCH  12  13
BRANCH  12  15
HETATM   15  C   UNK N   1      24.168  12.164  10.854  0.00  0.00     0.200 C 
HETATM   16  O   UNK N   1      24.279  11.820   9.687  0.00  0.00    -0.645 OA
BRANCH  15  17
HETATM   17  O   UNK N   1      25.228  12.720  11.461  0.00  0.00    -0.771 OA
HETATM   18  H   UNK N   1      25.706  13.427  11.073  0.00  0.00     0.167 HD
ENDBRANCH  15  17
ENDBRANCH  12  15
ENDBRANCH   2  11
TORSDOF 6
ENDMDL
MODEL 8
REMARK VINA RESULT:      -5.8     10.697     13.673
REMARK  6 active torsions:
REMARK  status: ('A' for Active; 'I' for Inactive)
REMARK    1  A    between atoms: C_5  and  C_7 
REMARK    2  A    between atoms: C_7  and  C_9 
REMARK    3  A    between atoms: C_10  and  C_11 
REMARK    4  A    between atoms: C_12  and  O_13 
REMARK    5  A    between atoms: C_12  and  C_14 
REMARK    6  A    between atoms: C_14  and  O_15 
ROOT
HETATM    1  C   UNK N   1      28.947  23.756  -3.320  0.00  0.00     0.056 C 
HETATM    2  C   UNK N   1      27.640  23.739  -3.080  0.00  0.00     0.007 C 
ENDROOT
BRANCH   1   3
HETATM    3  C   UNK N   1      29.970  22.936  -2.638  0.00  0.00     0.182 C 
HETATM    4  O   UNK N   1      30.110  23.109  -1.437  0.00  0.00    -0.288 OA
BRANCH   3   5
HETATM    5  C   UNK N   1      30.839  21.938  -3.321  0.00  0.00     0.014 A 
HETATM    6  C   UNK N   1      32.147  21.741  -2.850  0.00  0.00     0.015 A 
HETATM    7  C   UNK N   1      33.001  20.832  -3.479  0.00  0.00     0.001 A 
HETATM    8  C   UNK N   1      32.557  20.115  -4.591  0.00  0.00     0.000 A 
HETATM    9  C   UNK N   1      31.259  20.305  -5.072  0.00  0.00     0.001 A 
HETATM   10  C   UNK N   1      30.402  21.212  -4.439  0.00  0.00     0.015 A 
ENDBRANCH   3   5
ENDBRANCH   1   3
BRANCH   2  11
HETATM   11  C   UNK N   1      26.668  24.588  -3.814  0.00  0.00     0.043 C 
HETATM   12  C   UNK N   1      26.020  24.411  -4.993  0.00  0.00     0.139 C 
BRANCH  12  13
HETATM   13  O   UNK N   1      25.131  25.362  -5.342  0.00  0.00    -0.355 OA
HETATM   14  H   UNK N   1      25.420  26.150  -5.757  0.00  0.00     0.218 HD
ENDBRANCH  12  13
BRANCH  12  15
HETATM   15  C   UNK N   1      26.199  23.272  -5.944  0.00  0.00     0.200 C 
HETATM   16  O   UNK N   1      25.210  22.666  -6.328  0.00  0.00    -0.645 OA
BRANCH  15  17
HETATM   17  O   UNK N   1      27.396  22.921  -6.439  0.00  0.00    -0.771 OA
HETATM   18  H   UNK N   1      27.490  22.232  -7.067  0.00  0.00     0.167 HD
ENDBRANCH  15  17
ENDBRANCH  12  15
ENDBRANCH   2  11
TORSDOF 6
ENDMDL
MODEL 9
REMARK VINA RESULT:      -5.7      6.301     10.270
REMARK  6 active torsions:
REMARK  status: ('A' for Active; 'I' for Inactive)
REMARK    1  A    between atoms: C_5  and  C_7 
REMARK    2  A    between atoms: C_7  and  C_9 
REMARK    3  A    between atoms: C_10  and  C_11 
REMARK    4  A    between atoms: C_12  and  O_13 
REMARK    5  A    between atoms: C_12  and  C_14 
REMARK    6  A    between atoms: C_14  and  O_15 
ROOT
HETATM    1  C   UNK N   1      22.438  18.117   4.420  0.00  0.00     0.056 C 
HETATM    2  C   UNK N   1      21.645  17.441   3.593  0.00  0.00     0.007 C 
ENDROOT
BRANCH   1   3
HETATM    3  C   UNK N   1      23.835  17.778   4.762  0.00  0.00     0.182 C 
HETATM    4  O   UNK N   1      24.017  16.755   5.403  0.00  0.00    -0.288 OA
BRANCH   3   5
HETATM    5  C   UNK N   1      25.015  18.606   4.389  0.00  0.00     0.014 A 
HETATM    6  C   UNK N   1      24.836  19.690   3.516  0.00  0.00     0.015 A 
HETATM    7  C   UNK N   1      25.922  20.476   3.124  0.00  0.00     0.001 A 
HETATM    8  C   UNK N   1      27.202  20.180   3.597  0.00  0.00     0.000 A 
HETATM    9  C   UNK N   1      27.394  19.100   4.463  0.00  0.00     0.001 A 
HETATM   10  C   UNK N   1      26.305  18.317   4.860  0.00  0.00     0.015 A 
ENDBRANCH   3   5
ENDBRANCH   1   3
BRANCH   2  11
HETATM   11  C   UNK N   1      20.250  17.848   3.291  0.00  0.00     0.043 C 
HETATM   12  C   UNK N   1      19.741  18.780   2.446  0.00  0.00     0.139 C 
BRANCH  12  13
HETATM   13  O   UNK N   1      18.398  18.844   2.356  0.00  0.00    -0.355 OA
HETATM   14  H   UNK N   1      17.945  19.630   2.589  0.00  0.00     0.218 HD
ENDBRANCH  12  13
BRANCH  12  15
HETATM   15  C   UNK N   1      20.521  19.745   1.612  0.00  0.00     0.200 C 
HETATM   16  O   UNK N   1      21.170  20.615   2.173  0.00  0.00    -0.645 OA
BRANCH  15  17
HETATM   17  O   UNK N   1      20.586  19.661   0.274  0.00  0.00    -0.771 OA
HETATM   18  H   UNK N   1      19.965  19.162  -0.221  0.00  0.00     0.167 HD
ENDBRANCH  15  17
ENDBRANCH  12  15
ENDBRANCH   2  11
TORSDOF 6
ENDMDL
