MODEL 1
REMARK VINA RESULT:      -7.4      0.000      0.000
REMARK  8 active torsions:
REMARK  status: ('A' for Active; 'I' for Inactive)
REMARK    1  A    between atoms: C_4  and  C_5 
REMARK    2  A    between atoms: C_5  and  O_6 
REMARK    3  A    between atoms: C_5  and  C_22 
REMARK    4  A    between atoms: O_6  and  C_7 
REMARK    5  A    between atoms: N_10  and  C_11 
REMARK    6  A    between atoms: C_11  and  C_12 
REMARK    7  A    between atoms: C_12  and  C_13 
REMARK    8  A    between atoms: C_13  and  C_14 
ROOT
HETATM    1  C   UNK N   1      35.390  12.921  12.735  0.00  0.00     0.126 C 
HETATM    2  C   UNK N   1      35.558  14.312  12.122  0.00  0.00     0.062 C 
HETATM    3  C   UNK N   1      36.164  14.248  10.710  0.00  0.00     0.275 C 
HETATM    4  N   UNK N   1      35.560  13.216   9.852  0.00  0.00     0.088 N 
HETATM    5  C   UNK N   1      35.667  11.897  10.482  0.00  0.00     0.275 C 
HETATM    6  C   UNK N   1      34.899  11.827  11.799  0.00  0.00     0.062 C 
ENDROOT
BRANCH   1   7
HETATM    7  O   UNK N   1      36.250  12.525  13.785  0.00  0.00    -0.371 OA
BRANCH   7   8
HETATM    8  C   UNK N   1      35.564  12.387  15.012  0.00  0.00     0.188 C 
BRANCH   8   9
HETATM    9  C   UNK N   1      35.870  11.016  15.586  0.00  0.00    -0.025 A 
HETATM   10  C   UNK N   1      37.160  10.485  15.448  0.00  0.00     0.010 A 
HETATM   11  C   UNK N   1      37.470   9.229  15.981  0.00  0.00     0.001 A 
HETATM   12  C   UNK N   1      36.493   8.491  16.655  0.00  0.00     0.000 A 
HETATM   13  C   UNK N   1      35.203   9.007  16.794  0.00  0.00     0.001 A 
HETATM   14  C   UNK N   1      34.893  10.260  16.264  0.00  0.00     0.010 A 
ENDBRANCH   8   9
BRANCH   8  15
HETATM   15  C   UNK N   1      35.943  13.502  15.959  0.00  0.00    -0.025 A 
HETATM   16  C   UNK N   1      35.278  13.627  17.184  0.00  0.00     0.010 A 
HETATM   17  C   UNK N   1      35.606  14.666  18.059  0.00  0.00     0.001 A 
HETATM   18  C   UNK N   1      36.601  15.585  17.712  0.00  0.00     0.000 A 
HETATM   19  C   UNK N   1      37.274  15.461  16.493  0.00  0.00     0.001 A 
HETATM   20  C   UNK N   1      36.947  14.421  15.618  0.00  0.00     0.010 A 
ENDBRANCH   8  15
ENDBRANCH   7   8
ENDBRANCH   1   7
BRANCH   4  21
HETATM   21  C   UNK N   1      34.172  13.535   9.497  0.00  0.00     0.272 C 
BRANCH  21  22
HETATM   22  C   UNK N   1      34.116  14.522   8.329  0.00  0.00     0.038 C 
BRANCH  22  23
HETATM   23  C   UNK N   1      33.260  15.734   8.679  0.00  0.00     0.080 C 
BRANCH  23  24
HETATM   24  C   UNK N   1      34.053  16.997   8.585  0.00  0.00     0.106 A 
HETATM   25  N   UNK N   1      34.892  17.453   9.529  0.00  0.00    -0.274 N 
HETATM   26  N   UNK N   1      35.370  18.593   9.054  0.00  0.00    -0.007 NA
HETATM   27  H   UNK N   1      35.108  17.029  10.392  0.00  0.00     0.185 HD
HETATM   28  N   UNK N   1      34.842  18.830   7.863  0.00  0.00    -0.007 NA
HETATM   29  N   UNK N   1      34.012  17.848   7.547  0.00  0.00    -0.274 N 
ATOM     30  HN  UNK N   1      33.460  17.756   6.694  1.00  0.00     0.185 HD
ENDBRANCH  23  24
ENDBRANCH  22  23
ENDBRANCH  21  22
ENDBRANCH   4  21
TORSDOF 8
ENDMDL
MODEL 2
REMARK VINA RESULT:      -7.3      1.069      3.532
REMARK  8 active torsions:
REMARK  status: ('A' for Active; 'I' for Inactive)
REMARK    1  A    between atoms: C_4  and  C_5 
REMARK    2  A    between atoms: C_5  and  O_6 
REMARK    3  A    between atoms: C_5  and  C_22 
REMARK    4  A    between atoms: O_6  and  C_7 
REMARK    5  A    between atoms: N_10  and  C_11 
REMARK    6  A    between atoms: C_11  and  C_12 
REMARK    7  A    between atoms: C_12  and  C_13 
REMARK    8  A    between atoms: C_13  and  C_14 
ROOT
HETATM    1  C   UNK N   1      34.816  12.841  12.684  0.00  0.00     0.126 C 
HETATM    2  C   UNK N   1      35.250  14.175  12.075  0.00  0.00     0.062 C 
HETATM    3  C   UNK N   1      36.539  14.038  11.249  0.00  0.00     0.275 C 
HETATM    4  N   UNK N   1      36.549  12.868  10.355  0.00  0.00     0.088 N 
HETATM    5  C   UNK N   1      36.333  11.636  11.119  0.00  0.00     0.275 C 
HETATM    6  C   UNK N   1      34.966  11.614  11.797  0.00  0.00     0.062 C 
ENDROOT
BRANCH   1   7
HETATM    7  O   UNK N   1      34.961  12.643  14.077  0.00  0.00    -0.371 OA
BRANCH   7   8
HETATM    8  C   UNK N   1      36.301  12.796  14.499  0.00  0.00     0.188 C 
BRANCH   8   9
HETATM    9  C   UNK N   1      36.328  13.734  15.691  0.00  0.00    -0.025 A 
HETATM   10  C   UNK N   1      37.182  14.846  15.672  0.00  0.00     0.010 A 
HETATM   11  C   UNK N   1      37.214  15.733  16.754  0.00  0.00     0.001 A 
HETATM   12  C   UNK N   1      36.396  15.516  17.866  0.00  0.00     0.000 A 
HETATM   13  C   UNK N   1      35.546  14.409  17.899  0.00  0.00     0.001 A 
HETATM   14  C   UNK N   1      35.512  13.524  16.820  0.00  0.00     0.010 A 
ENDBRANCH   8   9
BRANCH   8  15
HETATM   15  C   UNK N   1      36.912  11.450  14.815  0.00  0.00    -0.025 A 
HETATM   16  C   UNK N   1      36.209  10.542  15.616  0.00  0.00     0.010 A 
HETATM   17  C   UNK N   1      36.772   9.303  15.932  0.00  0.00     0.001 A 
HETATM   18  C   UNK N   1      38.040   8.966  15.448  0.00  0.00     0.000 A 
HETATM   19  C   UNK N   1      38.743   9.867  14.642  0.00  0.00     0.001 A 
HETATM   20  C   UNK N   1      38.180  11.106  14.325  0.00  0.00     0.010 A 
ENDBRANCH   8  15
ENDBRANCH   7   8
ENDBRANCH   1   7
BRANCH   4  21
HETATM   21  C   UNK N   1      35.583  13.002   9.260  0.00  0.00     0.272 C 
BRANCH  21  22
HETATM   22  C   UNK N   1      35.775  14.326   8.515  0.00  0.00     0.038 C 
BRANCH  22  23
HETATM   23  C   UNK N   1      34.587  14.619   7.608  0.00  0.00     0.080 C 
BRANCH  23  24
HETATM   24  C   UNK N   1      34.494  16.078   7.299  0.00  0.00     0.106 A 
HETATM   25  N   UNK N   1      34.679  17.068   8.188  0.00  0.00    -0.274 N 
HETATM   26  N   UNK N   1      34.495  18.190   7.509  0.00  0.00    -0.007 NA
HETATM   27  H   UNK N   1      34.902  16.979   9.143  0.00  0.00     0.185 HD
HETATM   28  N   UNK N   1      34.207  17.900   6.249  0.00  0.00    -0.007 NA
HETATM   29  N   UNK N   1      34.198  16.586   6.091  0.00  0.00    -0.274 N 
ATOM     30  HN  UNK N   1      34.008  16.068   5.234  1.00  0.00     0.185 HD
ENDBRANCH  23  24
ENDBRANCH  22  23
ENDBRANCH  21  22
ENDBRANCH   4  21
TORSDOF 8
ENDMDL
MODEL 3
REMARK VINA RESULT:      -7.2      9.969     13.681
REMARK  8 active torsions:
REMARK  status: ('A' for Active; 'I' for Inactive)
REMARK    1  A    between atoms: C_4  and  C_5 
REMARK    2  A    between atoms: C_5  and  O_6 
REMARK    3  A    between atoms: C_5  and  C_22 
REMARK    4  A    between atoms: O_6  and  C_7 
REMARK    5  A    between atoms: N_10  and  C_11 
REMARK    6  A    between atoms: C_11  and  C_12 
REMARK    7  A    between atoms: C_12  and  C_13 
REMARK    8  A    between atoms: C_13  and  C_14 
ROOT
HETATM    1  C   UNK N   1      27.514  18.869   4.042  0.00  0.00     0.126 C 
HETATM    2  C   UNK N   1      26.688  17.582   3.980  0.00  0.00     0.062 C 
HETATM    3  C   UNK N   1      25.515  17.605   4.975  0.00  0.00     0.275 C 
HETATM    4  N   UNK N   1      24.767  18.872   4.981  0.00  0.00     0.088 N 
HETATM    5  C   UNK N   1      25.663  19.996   5.268  0.00  0.00     0.275 C 
HETATM    6  C   UNK N   1      26.733  20.165   4.193  0.00  0.00     0.062 C 
ENDROOT
BRANCH   1   7
HETATM    7  O   UNK N   1      28.803  18.829   4.621  0.00  0.00    -0.371 OA
BRANCH   7   8
HETATM    8  C   UNK N   1      29.080  17.578   5.218  0.00  0.00     0.188 C 
BRANCH   8   9
HETATM    9  C   UNK N   1      30.304  16.983   4.548  0.00  0.00    -0.025 A 
HETATM   10  C   UNK N   1      30.324  15.615   4.241  0.00  0.00     0.010 A 
HETATM   11  C   UNK N   1      31.437  15.046   3.611  0.00  0.00     0.001 A 
HETATM   12  C   UNK N   1      32.540  15.838   3.283  0.00  0.00     0.000 A 
HETATM   13  C   UNK N   1      32.535  17.201   3.588  0.00  0.00     0.001 A 
HETATM   14  C   UNK N   1      31.425  17.770   4.216  0.00  0.00     0.010 A 
ENDBRANCH   8   9
BRANCH   8  15
HETATM   15  C   UNK N   1      29.262  17.733   6.710  0.00  0.00    -0.025 A 
HETATM   16  C   UNK N   1      28.236  18.298   7.477  0.00  0.00     0.010 A 
HETATM   17  C   UNK N   1      28.400  18.465   8.855  0.00  0.00     0.001 A 
HETATM   18  C   UNK N   1      29.590  18.067   9.471  0.00  0.00     0.000 A 
HETATM   19  C   UNK N   1      30.615  17.496   8.710  0.00  0.00     0.001 A 
HETATM   20  C   UNK N   1      30.451  17.328   7.333  0.00  0.00     0.010 A 
ENDBRANCH   8  15
ENDBRANCH   7   8
ENDBRANCH   1   7
BRANCH   4  21
HETATM   21  C   UNK N   1      24.020  19.079   3.735  0.00  0.00     0.272 C 
BRANCH  21  22
HETATM   22  C   UNK N   1      22.676  18.349   3.772  0.00  0.00     0.038 C 
BRANCH  22  23
HETATM   23  C   UNK N   1      21.523  19.336   3.915  0.00  0.00     0.080 C 
BRANCH  23  24
HETATM   24  C   UNK N   1      21.231  20.013   2.615  0.00  0.00     0.106 A 
HETATM   25  N   UNK N   1      21.076  21.338   2.453  0.00  0.00    -0.274 N 
HETATM   26  N   UNK N   1      20.822  21.506   1.165  0.00  0.00    -0.007 NA
HETATM   27  H   UNK N   1      21.138  22.035   3.145  0.00  0.00     0.185 HD
HETATM   28  N   UNK N   1      20.819  20.329   0.557  0.00  0.00    -0.007 NA
HETATM   29  N   UNK N   1      21.070  19.378   1.443  0.00  0.00    -0.274 N 
ATOM     30  HN  UNK N   1      21.130  18.374   1.271  1.00  0.00     0.185 HD
ENDBRANCH  23  24
ENDBRANCH  22  23
ENDBRANCH  21  22
ENDBRANCH   4  21
TORSDOF 8
ENDMDL
MODEL 4
REMARK VINA RESULT:      -7.2     10.177     12.999
REMARK  8 active torsions:
REMARK  status: ('A' for Active; 'I' for Inactive)
REMARK    1  A    between atoms: C_4  and  C_5 
REMARK    2  A    between atoms: C_5  and  O_6 
REMARK    3  A    between atoms: C_5  and  C_22 
REMARK    4  A    between atoms: O_6  and  C_7 
REMARK    5  A    between atoms: N_10  and  C_11 
REMARK    6  A    between atoms: C_11  and  C_12 
REMARK    7  A    between atoms: C_12  and  C_13 
REMARK    8  A    between atoms: C_13  and  C_14 
ROOT
HETATM    1  C   UNK N   1      27.601  15.243   5.831  0.00  0.00     0.126 C 
HETATM    2  C   UNK N   1      26.607  15.618   6.932  0.00  0.00     0.062 C 
HETATM    3  C   UNK N   1      25.155  15.330   6.517  0.00  0.00     0.275 C 
HETATM    4  N   UNK N   1      24.970  14.017   5.877  0.00  0.00     0.088 N 
HETATM    5  C   UNK N   1      25.840  13.890   4.705  0.00  0.00     0.275 C 
HETATM    6  C   UNK N   1      27.318  13.951   5.079  0.00  0.00     0.062 C 
ENDROOT
BRANCH   1   7
HETATM    7  O   UNK N   1      28.247  16.273   5.111  0.00  0.00    -0.371 OA
BRANCH   7   8
HETATM    8  C   UNK N   1      28.794  17.258   5.965  0.00  0.00     0.188 C 
BRANCH   8   9
HETATM    9  C   UNK N   1      30.294  17.312   5.743  0.00  0.00    -0.025 A 
HETATM   10  C   UNK N   1      31.155  17.222   6.845  0.00  0.00     0.010 A 
HETATM   11  C   UNK N   1      32.543  17.257   6.664  0.00  0.00     0.001 A 
HETATM   12  C   UNK N   1      33.081  17.383   5.381  0.00  0.00     0.000 A 
HETATM   13  C   UNK N   1      32.233  17.480   4.276  0.00  0.00     0.001 A 
HETATM   14  C   UNK N   1      30.849  17.444   4.455  0.00  0.00     0.010 A 
ENDBRANCH   8   9
BRANCH   8  15
HETATM   15  C   UNK N   1      28.130  18.594   5.723  0.00  0.00    -0.025 A 
HETATM   16  C   UNK N   1      27.700  18.930   4.434  0.00  0.00     0.010 A 
HETATM   17  C   UNK N   1      27.103  20.170   4.194  0.00  0.00     0.001 A 
HETATM   18  C   UNK N   1      26.933  21.080   5.242  0.00  0.00     0.000 A 
HETATM   19  C   UNK N   1      27.354  20.746   6.533  0.00  0.00     0.001 A 
HETATM   20  C   UNK N   1      27.950  19.506   6.774  0.00  0.00     0.010 A 
ENDBRANCH   8  15
ENDBRANCH   7   8
ENDBRANCH   1   7
BRANCH   4  21
HETATM   21  C   UNK N   1      25.167  12.911   6.821  0.00  0.00     0.272 C 
BRANCH  21  22
HETATM   22  C   UNK N   1      24.367  13.135   8.106  0.00  0.00     0.038 C 
BRANCH  22  23
HETATM   23  C   UNK N   1      23.896  11.810   8.694  0.00  0.00     0.080 C 
BRANCH  23  24
HETATM   24  C   UNK N   1      23.849  11.871  10.186  0.00  0.00     0.106 A 
HETATM   25  N   UNK N   1      22.788  11.535  10.939  0.00  0.00    -0.274 N 
HETATM   26  N   UNK N   1      23.164  11.747  12.190  0.00  0.00    -0.007 NA
HETATM   27  H   UNK N   1      21.916  11.202  10.626  0.00  0.00     0.185 HD
HETATM   28  N   UNK N   1      24.410  12.198  12.207  0.00  0.00    -0.007 NA
HETATM   29  N   UNK N   1      24.861  12.287  10.966  0.00  0.00    -0.274 N 
ATOM     30  HN  UNK N   1      25.782  12.604  10.664  1.00  0.00     0.185 HD
ENDBRANCH  23  24
ENDBRANCH  22  23
ENDBRANCH  21  22
ENDBRANCH   4  21
TORSDOF 8
ENDMDL
MODEL 5
REMARK VINA RESULT:      -7.2      1.294      1.915
REMARK  8 active torsions:
REMARK  status: ('A' for Active; 'I' for Inactive)
REMARK    1  A    between atoms: C_4  and  C_5 
REMARK    2  A    between atoms: C_5  and  O_6 
REMARK    3  A    between atoms: C_5  and  C_22 
REMARK    4  A    between atoms: O_6  and  C_7 
REMARK    5  A    between atoms: N_10  and  C_11 
REMARK    6  A    between atoms: C_11  and  C_12 
REMARK    7  A    between atoms: C_12  and  C_13 
REMARK    8  A    between atoms: C_13  and  C_14 
ROOT
HETATM    1  C   UNK N   1      36.277  12.965  12.208  0.00  0.00     0.126 C 
HETATM    2  C   UNK N   1      35.062  13.846  11.911  0.00  0.00     0.062 C 
HETATM    3  C   UNK N   1      35.411  15.007  10.965  0.00  0.00     0.275 C 
HETATM    4  N   UNK N   1      36.234  14.605   9.812  0.00  0.00     0.088 N 
HETATM    5  C   UNK N   1      37.471  13.963  10.264  0.00  0.00     0.275 C 
HETATM    6  C   UNK N   1      37.201  12.674  11.035  0.00  0.00     0.062 C 
ENDROOT
BRANCH   1   7
HETATM    7  O   UNK N   1      36.872  13.025  13.489  0.00  0.00    -0.371 OA
BRANCH   7   8
HETATM    8  C   UNK N   1      35.957  12.702  14.516  0.00  0.00     0.188 C 
BRANCH   8   9
HETATM    9  C   UNK N   1      36.169  11.254  14.915  0.00  0.00    -0.025 A 
HETATM   10  C   UNK N   1      37.470  10.788  15.149  0.00  0.00     0.010 A 
HETATM   11  C   UNK N   1      37.690   9.460  15.531  0.00  0.00     0.001 A 
HETATM   12  C   UNK N   1      36.611   8.585  15.682  0.00  0.00     0.000 A 
HETATM   13  C   UNK N   1      35.310   9.035  15.447  0.00  0.00     0.001 A 
HETATM   14  C   UNK N   1      35.090  10.360  15.067  0.00  0.00     0.010 A 
ENDBRANCH   8   9
BRANCH   8  15
HETATM   15  C   UNK N   1      36.117  13.648  15.683  0.00  0.00    -0.025 A 
HETATM   16  C   UNK N   1      37.043  14.695  15.604  0.00  0.00     0.010 A 
HETATM   17  C   UNK N   1      37.215  15.564  16.684  0.00  0.00     0.001 A 
HETATM   18  C   UNK N   1      36.463  15.390  17.849  0.00  0.00     0.000 A 
HETATM   19  C   UNK N   1      35.532  14.350  17.932  0.00  0.00     0.001 A 
HETATM   20  C   UNK N   1      35.358  13.481  16.851  0.00  0.00     0.010 A 
ENDBRANCH   8  15
ENDBRANCH   7   8
ENDBRANCH   1   7
BRANCH   4  21
HETATM   21  C   UNK N   1      35.493  13.753   8.875  0.00  0.00     0.272 C 
BRANCH  21  22
HETATM   22  C   UNK N   1      35.831  14.107   7.425  0.00  0.00     0.038 C 
BRANCH  22  23
HETATM   23  C   UNK N   1      34.572  14.459   6.641  0.00  0.00     0.080 C 
BRANCH  23  24
HETATM   24  C   UNK N   1      34.389  15.939   6.554  0.00  0.00     0.106 A 
HETATM   25  N   UNK N   1      34.003  16.605   5.453  0.00  0.00    -0.274 N 
HETATM   26  N   UNK N   1      33.981  17.881   5.804  0.00  0.00    -0.007 NA
HETATM   27  H   UNK N   1      33.783  16.225   4.572  0.00  0.00     0.185 HD
HETATM   28  N   UNK N   1      34.342  17.996   7.074  0.00  0.00    -0.007 NA
HETATM   29  N   UNK N   1      34.605  16.796   7.566  0.00  0.00    -0.274 N 
ATOM     30  HN  UNK N   1      34.907  16.569   8.513  1.00  0.00     0.185 HD
ENDBRANCH  23  24
ENDBRANCH  22  23
ENDBRANCH  21  22
ENDBRANCH   4  21
TORSDOF 8
ENDMDL
MODEL 6
REMARK VINA RESULT:      -7.1      4.027      9.675
REMARK  8 active torsions:
REMARK  status: ('A' for Active; 'I' for Inactive)
REMARK    1  A    between atoms: C_4  and  C_5 
REMARK    2  A    between atoms: C_5  and  O_6 
REMARK    3  A    between atoms: C_5  and  C_22 
REMARK    4  A    between atoms: O_6  and  C_7 
REMARK    5  A    between atoms: N_10  and  C_11 
REMARK    6  A    between atoms: C_11  and  C_12 
REMARK    7  A    between atoms: C_12  and  C_13 
REMARK    8  A    between atoms: C_13  and  C_14 
ROOT
HETATM    1  C   UNK N   1      32.877  14.367   8.321  0.00  0.00     0.126 C 
HETATM    2  C   UNK N   1      34.141  13.834   7.645  0.00  0.00     0.062 C 
HETATM    3  C   UNK N   1      35.338  14.781   7.835  0.00  0.00     0.275 C 
HETATM    4  N   UNK N   1      35.484  15.282   9.212  0.00  0.00     0.088 N 
HETATM    5  C   UNK N   1      34.260  15.960   9.644  0.00  0.00     0.275 C 
HETATM    6  C   UNK N   1      33.063  15.014   9.685  0.00  0.00     0.062 C 
ENDROOT
BRANCH   1   7
HETATM    7  O   UNK N   1      31.827  14.867   7.516  0.00  0.00    -0.371 OA
BRANCH   7   8
HETATM    8  C   UNK N   1      32.008  16.229   7.191  0.00  0.00     0.188 C 
BRANCH   8   9
HETATM    9  C   UNK N   1      32.184  16.349   5.688  0.00  0.00    -0.025 A 
HETATM   10  C   UNK N   1      31.922  15.239   4.874  0.00  0.00     0.010 A 
HETATM   11  C   UNK N   1      32.064  15.329   3.485  0.00  0.00     0.001 A 
HETATM   12  C   UNK N   1      32.471  16.530   2.897  0.00  0.00     0.000 A 
HETATM   13  C   UNK N   1      32.741  17.642   3.698  0.00  0.00     0.001 A 
HETATM   14  C   UNK N   1      32.599  17.553   5.083  0.00  0.00     0.010 A 
ENDBRANCH   8   9
BRANCH   8  15
HETATM   15  C   UNK N   1      30.848  17.053   7.699  0.00  0.00    -0.025 A 
HETATM   16  C   UNK N   1      29.586  16.908   7.110  0.00  0.00     0.010 A 
HETATM   17  C   UNK N   1      28.509  17.677   7.558  0.00  0.00     0.001 A 
HETATM   18  C   UNK N   1      28.690  18.596   8.597  0.00  0.00     0.000 A 
HETATM   19  C   UNK N   1      29.946  18.740   9.193  0.00  0.00     0.001 A 
HETATM   20  C   UNK N   1      31.023  17.969   8.746  0.00  0.00     0.010 A 
ENDBRANCH   8  15
ENDBRANCH   7   8
ENDBRANCH   1   7
BRANCH   4  21
HETATM   21  C   UNK N   1      35.875  14.221  10.147  0.00  0.00     0.272 C 
BRANCH  21  22
HETATM   22  C   UNK N   1      35.925  14.745  11.584  0.00  0.00     0.038 C 
BRANCH  22  23
HETATM   23  C   UNK N   1      35.331  13.732  12.555  0.00  0.00     0.080 C 
BRANCH  23  24
HETATM   24  C   UNK N   1      35.898  13.907  13.927  0.00  0.00     0.106 A 
HETATM   25  N   UNK N   1      35.470  13.264  15.026  0.00  0.00    -0.274 N 
HETATM   26  N   UNK N   1      36.226  13.717  16.014  0.00  0.00    -0.007 NA
HETATM   27  H   UNK N   1      34.748  12.597  15.085  0.00  0.00     0.185 HD
HETATM   28  N   UNK N   1      37.085  14.607  15.540  0.00  0.00    -0.007 NA
HETATM   29  N   UNK N   1      36.900  14.746  14.238  0.00  0.00    -0.274 N 
ATOM     30  HN  UNK N   1      37.410  15.360  13.603  1.00  0.00     0.185 HD
ENDBRANCH  23  24
ENDBRANCH  22  23
ENDBRANCH  21  22
ENDBRANCH   4  21
TORSDOF 8
ENDMDL
MODEL 7
REMARK VINA RESULT:      -7.0      5.564     11.473
REMARK  8 active torsions:
REMARK  status: ('A' for Active; 'I' for Inactive)
REMARK    1  A    between atoms: C_4  and  C_5 
REMARK    2  A    between atoms: C_5  and  O_6 
REMARK    3  A    between atoms: C_5  and  C_22 
REMARK    4  A    between atoms: O_6  and  C_7 
REMARK    5  A    between atoms: N_10  and  C_11 
REMARK    6  A    between atoms: C_11  and  C_12 
REMARK    7  A    between atoms: C_12  and  C_13 
REMARK    8  A    between atoms: C_13  and  C_14 
ROOT
HETATM    1  C   UNK N   1      31.210  17.438   6.565  0.00  0.00     0.126 C 
HETATM    2  C   UNK N   1      31.078  17.337   8.085  0.00  0.00     0.062 C 
HETATM    3  C   UNK N   1      31.886  16.159   8.655  0.00  0.00     0.275 C 
HETATM    4  N   UNK N   1      33.245  16.049   8.100  0.00  0.00     0.088 N 
HETATM    5  C   UNK N   1      33.196  15.938   6.639  0.00  0.00     0.275 C 
HETATM    6  C   UNK N   1      32.594  17.181   5.989  0.00  0.00     0.062 C 
ENDROOT
BRANCH   1   7
HETATM    7  O   UNK N   1      30.106  17.084   5.755  0.00  0.00    -0.371 OA
BRANCH   7   8
HETATM    8  C   UNK N   1      28.877  17.232   6.437  0.00  0.00     0.188 C 
BRANCH   8   9
HETATM    9  C   UNK N   1      28.246  18.546   6.018  0.00  0.00    -0.025 A 
HETATM   10  C   UNK N   1      27.850  19.464   7.001  0.00  0.00     0.010 A 
HETATM   11  C   UNK N   1      27.278  20.688   6.638  0.00  0.00     0.001 A 
HETATM   12  C   UNK N   1      27.094  21.005   5.289  0.00  0.00     0.000 A 
HETATM   13  C   UNK N   1      27.478  20.097   4.301  0.00  0.00     0.001 A 
HETATM   14  C   UNK N   1      28.050  18.876   4.662  0.00  0.00     0.010 A 
ENDBRANCH   8   9
BRANCH   8  15
HETATM   15  C   UNK N   1      27.976  16.050   6.163  0.00  0.00    -0.025 A 
HETATM   16  C   UNK N   1      26.725  15.975   6.786  0.00  0.00     0.010 A 
HETATM   17  C   UNK N   1      25.891  14.877   6.557  0.00  0.00     0.001 A 
HETATM   18  C   UNK N   1      26.305  13.850   5.703  0.00  0.00     0.000 A 
HETATM   19  C   UNK N   1      27.551  13.924   5.073  0.00  0.00     0.001 A 
HETATM   20  C   UNK N   1      28.385  15.021   5.301  0.00  0.00     0.010 A 
ENDBRANCH   8  15
ENDBRANCH   7   8
ENDBRANCH   1   7
BRANCH   4  21
HETATM   21  C   UNK N   1      34.108  17.155   8.530  0.00  0.00     0.272 C 
BRANCH  21  22
HETATM   22  C   UNK N   1      34.804  16.827   9.853  0.00  0.00     0.038 C 
BRANCH  22  23
HETATM   23  C   UNK N   1      35.347  15.403   9.846  0.00  0.00     0.080 C 
BRANCH  23  24
HETATM   24  C   UNK N   1      35.406  14.844  11.230  0.00  0.00     0.106 A 
HETATM   25  N   UNK N   1      36.298  15.201  12.169  0.00  0.00    -0.274 N 
HETATM   26  N   UNK N   1      36.006  14.464  13.229  0.00  0.00    -0.007 NA
HETATM   27  H   UNK N   1      37.016  15.869  12.087  0.00  0.00     0.185 HD
HETATM   28  N   UNK N   1      34.973  13.681  12.952  0.00  0.00    -0.007 NA
HETATM   29  N   UNK N   1      34.580  13.898  11.707  0.00  0.00    -0.274 N 
ATOM     30  HN  UNK N   1      33.812  13.443  11.214  1.00  0.00     0.185 HD
ENDBRANCH  23  24
ENDBRANCH  22  23
ENDBRANCH  21  22
ENDBRANCH   4  21
TORSDOF 8
ENDMDL
MODEL 8
REMARK VINA RESULT:      -7.0     18.645     22.476
REMARK  8 active torsions:
REMARK  status: ('A' for Active; 'I' for Inactive)
REMARK    1  A    between atoms: C_4  and  C_5 
REMARK    2  A    between atoms: C_5  and  O_6 
REMARK    3  A    between atoms: C_5  and  C_22 
REMARK    4  A    between atoms: O_6  and  C_7 
REMARK    5  A    between atoms: N_10  and  C_11 
REMARK    6  A    between atoms: C_11  and  C_12 
REMARK    7  A    between atoms: C_12  and  C_13 
REMARK    8  A    between atoms: C_13  and  C_14 
ROOT
HETATM    1  C   UNK N   1      29.386  23.279  -4.707  0.00  0.00     0.126 C 
HETATM    2  C   UNK N   1      30.156  24.056  -3.637  0.00  0.00     0.062 C 
HETATM    3  C   UNK N   1      30.652  23.140  -2.507  0.00  0.00     0.275 C 
HETATM    4  N   UNK N   1      31.264  21.889  -2.983  0.00  0.00     0.088 N 
HETATM    5  C   UNK N   1      30.323  21.146  -3.826  0.00  0.00     0.275 C 
HETATM    6  C   UNK N   1      29.951  21.919  -5.088  0.00  0.00     0.062 C 
ENDROOT
BRANCH   1   7
HETATM    7  O   UNK N   1      27.984  23.434  -4.792  0.00  0.00    -0.371 OA
BRANCH   7   8
HETATM    8  C   UNK N   1      27.599  24.174  -5.932  0.00  0.00     0.188 C 
BRANCH   8   9
HETATM    9  C   UNK N   1      26.871  23.247  -6.888  0.00  0.00    -0.025 A 
HETATM   10  C   UNK N   1      25.704  22.598  -6.461  0.00  0.00     0.010 A 
HETATM   11  C   UNK N   1      25.007  21.749  -7.329  0.00  0.00     0.001 A 
HETATM   12  C   UNK N   1      25.472  21.540  -8.630  0.00  0.00     0.000 A 
HETATM   13  C   UNK N   1      26.637  22.176  -9.065  0.00  0.00     0.001 A 
HETATM   14  C   UNK N   1      27.331  23.024  -8.200  0.00  0.00     0.010 A 
ENDBRANCH   8   9
BRANCH   8  15
HETATM   15  C   UNK N   1      26.755  25.362  -5.531  0.00  0.00    -0.025 A 
HETATM   16  C   UNK N   1      25.994  26.029  -6.499  0.00  0.00     0.010 A 
HETATM   17  C   UNK N   1      25.226  27.141  -6.144  0.00  0.00     0.001 A 
HETATM   18  C   UNK N   1      25.214  27.590  -4.820  0.00  0.00     0.000 A 
HETATM   19  C   UNK N   1      25.965  26.923  -3.848  0.00  0.00     0.001 A 
HETATM   20  C   UNK N   1      26.734  25.810  -4.202  0.00  0.00     0.010 A 
ENDBRANCH   8  15
ENDBRANCH   7   8
ENDBRANCH   1   7
BRANCH   4  21
HETATM   21  C   UNK N   1      32.539  22.123  -3.671  0.00  0.00     0.272 C 
BRANCH  21  22
HETATM   22  C   UNK N   1      33.557  21.034  -3.328  0.00  0.00     0.038 C 
BRANCH  22  23
HETATM   23  C   UNK N   1      34.118  20.394  -4.593  0.00  0.00     0.080 C 
BRANCH  23  24
HETATM   24  C   UNK N   1      34.567  18.993  -4.332  0.00  0.00     0.106 A 
HETATM   25  N   UNK N   1      35.782  18.504  -4.632  0.00  0.00    -0.274 N 
HETATM   26  N   UNK N   1      35.754  17.236  -4.250  0.00  0.00    -0.007 NA
HETATM   27  H   UNK N   1      36.533  18.986  -5.047  0.00  0.00     0.185 HD
HETATM   28  N   UNK N   1      34.565  16.956  -3.736  0.00  0.00    -0.007 NA
HETATM   29  N   UNK N   1      33.803  18.037  -3.778  0.00  0.00    -0.274 N 
ATOM     30  HN  UNK N   1      32.839  18.127  -3.456  1.00  0.00     0.185 HD
ENDBRANCH  23  24
ENDBRANCH  22  23
ENDBRANCH  21  22
ENDBRANCH   4  21
TORSDOF 8
ENDMDL
MODEL 9
REMARK VINA RESULT:      -7.0      1.550      4.023
REMARK  8 active torsions:
REMARK  status: ('A' for Active; 'I' for Inactive)
REMARK    1  A    between atoms: C_4  and  C_5 
REMARK    2  A    between atoms: C_5  and  O_6 
REMARK    3  A    between atoms: C_5  and  C_22 
REMARK    4  A    between atoms: O_6  and  C_7 
REMARK    5  A    between atoms: N_10  and  C_11 
REMARK    6  A    between atoms: C_11  and  C_12 
REMARK    7  A    between atoms: C_12  and  C_13 
REMARK    8  A    between atoms: C_13  and  C_14 
ROOT
HETATM    1  C   UNK N   1      35.553  13.865  12.162  0.00  0.00     0.126 C 
HETATM    2  C   UNK N   1      35.783  12.852  11.038  0.00  0.00     0.062 C 
HETATM    3  C   UNK N   1      34.660  12.893   9.989  0.00  0.00     0.275 C 
HETATM    4  N   UNK N   1      34.277  14.256   9.583  0.00  0.00     0.088 N 
HETATM    5  C   UNK N   1      33.875  15.045  10.751  0.00  0.00     0.275 C 
HETATM    6  C   UNK N   1      35.020  15.226  11.743  0.00  0.00     0.062 C 
ENDROOT
BRANCH   1   7
HETATM    7  O   UNK N   1      35.175  13.396  13.441  0.00  0.00    -0.371 OA
BRANCH   7   8
HETATM    8  C   UNK N   1      36.287  12.985  14.208  0.00  0.00     0.188 C 
BRANCH   8   9
HETATM    9  C   UNK N   1      36.329  13.810  15.481  0.00  0.00    -0.025 A 
HETATM   10  C   UNK N   1      37.180  14.922  15.552  0.00  0.00     0.010 A 
HETATM   11  C   UNK N   1      37.225  15.706  16.711  0.00  0.00     0.001 A 
HETATM   12  C   UNK N   1      36.423  15.385  17.808  0.00  0.00     0.000 A 
HETATM   13  C   UNK N   1      35.576  14.276  17.752  0.00  0.00     0.001 A 
HETATM   14  C   UNK N   1      35.528  13.494  16.596  0.00  0.00     0.010 A 
ENDBRANCH   8   9
BRANCH   8  15
HETATM   15  C   UNK N   1      36.217  11.502  14.489  0.00  0.00    -0.025 A 
HETATM   16  C   UNK N   1      37.350  10.833  14.965  0.00  0.00     0.010 A 
HETATM   17  C   UNK N   1      37.304   9.458  15.209  0.00  0.00     0.001 A 
HETATM   18  C   UNK N   1      36.123   8.746  14.978  0.00  0.00     0.000 A 
HETATM   19  C   UNK N   1      34.985   9.411  14.510  0.00  0.00     0.001 A 
HETATM   20  C   UNK N   1      35.031  10.786  14.266  0.00  0.00     0.010 A 
ENDBRANCH   8  15
ENDBRANCH   7   8
ENDBRANCH   1   7
BRANCH   4  21
HETATM   21  C   UNK N   1      35.336  14.923   8.818  0.00  0.00     0.272 C 
BRANCH  21  22
HETATM   22  C   UNK N   1      34.785  15.523   7.523  0.00  0.00     0.038 C 
BRANCH  22  23
HETATM   23  C   UNK N   1      34.433  16.994   7.710  0.00  0.00     0.080 C 
BRANCH  23  24
HETATM   24  C   UNK N   1      32.953  17.190   7.759  0.00  0.00     0.106 A 
HETATM   25  N   UNK N   1      32.111  16.971   6.734  0.00  0.00    -0.274 N 
HETATM   26  N   UNK N   1      30.909  17.276   7.196  0.00  0.00    -0.007 NA
HETATM   27  H   UNK N   1      32.340  16.651   5.832  0.00  0.00     0.185 HD
HETATM   28  N   UNK N   1      31.007  17.670   8.457  0.00  0.00    -0.007 NA
HETATM   29  N   UNK N   1      32.275  17.627   8.833  0.00  0.00    -0.274 N 
ATOM     30  HN  UNK N   1      32.658  17.874   9.746  1.00  0.00     0.185 HD
ENDBRANCH  23  24
ENDBRANCH  22  23
ENDBRANCH  21  22
ENDBRANCH   4  21
TORSDOF 8
ENDMDL
