REMARK  8 active torsions:
REMARK  status: ('A' for Active; 'I' for Inactive)
REMARK    1  A    between atoms: C_4  and  C_5 
REMARK    2  A    between atoms: C_5  and  O_6 
REMARK    3  A    between atoms: C_5  and  C_22 
REMARK    4  A    between atoms: O_6  and  C_7 
REMARK    5  A    between atoms: N_10  and  C_11 
REMARK    6  A    between atoms: C_11  and  C_12 
REMARK    7  A    between atoms: C_12  and  C_13 
REMARK    8  A    between atoms: C_13  and  C_14 
ROOT
HETATM    1  C   UNK N   1       0.905   0.972  -0.871  0.00  0.00     0.126 C 
HETATM    2  C   UNK N   1       1.664   1.835   0.139  0.00  0.00     0.062 C 
HETATM    3  C   UNK N   1       2.130   1.019   1.356  0.00  0.00     0.275 C 
HETATM    4  N   UNK N   1       2.736  -0.276   1.005  0.00  0.00     0.088 N 
HETATM    5  C   UNK N   1       1.802  -1.082   0.214  0.00  0.00     0.275 C 
HETATM    6  C   UNK N   1       1.461  -0.422  -1.119  0.00  0.00     0.062 C 
ENDROOT
BRANCH   1   7
HETATM    7  O   UNK N   1      -0.494   1.133  -0.996  0.00  0.00    -0.371 OA
BRANCH   7   8
HETATM    8  C   UNK N   1      -1.190   0.630   0.126  0.00  0.00     0.188 C 
BRANCH   8   9
HETATM    9  C   UNK N   1      -2.503   1.379   0.257  0.00  0.00    -0.025 A 
HETATM   10  C   UNK N   1      -2.488   2.773   0.404  0.00  0.00     0.010 A 
HETATM   11  C   UNK N   1      -3.687   3.487   0.513  0.00  0.00     0.001 A 
HETATM   12  C   UNK N   1      -4.911   2.814   0.478  0.00  0.00     0.000 A 
HETATM   13  C   UNK N   1      -4.939   1.425   0.338  0.00  0.00     0.001 A 
HETATM   14  C   UNK N   1      -3.744   0.712   0.228  0.00  0.00     0.010 A 
ENDBRANCH   8   9
BRANCH   8  15
HETATM   15  C   UNK N   1      -1.392  -0.862  -0.003  0.00  0.00    -0.025 A 
HETATM   16  C   UNK N   1      -1.015  -1.705   1.049  0.00  0.00     0.010 A 
HETATM   17  C   UNK N   1      -1.178  -3.088   0.934  0.00  0.00     0.001 A 
HETATM   18  C   UNK N   1      -1.719  -3.634  -0.234  0.00  0.00     0.000 A 
HETATM   19  C   UNK N   1      -2.104  -2.796  -1.285  0.00  0.00     0.001 A 
HETATM   20  C   UNK N   1      -1.942  -1.413  -1.170  0.00  0.00     0.010 A 
ENDBRANCH   8  15
ENDBRANCH   7   8
ENDBRANCH   1   7
BRANCH   4  21
HETATM   21  C   UNK N   1       4.025  -0.116   0.323  0.00  0.00     0.272 C 
BRANCH  21  22
HETATM   22  C   UNK N   1       4.789  -1.441   0.273  0.00  0.00     0.038 C 
BRANCH  22  23
HETATM   23  C   UNK N   1       4.354  -2.277  -0.925  0.00  0.00     0.080 C 
BRANCH  23  24
HETATM   24  C   UNK N   1       3.907  -3.637  -0.497  0.00  0.00     0.106 A 
HETATM   25  N   UNK N   1       4.692  -4.560   0.083  0.00  0.00    -0.274 N 
HETATM   26  N   UNK N   1       3.911  -5.610   0.283  0.00  0.00    -0.007 NA
HETATM   27  H   UNK N   1       5.646  -4.474   0.311  0.00  0.00     0.185 HD
HETATM   28  N   UNK N   1       2.691  -5.343  -0.159  0.00  0.00    -0.007 NA
HETATM   29  N   UNK N   1       2.662  -4.116  -0.654  0.00  0.00    -0.274 N 
ATOM     30  HN  UNK N   1       1.863  -3.635  -1.067  1.00  0.00     0.185 HD
ENDBRANCH  23  24
ENDBRANCH  22  23
ENDBRANCH  21  22
ENDBRANCH   4  21
TORSDOF 8
