MODEL 1
REMARK VINA RESULT:      -5.9      0.000      0.000
REMARK  8 active torsions:
REMARK  status: ('A' for Active; 'I' for Inactive)
REMARK    1  A    between atoms: C_1  and  O_2 
REMARK    2  A    between atoms: C_4  and  C_14 
REMARK    3  A    between atoms: N_5  and  O_6 
REMARK    4  A    between atoms: C_14  and  C_16 
REMARK    5  A    between atoms: C_15  and  C_16 
REMARK    6  A    between atoms: C_15  and  C_17 
REMARK    7  A    between atoms: C_17  and  C_18 
REMARK    8  A    between atoms: C_18  and  C_19 
ROOT
HETATM    1  C   UNK N   1      29.068  17.926   4.817  0.00  0.00     0.080 A 
HETATM    2  C   UNK N   1      29.744  17.298   5.861  0.00  0.00     0.065 A 
HETATM    3  C   UNK N   1      29.503  17.685   7.184  0.00  0.00     0.043 A 
HETATM    4  N   UNK N   1      28.599  18.677   7.458  0.00  0.00    -0.228 N 
HETATM    5  C   UNK N   1      27.921  19.308   6.449  0.00  0.00     0.075 A 
HETATM    6  C   UNK N   1      27.003  20.331   6.740  0.00  0.00     0.033 A 
HETATM    7  C   UNK N   1      26.326  20.986   5.708  0.00  0.00     0.002 A 
HETATM    8  C   UNK N   1      26.558  20.626   4.378  0.00  0.00     0.001 A 
HETATM    9  C   UNK N   1      27.465  19.607   4.074  0.00  0.00     0.016 A 
HETATM   10  C   UNK N   1      28.150  18.944   5.103  0.00  0.00     0.026 A 
ENDROOT
BRANCH   3  11
HETATM   11  C   UNK N   1      30.292  17.037   8.281  0.00  0.00     0.060 C 
BRANCH  11  12
HETATM   12  C   UNK N   1      31.618  17.735   8.522  0.00  0.00     0.006 C 
BRANCH  12  13
HETATM   13  C   UNK N   1      32.737  16.889   7.945  0.00  0.00     0.000 C 
BRANCH  13  14
HETATM   14  C   UNK N   1      33.594  17.731   7.020  0.00  0.00     0.000 C 
BRANCH  14  15
HETATM   15  C   UNK N   1      33.772  17.010   5.699  0.00  0.00    -0.000 C 
BRANCH  15  16
HETATM   16  C   UNK N   1      33.009  17.738   4.612  0.00  0.00    -0.005 C 
HETATM   17  C   UNK N   1      32.804  16.812   3.430  0.00  0.00     0.005 C 
ENDBRANCH  15  16
ENDBRANCH  14  15
ENDBRANCH  13  14
ENDBRANCH  12  13
ENDBRANCH  11  12
ENDBRANCH   3  11
BRANCH   4  18
HETATM   18  O   UNK N   1      28.386  19.045   8.721  0.00  0.00    -0.282 OA
ATOM     19  HO  UNK N   1      27.689  19.660   8.920  1.00  0.00     0.245 HD
ENDBRANCH   4  18
BRANCH   1  20
HETATM   20  O   UNK N   1      29.313  17.557   3.547  0.00  0.00    -0.360 OA
HETATM   21  H   UNK N   1      30.092  17.081   3.338  0.00  0.00     0.217 HD
ENDBRANCH   1  20
TORSDOF 8
ENDMDL
MODEL 2
REMARK VINA RESULT:      -5.8      1.196      3.124
REMARK  8 active torsions:
REMARK  status: ('A' for Active; 'I' for Inactive)
REMARK    1  A    between atoms: C_1  and  O_2 
REMARK    2  A    between atoms: C_4  and  C_14 
REMARK    3  A    between atoms: N_5  and  O_6 
REMARK    4  A    between atoms: C_14  and  C_16 
REMARK    5  A    between atoms: C_15  and  C_16 
REMARK    6  A    between atoms: C_15  and  C_17 
REMARK    7  A    between atoms: C_17  and  C_18 
REMARK    8  A    between atoms: C_18  and  C_19 
ROOT
HETATM    1  C   UNK N   1      28.277  18.484   7.786  0.00  0.00     0.080 A 
HETATM    2  C   UNK N   1      29.120  17.410   7.506  0.00  0.00     0.065 A 
HETATM    3  C   UNK N   1      29.487  17.135   6.184  0.00  0.00     0.043 A 
HETATM    4  N   UNK N   1      29.025  17.922   5.163  0.00  0.00    -0.228 N 
HETATM    5  C   UNK N   1      28.197  18.983   5.412  0.00  0.00     0.075 A 
HETATM    6  C   UNK N   1      27.722  19.778   4.357  0.00  0.00     0.033 A 
HETATM    7  C   UNK N   1      26.863  20.850   4.612  0.00  0.00     0.002 A 
HETATM    8  C   UNK N   1      26.471  21.138   5.922  0.00  0.00     0.001 A 
HETATM    9  C   UNK N   1      26.940  20.358   6.983  0.00  0.00     0.016 A 
HETATM   10  C   UNK N   1      27.803  19.280   6.737  0.00  0.00     0.026 A 
ENDROOT
BRANCH   3  11
HETATM   11  C   UNK N   1      30.342  15.935   5.907  0.00  0.00     0.060 C 
BRANCH  11  12
HETATM   12  C   UNK N   1      31.753  16.102   6.441  0.00  0.00     0.006 C 
BRANCH  12  13
HETATM   13  C   UNK N   1      32.474  17.153   5.617  0.00  0.00     0.000 C 
BRANCH  13  14
HETATM   14  C   UNK N   1      33.748  17.574   6.324  0.00  0.00     0.000 C 
BRANCH  14  15
HETATM   15  C   UNK N   1      33.415  18.061   7.721  0.00  0.00    -0.000 C 
BRANCH  15  16
HETATM   16  C   UNK N   1      34.526  17.677   8.675  0.00  0.00    -0.005 C 
HETATM   17  C   UNK N   1      34.178  16.371   9.358  0.00  0.00     0.005 C 
ENDBRANCH  15  16
ENDBRANCH  14  15
ENDBRANCH  13  14
ENDBRANCH  12  13
ENDBRANCH  11  12
ENDBRANCH   3  11
BRANCH   4  18
HETATM   18  O   UNK N   1      29.374  17.643   3.907  0.00  0.00    -0.282 OA
ATOM     19  HO  UNK N   1      29.106  18.226   3.205  1.00  0.00     0.245 HD
ENDBRANCH   4  18
BRANCH   1  20
HETATM   20  O   UNK N   1      27.918  18.735   9.057  0.00  0.00    -0.360 OA
HETATM   21  H   UNK N   1      27.081  19.111   9.245  0.00  0.00     0.217 HD
ENDBRANCH   1  20
TORSDOF 8
ENDMDL
MODEL 3
REMARK VINA RESULT:      -5.7      1.451      5.997
REMARK  8 active torsions:
REMARK  status: ('A' for Active; 'I' for Inactive)
REMARK    1  A    between atoms: C_1  and  O_2 
REMARK    2  A    between atoms: C_4  and  C_14 
REMARK    3  A    between atoms: N_5  and  O_6 
REMARK    4  A    between atoms: C_14  and  C_16 
REMARK    5  A    between atoms: C_15  and  C_16 
REMARK    6  A    between atoms: C_15  and  C_17 
REMARK    7  A    between atoms: C_17  and  C_18 
REMARK    8  A    between atoms: C_18  and  C_19 
ROOT
HETATM    1  C   UNK N   1      30.208  17.639   8.387  0.00  0.00     0.080 A 
HETATM    2  C   UNK N   1      29.025  17.314   7.725  0.00  0.00     0.065 A 
HETATM    3  C   UNK N   1      29.059  16.921   6.383  0.00  0.00     0.043 A 
HETATM    4  N   UNK N   1      30.254  16.849   5.716  0.00  0.00    -0.228 N 
HETATM    5  C   UNK N   1      31.429  17.161   6.345  0.00  0.00     0.075 A 
HETATM    6  C   UNK N   1      32.648  17.093   5.650  0.00  0.00     0.033 A 
HETATM    7  C   UNK N   1      33.844  17.429   6.288  0.00  0.00     0.002 A 
HETATM    8  C   UNK N   1      33.835  17.836   7.625  0.00  0.00     0.001 A 
HETATM    9  C   UNK N   1      32.631  17.905   8.330  0.00  0.00     0.016 A 
HETATM   10  C   UNK N   1      31.424  17.569   7.699  0.00  0.00     0.026 A 
ENDROOT
BRANCH   3  11
HETATM   11  C   UNK N   1      27.766  16.641   5.679  0.00  0.00     0.060 C 
BRANCH  11  12
HETATM   12  C   UNK N   1      26.945  17.900   5.468  0.00  0.00     0.006 C 
BRANCH  12  13
HETATM   13  C   UNK N   1      27.292  18.498   4.117  0.00  0.00     0.000 C 
BRANCH  13  14
HETATM   14  C   UNK N   1      27.244  20.012   4.199  0.00  0.00     0.000 C 
BRANCH  14  15
HETATM   15  C   UNK N   1      27.896  20.470   5.489  0.00  0.00    -0.000 C 
BRANCH  15  16
HETATM   16  C   UNK N   1      27.131  21.648   6.057  0.00  0.00    -0.005 C 
HETATM   17  C   UNK N   1      26.297  21.189   7.234  0.00  0.00     0.005 C 
ENDBRANCH  15  16
ENDBRANCH  14  15
ENDBRANCH  13  14
ENDBRANCH  12  13
ENDBRANCH  11  12
ENDBRANCH   3  11
BRANCH   4  18
HETATM   18  O   UNK N   1      30.273  16.484   4.434  0.00  0.00    -0.282 OA
ATOM     19  HO  UNK N   1      30.033  15.595   4.196  1.00  0.00     0.245 HD
ENDBRANCH   4  18
BRANCH   1  20
HETATM   20  O   UNK N   1      30.166  18.026   9.674  0.00  0.00    -0.360 OA
HETATM   21  H   UNK N   1      29.552  18.678   9.949  0.00  0.00     0.217 HD
ENDBRANCH   1  20
TORSDOF 8
ENDMDL
MODEL 4
REMARK VINA RESULT:      -5.5     12.722     14.404
REMARK  8 active torsions:
REMARK  status: ('A' for Active; 'I' for Inactive)
REMARK    1  A    between atoms: C_1  and  O_2 
REMARK    2  A    between atoms: C_4  and  C_14 
REMARK    3  A    between atoms: N_5  and  O_6 
REMARK    4  A    between atoms: C_14  and  C_16 
REMARK    5  A    between atoms: C_15  and  C_16 
REMARK    6  A    between atoms: C_15  and  C_17 
REMARK    7  A    between atoms: C_17  and  C_18 
REMARK    8  A    between atoms: C_18  and  C_19 
ROOT
HETATM    1  C   UNK N   1      26.279  24.364  -4.202  0.00  0.00     0.080 A 
HETATM    2  C   UNK N   1      26.148  23.556  -5.331  0.00  0.00     0.065 A 
HETATM    3  C   UNK N   1      25.972  24.137  -6.591  0.00  0.00     0.043 A 
HETATM    4  N   UNK N   1      25.934  25.501  -6.722  0.00  0.00    -0.228 N 
HETATM    5  C   UNK N   1      26.061  26.315  -5.629  0.00  0.00     0.075 A 
HETATM    6  C   UNK N   1      26.011  27.711  -5.772  0.00  0.00     0.033 A 
HETATM    7  C   UNK N   1      26.124  28.540  -4.653  0.00  0.00     0.002 A 
HETATM    8  C   UNK N   1      26.288  27.984  -3.382  0.00  0.00     0.001 A 
HETATM    9  C   UNK N   1      26.344  26.597  -3.225  0.00  0.00     0.016 A 
HETATM   10  C   UNK N   1      26.232  25.755  -4.342  0.00  0.00     0.026 A 
ENDROOT
BRANCH   3  11
HETATM   11  C   UNK N   1      25.769  23.243  -7.777  0.00  0.00     0.060 C 
BRANCH  11  12
HETATM   12  C   UNK N   1      25.169  21.904  -7.388  0.00  0.00     0.006 C 
BRANCH  12  13
HETATM   13  C   UNK N   1      25.905  20.798  -8.120  0.00  0.00     0.000 C 
BRANCH  13  14
HETATM   14  C   UNK N   1      27.289  21.277  -8.517  0.00  0.00     0.000 C 
BRANCH  14  15
HETATM   15  C   UNK N   1      28.315  20.225  -8.145  0.00  0.00    -0.000 C 
BRANCH  15  16
HETATM   16  C   UNK N   1      29.550  20.894  -7.578  0.00  0.00    -0.005 C 
HETATM   17  C   UNK N   1      29.153  21.799  -6.430  0.00  0.00     0.005 C 
ENDBRANCH  15  16
ENDBRANCH  14  15
ENDBRANCH  13  14
ENDBRANCH  12  13
ENDBRANCH  11  12
ENDBRANCH   3  11
BRANCH   4  18
HETATM   18  O   UNK N   1      25.754  26.042  -7.926  0.00  0.00    -0.282 OA
ATOM     19  HO  UNK N   1      25.045  26.661  -8.062  1.00  0.00     0.245 HD
ENDBRANCH   4  18
BRANCH   1  20
HETATM   20  O   UNK N   1      26.436  23.798  -2.993  0.00  0.00    -0.360 OA
HETATM   21  H   UNK N   1      26.254  24.289  -2.216  0.00  0.00     0.217 HD
ENDBRANCH   1  20
TORSDOF 8
ENDMDL
MODEL 5
REMARK VINA RESULT:      -5.5      5.871      8.326
REMARK  8 active torsions:
REMARK  status: ('A' for Active; 'I' for Inactive)
REMARK    1  A    between atoms: C_1  and  O_2 
REMARK    2  A    between atoms: C_4  and  C_14 
REMARK    3  A    between atoms: N_5  and  O_6 
REMARK    4  A    between atoms: C_14  and  C_16 
REMARK    5  A    between atoms: C_15  and  C_16 
REMARK    6  A    between atoms: C_15  and  C_17 
REMARK    7  A    between atoms: C_17  and  C_18 
REMARK    8  A    between atoms: C_18  and  C_19 
ROOT
HETATM    1  C   UNK N   1      33.178  14.527   9.455  0.00  0.00     0.080 A 
HETATM    2  C   UNK N   1      33.986  14.348  10.577  0.00  0.00     0.065 A 
HETATM    3  C   UNK N   1      34.915  15.331  10.933  0.00  0.00     0.043 A 
HETATM    4  N   UNK N   1      35.030  16.474  10.186  0.00  0.00    -0.228 N 
HETATM    5  C   UNK N   1      34.247  16.673   9.082  0.00  0.00     0.075 A 
HETATM    6  C   UNK N   1      34.380  17.844   8.317  0.00  0.00     0.033 A 
HETATM    7  C   UNK N   1      33.592  18.037   7.180  0.00  0.00     0.002 A 
HETATM    8  C   UNK N   1      32.665  17.065   6.795  0.00  0.00     0.001 A 
HETATM    9  C   UNK N   1      32.519  15.897   7.549  0.00  0.00     0.016 A 
HETATM   10  C   UNK N   1      33.305  15.693   8.692  0.00  0.00     0.026 A 
ENDROOT
BRANCH   3  11
HETATM   11  C   UNK N   1      35.815  15.082  12.106  0.00  0.00     0.060 C 
BRANCH  11  12
HETATM   12  C   UNK N   1      35.357  13.898  12.938  0.00  0.00     0.006 C 
BRANCH  12  13
HETATM   13  C   UNK N   1      36.463  13.510  13.901  0.00  0.00     0.000 C 
BRANCH  13  14
HETATM   14  C   UNK N   1      36.070  12.254  14.654  0.00  0.00     0.000 C 
BRANCH  14  15
HETATM   15  C   UNK N   1      34.609  12.336  15.049  0.00  0.00    -0.000 C 
BRANCH  15  16
HETATM   16  C   UNK N   1      33.979  10.961  14.964  0.00  0.00    -0.005 C 
HETATM   17  C   UNK N   1      33.937  10.512  13.518  0.00  0.00     0.005 C 
ENDBRANCH  15  16
ENDBRANCH  14  15
ENDBRANCH  13  14
ENDBRANCH  12  13
ENDBRANCH  11  12
ENDBRANCH   3  11
BRANCH   4  18
HETATM   18  O   UNK N   1      35.927  17.398  10.530  0.00  0.00    -0.282 OA
ATOM     19  HO  UNK N   1      36.165  18.077   9.908  1.00  0.00     0.245 HD
ENDBRANCH   4  18
BRANCH   1  20
HETATM   20  O   UNK N   1      32.295  13.573   9.111  0.00  0.00    -0.360 OA
HETATM   21  H   UNK N   1      31.559  13.784   8.572  0.00  0.00     0.217 HD
ENDBRANCH   1  20
TORSDOF 8
ENDMDL
MODEL 6
REMARK VINA RESULT:      -5.5      7.649     11.099
REMARK  8 active torsions:
REMARK  status: ('A' for Active; 'I' for Inactive)
REMARK    1  A    between atoms: C_1  and  O_2 
REMARK    2  A    between atoms: C_4  and  C_14 
REMARK    3  A    between atoms: N_5  and  O_6 
REMARK    4  A    between atoms: C_14  and  C_16 
REMARK    5  A    between atoms: C_15  and  C_16 
REMARK    6  A    between atoms: C_15  and  C_17 
REMARK    7  A    between atoms: C_17  and  C_18 
REMARK    8  A    between atoms: C_18  and  C_19 
ROOT
HETATM    1  C   UNK N   1      36.565  13.874  14.606  0.00  0.00     0.080 A 
HETATM    2  C   UNK N   1      36.413  14.404  13.325  0.00  0.00     0.065 A 
HETATM    3  C   UNK N   1      35.589  13.760  12.396  0.00  0.00     0.043 A 
HETATM    4  N   UNK N   1      34.925  12.613  12.742  0.00  0.00    -0.228 N 
HETATM    5  C   UNK N   1      35.057  12.075  13.993  0.00  0.00     0.075 A 
HETATM    6  C   UNK N   1      34.379  10.893  14.335  0.00  0.00     0.033 A 
HETATM    7  C   UNK N   1      34.528  10.336  15.607  0.00  0.00     0.002 A 
HETATM    8  C   UNK N   1      35.355  10.953  16.550  0.00  0.00     0.001 A 
HETATM    9  C   UNK N   1      36.032  12.131  16.226  0.00  0.00     0.016 A 
HETATM   10  C   UNK N   1      35.889  12.699  14.951  0.00  0.00     0.026 A 
ENDROOT
BRANCH   3  11
HETATM   11  C   UNK N   1      35.496  14.316  11.007  0.00  0.00     0.060 C 
BRANCH  11  12
HETATM   12  C   UNK N   1      36.239  15.632  10.866  0.00  0.00     0.006 C 
BRANCH  12  13
HETATM   13  C   UNK N   1      35.244  16.732  10.547  0.00  0.00     0.000 C 
BRANCH  13  14
HETATM   14  C   UNK N   1      34.750  16.581   9.121  0.00  0.00     0.000 C 
BRANCH  14  15
HETATM   15  C   UNK N   1      34.594  17.951   8.492  0.00  0.00    -0.000 C 
BRANCH  15  16
HETATM   16  C   UNK N   1      33.397  17.953   7.564  0.00  0.00    -0.005 C 
HETATM   17  C   UNK N   1      32.123  17.882   8.380  0.00  0.00     0.005 C 
ENDBRANCH  15  16
ENDBRANCH  14  15
ENDBRANCH  13  14
ENDBRANCH  12  13
ENDBRANCH  11  12
ENDBRANCH   3  11
BRANCH   4  18
HETATM   18  O   UNK N   1      34.152  12.003  11.843  0.00  0.00    -0.282 OA
ATOM     19  HO  UNK N   1      33.647  11.239  12.100  1.00  0.00     0.245 HD
ENDBRANCH   4  18
BRANCH   1  20
HETATM   20  O   UNK N   1      37.368  14.492  15.491  0.00  0.00    -0.360 OA
HETATM   21  H   UNK N   1      37.449  15.425  15.481  0.00  0.00     0.217 HD
ENDBRANCH   1  20
TORSDOF 8
ENDMDL
MODEL 7
REMARK VINA RESULT:      -5.5     10.233     13.487
REMARK  8 active torsions:
REMARK  status: ('A' for Active; 'I' for Inactive)
REMARK    1  A    between atoms: C_1  and  O_2 
REMARK    2  A    between atoms: C_4  and  C_14 
REMARK    3  A    between atoms: N_5  and  O_6 
REMARK    4  A    between atoms: C_14  and  C_16 
REMARK    5  A    between atoms: C_15  and  C_16 
REMARK    6  A    between atoms: C_15  and  C_17 
REMARK    7  A    between atoms: C_17  and  C_18 
REMARK    8  A    between atoms: C_18  and  C_19 
ROOT
HETATM    1  C   UNK N   1      30.250  22.878  -2.599  0.00  0.00     0.080 A 
HETATM    2  C   UNK N   1      29.116  23.477  -3.144  0.00  0.00     0.065 A 
HETATM    3  C   UNK N   1      28.823  23.314  -4.502  0.00  0.00     0.043 A 
HETATM    4  N   UNK N   1      29.645  22.562  -5.299  0.00  0.00    -0.228 N 
HETATM    5  C   UNK N   1      30.764  21.962  -4.786  0.00  0.00     0.075 A 
HETATM    6  C   UNK N   1      31.605  21.201  -5.613  0.00  0.00     0.033 A 
HETATM    7  C   UNK N   1      32.756  20.604  -5.092  0.00  0.00     0.002 A 
HETATM    8  C   UNK N   1      33.077  20.762  -3.742  0.00  0.00     0.001 A 
HETATM    9  C   UNK N   1      32.247  21.513  -2.906  0.00  0.00     0.016 A 
HETATM   10  C   UNK N   1      31.090  22.116  -3.419  0.00  0.00     0.026 A 
ENDROOT
BRANCH   3  11
HETATM   11  C   UNK N   1      27.632  24.023  -5.074  0.00  0.00     0.060 C 
BRANCH  11  12
HETATM   12  C   UNK N   1      26.659  24.467  -3.998  0.00  0.00     0.006 C 
BRANCH  12  13
HETATM   13  C   UNK N   1      26.172  25.869  -4.315  0.00  0.00     0.000 C 
BRANCH  13  14
HETATM   14  C   UNK N   1      25.305  25.841  -5.559  0.00  0.00     0.000 C 
BRANCH  14  15
HETATM   15  C   UNK N   1      25.676  27.003  -6.460  0.00  0.00    -0.000 C 
BRANCH  15  16
HETATM   16  C   UNK N   1      26.633  27.927  -5.736  0.00  0.00    -0.005 C 
HETATM   17  C   UNK N   1      27.666  28.451  -6.711  0.00  0.00     0.005 C 
ENDBRANCH  15  16
ENDBRANCH  14  15
ENDBRANCH  13  14
ENDBRANCH  12  13
ENDBRANCH  11  12
ENDBRANCH   3  11
BRANCH   4  18
HETATM   18  O   UNK N   1      29.361  22.423  -6.594  0.00  0.00    -0.282 OA
ATOM     19  HO  UNK N   1      29.088  21.575  -6.926  1.00  0.00     0.245 HD
ENDBRANCH   4  18
BRANCH   1  20
HETATM   20  O   UNK N   1      30.532  23.049  -1.295  0.00  0.00    -0.360 OA
HETATM   21  H   UNK N   1      30.686  22.306  -0.745  0.00  0.00     0.217 HD
ENDBRANCH   1  20
TORSDOF 8
ENDMDL
MODEL 8
REMARK VINA RESULT:      -5.5      1.534      6.261
REMARK  8 active torsions:
REMARK  status: ('A' for Active; 'I' for Inactive)
REMARK    1  A    between atoms: C_1  and  O_2 
REMARK    2  A    between atoms: C_4  and  C_14 
REMARK    3  A    between atoms: N_5  and  O_6 
REMARK    4  A    between atoms: C_14  and  C_16 
REMARK    5  A    between atoms: C_15  and  C_16 
REMARK    6  A    between atoms: C_15  and  C_17 
REMARK    7  A    between atoms: C_17  and  C_18 
REMARK    8  A    between atoms: C_18  and  C_19 
ROOT
HETATM    1  C   UNK N   1      30.645  17.399   8.122  0.00  0.00     0.080 A 
HETATM    2  C   UNK N   1      29.359  17.700   7.676  0.00  0.00     0.065 A 
HETATM    3  C   UNK N   1      29.104  17.815   6.305  0.00  0.00     0.043 A 
HETATM    4  N   UNK N   1      30.113  17.627   5.398  0.00  0.00    -0.228 N 
HETATM    5  C   UNK N   1      31.383  17.330   5.812  0.00  0.00     0.075 A 
HETATM    6  C   UNK N   1      32.413  17.148   4.874  0.00  0.00     0.033 A 
HETATM    7  C   UNK N   1      33.713  16.862   5.299  0.00  0.00     0.002 A 
HETATM    8  C   UNK N   1      33.996  16.754   6.663  0.00  0.00     0.001 A 
HETATM    9  C   UNK N   1      32.981  16.928   7.608  0.00  0.00     0.016 A 
HETATM   10  C   UNK N   1      31.673  17.215   7.191  0.00  0.00     0.026 A 
ENDROOT
BRANCH   3  11
HETATM   11  C   UNK N   1      27.727  18.203   5.857  0.00  0.00     0.060 C 
BRANCH  11  12
HETATM   12  C   UNK N   1      27.383  19.631   6.238  0.00  0.00     0.006 C 
BRANCH  12  13
HETATM   13  C   UNK N   1      27.444  20.504   4.999  0.00  0.00     0.000 C 
BRANCH  13  14
HETATM   14  C   UNK N   1      26.979  19.714   3.791  0.00  0.00     0.000 C 
BRANCH  14  15
HETATM   15  C   UNK N   1      25.979  20.537   3.003  0.00  0.00    -0.000 C 
BRANCH  15  16
HETATM   16  C   UNK N   1      24.572  20.192   3.445  0.00  0.00    -0.005 C 
HETATM   17  C   UNK N   1      24.514  18.736   3.859  0.00  0.00     0.005 C 
ENDBRANCH  15  16
ENDBRANCH  14  15
ENDBRANCH  13  14
ENDBRANCH  12  13
ENDBRANCH  11  12
ENDBRANCH   3  11
BRANCH   4  18
HETATM   18  O   UNK N   1      29.859  17.750   4.095  0.00  0.00    -0.282 OA
ATOM     19  HO  UNK N   1      30.581  17.836   3.482  1.00  0.00     0.245 HD
ENDBRANCH   4  18
BRANCH   1  20
HETATM   20  O   UNK N   1      30.886  17.302   9.442  0.00  0.00    -0.360 OA
HETATM   21  H   UNK N   1      30.261  16.889  10.005  0.00  0.00     0.217 HD
ENDBRANCH   1  20
TORSDOF 8
ENDMDL
MODEL 9
REMARK VINA RESULT:      -5.5      4.702      6.779
REMARK  8 active torsions:
REMARK  status: ('A' for Active; 'I' for Inactive)
REMARK    1  A    between atoms: C_1  and  O_2 
REMARK    2  A    between atoms: C_4  and  C_14 
REMARK    3  A    between atoms: N_5  and  O_6 
REMARK    4  A    between atoms: C_14  and  C_16 
REMARK    5  A    between atoms: C_15  and  C_16 
REMARK    6  A    between atoms: C_15  and  C_17 
REMARK    7  A    between atoms: C_17  and  C_18 
REMARK    8  A    between atoms: C_18  and  C_19 
ROOT
HETATM    1  C   UNK N   1      23.314  17.540   4.131  0.00  0.00     0.080 A 
HETATM    2  C   UNK N   1      24.471  18.317   4.106  0.00  0.00     0.065 A 
HETATM    3  C   UNK N   1      24.418  19.635   3.637  0.00  0.00     0.043 A 
HETATM    4  N   UNK N   1      23.231  20.166   3.207  0.00  0.00    -0.228 N 
HETATM    5  C   UNK N   1      22.081  19.423   3.224  0.00  0.00     0.075 A 
HETATM    6  C   UNK N   1      20.871  19.975   2.772  0.00  0.00     0.033 A 
HETATM    7  C   UNK N   1      19.702  19.209   2.774  0.00  0.00     0.002 A 
HETATM    8  C   UNK N   1      19.731  17.888   3.226  0.00  0.00     0.001 A 
HETATM    9  C   UNK N   1      20.927  17.327   3.682  0.00  0.00     0.016 A 
HETATM   10  C   UNK N   1      22.105  18.087   3.685  0.00  0.00     0.026 A 
ENDROOT
BRANCH   3  11
HETATM   11  C   UNK N   1      25.690  20.425   3.560  0.00  0.00     0.060 C 
BRANCH  11  12
HETATM   12  C   UNK N   1      26.756  19.885   4.495  0.00  0.00     0.006 C 
BRANCH  12  13
HETATM   13  C   UNK N   1      27.076  20.934   5.543  0.00  0.00     0.000 C 
BRANCH  13  14
HETATM   14  C   UNK N   1      27.640  20.267   6.783  0.00  0.00     0.000 C 
BRANCH  14  15
HETATM   15  C   UNK N   1      27.823  18.785   6.521  0.00  0.00    -0.000 C 
BRANCH  15  16
HETATM   16  C   UNK N   1      28.831  18.214   7.496  0.00  0.00    -0.005 C 
HETATM   17  C   UNK N   1      28.286  18.317   8.906  0.00  0.00     0.005 C 
ENDBRANCH  15  16
ENDBRANCH  14  15
ENDBRANCH  13  14
ENDBRANCH  12  13
ENDBRANCH  11  12
ENDBRANCH   3  11
BRANCH   4  18
HETATM   18  O   UNK N   1      23.196  21.419   2.752  0.00  0.00    -0.282 OA
ATOM     19  HO  UNK N   1      22.967  22.127   3.344  1.00  0.00     0.245 HD
ENDBRANCH   4  18
BRANCH   1  20
HETATM   20  O   UNK N   1      23.374  16.271   4.572  0.00  0.00    -0.360 OA
HETATM   21  H   UNK N   1      23.915  15.645   4.133  0.00  0.00     0.217 HD
ENDBRANCH   1  20
TORSDOF 8
ENDMDL
