REMARK  8 active torsions:
REMARK  status: ('A' for Active; 'I' for Inactive)
REMARK    1  A    between atoms: C_1  and  O_2 
REMARK    2  A    between atoms: C_4  and  C_14 
REMARK    3  A    between atoms: N_5  and  O_6 
REMARK    4  A    between atoms: C_14  and  C_16 
REMARK    5  A    between atoms: C_15  and  C_16 
REMARK    6  A    between atoms: C_15  and  C_17 
REMARK    7  A    between atoms: C_17  and  C_18 
REMARK    8  A    between atoms: C_18  and  C_19 
ROOT
HETATM    1  C   UNK N   1      -3.208   0.705  -0.028  0.00  0.00     0.080 A 
HETATM    2  C   UNK N   1      -2.032   1.444   0.091  0.00  0.00     0.065 A 
HETATM    3  C   UNK N   1      -0.802   0.787   0.204  0.00  0.00     0.043 A 
HETATM    4  N   UNK N   1      -0.748  -0.582   0.193  0.00  0.00    -0.228 N 
HETATM    5  C   UNK N   1      -1.889  -1.329   0.076  0.00  0.00     0.075 A 
HETATM    6  C   UNK N   1      -1.824  -2.732   0.075  0.00  0.00     0.033 A 
HETATM    7  C   UNK N   1      -2.991  -3.493  -0.027  0.00  0.00     0.002 A 
HETATM    8  C   UNK N   1      -4.233  -2.861  -0.129  0.00  0.00     0.001 A 
HETATM    9  C   UNK N   1      -4.313  -1.466  -0.134  0.00  0.00     0.016 A 
HETATM   10  C   UNK N   1      -3.147  -0.693  -0.032  0.00  0.00     0.026 A 
ENDROOT
BRANCH   3  11
HETATM   11  C   UNK N   1       0.439   1.606   0.396  0.00  0.00     0.060 C 
BRANCH  11  12
HETATM   12  C   UNK N   1       1.479   1.328  -0.674  0.00  0.00     0.006 C 
BRANCH  12  13
HETATM   13  C   UNK N   1       2.843   1.752  -0.163  0.00  0.00     0.000 C 
BRANCH  13  14
HETATM   14  C   UNK N   1       3.786   0.564  -0.170  0.00  0.00     0.000 C 
BRANCH  14  15
HETATM   15  C   UNK N   1       5.198   1.037   0.114  0.00  0.00    -0.000 C 
BRANCH  15  16
HETATM   16  C   UNK N   1       6.164  -0.120  -0.033  0.00  0.00    -0.005 C 
HETATM   17  C   UNK N   1       7.586   0.394   0.053  0.00  0.00     0.005 C 
ENDBRANCH  15  16
ENDBRANCH  14  15
ENDBRANCH  13  14
ENDBRANCH  12  13
ENDBRANCH  11  12
ENDBRANCH   3  11
BRANCH   4  18
HETATM   18  O   UNK N   1       0.429  -1.196   0.313  0.00  0.00    -0.282 OA
ATOM     19  HO  UNK N   1       0.466  -2.146   0.305  1.00  0.00     0.245 HD
ENDBRANCH   4  18
BRANCH   1  20
HETATM   20  O   UNK N   1      -4.388   1.343  -0.125  0.00  0.00    -0.360 OA
HETATM   21  H   UNK N   1      -4.414   2.277  -0.193  0.00  0.00     0.217 HD
ENDBRANCH   1  20
TORSDOF 8
