MODEL 1
REMARK VINA RESULT:      -6.0      0.000      0.000
REMARK  1 active torsions:
REMARK  status: ('A' for Active; 'I' for Inactive)
REMARK    1  A    between atoms: C_15  and  O_16 
ROOT
HETATM    1  C   UNK N   1      27.453  16.390   6.482  0.00  0.00     0.070 C 
HETATM    2  C   UNK N   1      28.329  17.125   7.435  0.00  0.00     0.033 A 
HETATM    3  N   UNK N   1      27.788  17.866   8.448  0.00  0.00    -0.368 N 
ATOM      4  HN  UNK N   1      26.774  17.910   8.545  1.00  0.00     0.165 HD
HETATM    5  C   UNK N   1      28.576  18.553   9.339  0.00  0.00     0.089 A 
HETATM    6  C   UNK N   1      29.981  18.516   9.238  0.00  0.00     0.031 A 
HETATM    7  C   UNK N   1      30.519  17.757   8.202  0.00  0.00     0.006 A 
HETATM    8  C   UNK N   1      29.712  17.078   7.322  0.00  0.00     0.066 A 
HETATM    9  N   UNK N   1      30.437  16.409   6.398  0.00  0.00    -0.353 N 
HETATM   10  C   UNK N   1      31.720  16.679   6.713  0.00  0.00     0.046 A 
HETATM   11  C   UNK N   1      32.843  16.215   6.049  0.00  0.00     0.067 A 
HETATM   12  C   UNK N   1      31.811  17.503   7.813  0.00  0.00     0.003 A 
HETATM   13  C   UNK N   1      33.043  17.914   8.318  0.00  0.00     0.017 A 
HETATM   14  C   UNK N   1      34.205  17.455   7.662  0.00  0.00     0.038 A 
HETATM   15  C   UNK N   1      34.112  16.607   6.529  0.00  0.00     0.070 A 
HETATM   16  H   UNK N   1      30.104  15.849   5.660  0.00  0.00     0.166 HD
ENDROOT
BRANCH  15  17
HETATM   17  O   UNK N   1      35.245  16.185   5.921  0.00  0.00    -0.356 OA
HETATM   18  C   UNK N   1      35.506  14.856   5.667  0.00  0.00     0.210 C 
ENDBRANCH  15  17
TORSDOF 1
ENDMDL
MODEL 2
REMARK VINA RESULT:      -5.9      3.811      5.867
REMARK  1 active torsions:
REMARK  status: ('A' for Active; 'I' for Inactive)
REMARK    1  A    between atoms: C_15  and  O_16 
ROOT
HETATM    1  C   UNK N   1      31.252  15.901   7.099  0.00  0.00     0.070 C 
HETATM    2  C   UNK N   1      30.359  16.883   7.772  0.00  0.00     0.033 A 
HETATM    3  N   UNK N   1      30.358  17.002   9.134  0.00  0.00    -0.368 N 
ATOM      4  HN  UNK N   1      30.978  16.409   9.685  1.00  0.00     0.165 HD
HETATM    5  C   UNK N   1      29.543  17.900   9.779  0.00  0.00     0.089 A 
HETATM    6  C   UNK N   1      28.673  18.736   9.052  0.00  0.00     0.031 A 
HETATM    7  C   UNK N   1      28.684  18.605   7.666  0.00  0.00     0.006 A 
HETATM    8  C   UNK N   1      29.507  17.700   7.042  0.00  0.00     0.066 A 
HETATM    9  N   UNK N   1      29.359  17.737   5.698  0.00  0.00    -0.353 N 
HETATM   10  C   UNK N   1      28.424  18.685   5.487  0.00  0.00     0.046 A 
HETATM   11  C   UNK N   1      27.929  19.090   4.258  0.00  0.00     0.067 A 
HETATM   12  C   UNK N   1      27.986  19.240   6.669  0.00  0.00     0.003 A 
HETATM   13  C   UNK N   1      27.018  20.242   6.691  0.00  0.00     0.017 A 
HETATM   14  C   UNK N   1      26.496  20.675   5.453  0.00  0.00     0.038 A 
HETATM   15  C   UNK N   1      26.946  20.103   4.236  0.00  0.00     0.070 A 
HETATM   16  H   UNK N   1      29.828  17.193   5.025  0.00  0.00     0.166 HD
ENDROOT
BRANCH  15  17
HETATM   17  O   UNK N   1      26.426  20.540   3.065  0.00  0.00    -0.356 OA
HETATM   18  C   UNK N   1      25.085  20.444   2.762  0.00  0.00     0.210 C 
ENDBRANCH  15  17
TORSDOF 1
ENDMDL
MODEL 3
REMARK VINA RESULT:      -5.8     16.222     17.482
REMARK  1 active torsions:
REMARK  status: ('A' for Active; 'I' for Inactive)
REMARK    1  A    between atoms: C_15  and  O_16 
ROOT
HETATM    1  C   UNK N   1      25.208  25.074 -10.020  0.00  0.00     0.070 C 
HETATM    2  C   UNK N   1      25.537  24.348  -8.763  0.00  0.00     0.033 A 
HETATM    3  N   UNK N   1      25.700  22.990  -8.766  0.00  0.00    -0.368 N 
ATOM      4  HN  UNK N   1      25.593  22.479  -9.642  1.00  0.00     0.165 HD
HETATM    5  C   UNK N   1      26.004  22.298  -7.619  0.00  0.00     0.089 A 
HETATM    6  C   UNK N   1      26.159  22.970  -6.391  0.00  0.00     0.031 A 
HETATM    7  C   UNK N   1      25.990  24.352  -6.402  0.00  0.00     0.006 A 
HETATM    8  C   UNK N   1      25.687  25.024  -7.560  0.00  0.00     0.066 A 
HETATM    9  N   UNK N   1      25.568  26.354  -7.347  0.00  0.00    -0.353 N 
HETATM   10  C   UNK N   1      25.803  26.508  -6.028  0.00  0.00     0.046 A 
HETATM   11  C   UNK N   1      25.794  27.702  -5.327  0.00  0.00     0.067 A 
HETATM   12  C   UNK N   1      26.066  25.303  -5.415  0.00  0.00     0.003 A 
HETATM   13  C   UNK N   1      26.337  25.222  -4.050  0.00  0.00     0.017 A 
HETATM   14  C   UNK N   1      26.335  26.424  -3.310  0.00  0.00     0.038 A 
HETATM   15  C   UNK N   1      26.064  27.665  -3.942  0.00  0.00     0.070 A 
HETATM   16  H   UNK N   1      25.357  27.053  -8.007  0.00  0.00     0.166 HD
ENDROOT
BRANCH  15  17
HETATM   17  O   UNK N   1      26.069  28.800  -3.204  0.00  0.00    -0.356 OA
HETATM   18  C   UNK N   1      26.444  30.022  -3.718  0.00  0.00     0.210 C 
ENDBRANCH  15  17
TORSDOF 1
ENDMDL
MODEL 4
REMARK VINA RESULT:      -5.6      6.329      7.960
REMARK  1 active torsions:
REMARK  status: ('A' for Active; 'I' for Inactive)
REMARK    1  A    between atoms: C_15  and  O_16 
ROOT
HETATM    1  C   UNK N   1      37.063  13.984  15.446  0.00  0.00     0.070 C 
HETATM    2  C   UNK N   1      36.295  13.335  14.348  0.00  0.00     0.033 A 
HETATM    3  N   UNK N   1      35.930  12.020  14.439  0.00  0.00    -0.368 N 
ATOM      4  HN  UNK N   1      36.191  11.488  15.269  1.00  0.00     0.165 HD
HETATM    5  C   UNK N   1      35.222  11.398  13.440  0.00  0.00     0.089 A 
HETATM    6  C   UNK N   1      34.844  12.101  12.278  0.00  0.00     0.031 A 
HETATM    7  C   UNK N   1      35.222  13.438  12.199  0.00  0.00     0.006 A 
HETATM    8  C   UNK N   1      35.931  14.040  13.210  0.00  0.00     0.066 A 
HETATM    9  N   UNK N   1      36.192  15.337  12.930  0.00  0.00    -0.353 N 
HETATM   10  C   UNK N   1      35.634  15.541  11.720  0.00  0.00     0.046 A 
HETATM   11  C   UNK N   1      35.637  16.727  11.005  0.00  0.00     0.067 A 
HETATM   12  C   UNK N   1      35.030  14.401  11.239  0.00  0.00     0.003 A 
HETATM   13  C   UNK N   1      34.388  14.380  10.003  0.00  0.00     0.017 A 
HETATM   14  C   UNK N   1      34.375  15.575   9.252  0.00  0.00     0.038 A 
HETATM   15  C   UNK N   1      34.997  16.750   9.747  0.00  0.00     0.070 A 
HETATM   16  H   UNK N   1      36.681  15.986  13.485  0.00  0.00     0.166 HD
ENDROOT
BRANCH  15  17
HETATM   17  O   UNK N   1      34.968  17.880   9.002  0.00  0.00    -0.356 OA
HETATM   18  C   UNK N   1      34.042  18.094   8.005  0.00  0.00     0.210 C 
ENDBRANCH  15  17
TORSDOF 1
ENDMDL
MODEL 5
REMARK VINA RESULT:      -5.6      1.350      2.408
REMARK  1 active torsions:
REMARK  status: ('A' for Active; 'I' for Inactive)
REMARK    1  A    between atoms: C_15  and  O_16 
ROOT
HETATM    1  C   UNK N   1      28.249  17.752   9.300  0.00  0.00     0.070 C 
HETATM    2  C   UNK N   1      28.418  17.774   7.822  0.00  0.00     0.033 A 
HETATM    3  N   UNK N   1      27.361  18.065   7.005  0.00  0.00    -0.368 N 
ATOM      4  HN  UNK N   1      26.452  18.268   7.421  1.00  0.00     0.165 HD
HETATM    5  C   UNK N   1      27.492  18.090   5.638  0.00  0.00     0.089 A 
HETATM    6  C   UNK N   1      28.731  17.815   5.027  0.00  0.00     0.031 A 
HETATM    7  C   UNK N   1      29.799  17.520   5.869  0.00  0.00     0.006 A 
HETATM    8  C   UNK N   1      29.645  17.500   7.234  0.00  0.00     0.066 A 
HETATM    9  N   UNK N   1      30.804  17.193   7.860  0.00  0.00    -0.353 N 
HETATM   10  C   UNK N   1      31.693  17.019   6.861  0.00  0.00     0.046 A 
HETATM   11  C   UNK N   1      33.030  16.688   7.002  0.00  0.00     0.067 A 
HETATM   12  C   UNK N   1      31.114  17.211   5.627  0.00  0.00     0.003 A 
HETATM   13  C   UNK N   1      31.848  17.083   4.448  0.00  0.00     0.017 A 
HETATM   14  C   UNK N   1      33.213  16.746   4.561  0.00  0.00     0.038 A 
HETATM   15  C   UNK N   1      33.810  16.548   5.833  0.00  0.00     0.070 A 
HETATM   16  H   UNK N   1      30.963  17.113   8.828  0.00  0.00     0.166 HD
ENDROOT
BRANCH  15  17
HETATM   17  O   UNK N   1      35.122  16.226   5.908  0.00  0.00    -0.356 OA
HETATM   18  C   UNK N   1      35.571  14.924   5.942  0.00  0.00     0.210 C 
ENDBRANCH  15  17
TORSDOF 1
ENDMDL
MODEL 6
REMARK VINA RESULT:      -5.6      2.225      3.559
REMARK  1 active torsions:
REMARK  status: ('A' for Active; 'I' for Inactive)
REMARK    1  A    between atoms: C_15  and  O_16 
ROOT
HETATM    1  C   UNK N   1      26.904  16.055   6.719  0.00  0.00     0.070 C 
HETATM    2  C   UNK N   1      27.690  16.228   5.468  0.00  0.00     0.033 A 
HETATM    3  N   UNK N   1      27.097  16.072   4.246  0.00  0.00    -0.368 N 
ATOM      4  HN  UNK N   1      26.106  15.835   4.202  1.00  0.00     0.165 HD
HETATM    5  C   UNK N   1      27.802  16.226   3.077  0.00  0.00     0.089 A 
HETATM    6  C   UNK N   1      29.172  16.553   3.099  0.00  0.00     0.031 A 
HETATM    7  C   UNK N   1      29.764  16.710   4.349  0.00  0.00     0.006 A 
HETATM    8  C   UNK N   1      29.040  16.551   5.506  0.00  0.00     0.066 A 
HETATM    9  N   UNK N   1      29.806  16.747   6.602  0.00  0.00    -0.353 N 
HETATM   10  C   UNK N   1      31.030  17.033   6.114  0.00  0.00     0.046 A 
HETATM   11  C   UNK N   1      32.164  17.313   6.857  0.00  0.00     0.067 A 
HETATM   12  C   UNK N   1      31.044  17.020   4.737  0.00  0.00     0.003 A 
HETATM   13  C   UNK N   1      32.205  17.289   4.016  0.00  0.00     0.017 A 
HETATM   14  C   UNK N   1      33.377  17.577   4.747  0.00  0.00     0.038 A 
HETATM   15  C   UNK N   1      33.363  17.591   6.165  0.00  0.00     0.070 A 
HETATM   16  H   UNK N   1      29.532  16.692   7.546  0.00  0.00     0.166 HD
ENDROOT
BRANCH  15  17
HETATM   17  O   UNK N   1      34.504  17.871   6.837  0.00  0.00    -0.356 OA
HETATM   18  C   UNK N   1      34.514  18.297   8.148  0.00  0.00     0.210 C 
ENDBRANCH  15  17
TORSDOF 1
ENDMDL
MODEL 7
REMARK VINA RESULT:      -5.6      5.428      8.250
REMARK  1 active torsions:
REMARK  status: ('A' for Active; 'I' for Inactive)
REMARK    1  A    between atoms: C_15  and  O_16 
ROOT
HETATM    1  C   UNK N   1      26.157  15.323   6.860  0.00  0.00     0.070 C 
HETATM    2  C   UNK N   1      26.931  16.355   6.117  0.00  0.00     0.033 A 
HETATM    3  N   UNK N   1      28.298  16.353   6.147  0.00  0.00    -0.368 N 
ATOM      4  HN  UNK N   1      28.783  15.635   6.685  1.00  0.00     0.165 HD
HETATM    5  C   UNK N   1      29.036  17.293   5.470  0.00  0.00     0.089 A 
HETATM    6  C   UNK N   1      28.401  18.301   4.716  0.00  0.00     0.031 A 
HETATM    7  C   UNK N   1      27.010  18.291   4.694  0.00  0.00     0.006 A 
HETATM    8  C   UNK N   1      26.292  17.341   5.379  0.00  0.00     0.066 A 
HETATM    9  N   UNK N   1      24.961  17.515   5.223  0.00  0.00    -0.353 N 
HETATM   10  C   UNK N   1      24.852  18.597   4.425  0.00  0.00     0.046 A 
HETATM   11  C   UNK N   1      23.674  19.171   3.978  0.00  0.00     0.067 A 
HETATM   12  C   UNK N   1      26.086  19.100   4.080  0.00  0.00     0.003 A 
HETATM   13  C   UNK N   1      26.215  20.220   3.260  0.00  0.00     0.017 A 
HETATM   14  C   UNK N   1      25.031  20.826   2.789  0.00  0.00     0.038 A 
HETATM   15  C   UNK N   1      23.759  20.307   3.144  0.00  0.00     0.070 A 
HETATM   16  H   UNK N   1      24.233  16.974   5.606  0.00  0.00     0.166 HD
ENDROOT
BRANCH  15  17
HETATM   17  O   UNK N   1      22.642  20.912   2.677  0.00  0.00    -0.356 OA
HETATM   18  C   UNK N   1      21.386  20.359   2.800  0.00  0.00     0.210 C 
ENDBRANCH  15  17
TORSDOF 1
ENDMDL
MODEL 8
REMARK VINA RESULT:      -5.5     15.367     16.693
REMARK  1 active torsions:
REMARK  status: ('A' for Active; 'I' for Inactive)
REMARK    1  A    between atoms: C_15  and  O_16 
ROOT
HETATM    1  C   UNK N   1      29.517  22.250  -5.588  0.00  0.00     0.070 C 
HETATM    2  C   UNK N   1      28.269  22.750  -6.226  0.00  0.00     0.033 A 
HETATM    3  N   UNK N   1      27.698  22.071  -7.266  0.00  0.00    -0.368 N 
ATOM      4  HN  UNK N   1      28.138  21.214  -7.601  1.00  0.00     0.165 HD
HETATM    5  C   UNK N   1      26.546  22.512  -7.870  0.00  0.00     0.089 A 
HETATM    6  C   UNK N   1      25.909  23.691  -7.434  0.00  0.00     0.031 A 
HETATM    7  C   UNK N   1      26.501  24.373  -6.375  0.00  0.00     0.006 A 
HETATM    8  C   UNK N   1      27.653  23.914  -5.785  0.00  0.00     0.066 A 
HETATM    9  N   UNK N   1      28.054  24.724  -4.780  0.00  0.00    -0.353 N 
HETATM   10  C   UNK N   1      27.131  25.706  -4.747  0.00  0.00     0.046 A 
HETATM   11  C   UNK N   1      27.110  26.783  -3.877  0.00  0.00     0.067 A 
HETATM   12  C   UNK N   1      26.163  25.526  -5.710  0.00  0.00     0.003 A 
HETATM   13  C   UNK N   1      25.106  26.422  -5.860  0.00  0.00     0.017 A 
HETATM   14  C   UNK N   1      25.059  27.530  -4.987  0.00  0.00     0.038 A 
HETATM   15  C   UNK N   1      26.056  27.716  -3.995  0.00  0.00     0.070 A 
HETATM   16  H   UNK N   1      28.844  24.620  -4.201  0.00  0.00     0.166 HD
ENDROOT
BRANCH  15  17
HETATM   17  O   UNK N   1      25.983  28.788  -3.173  0.00  0.00    -0.356 OA
HETATM   18  C   UNK N   1      26.500  30.021  -3.506  0.00  0.00     0.210 C 
ENDBRANCH  15  17
TORSDOF 1
ENDMDL
MODEL 9
REMARK VINA RESULT:      -5.4     10.728     12.016
REMARK  1 active torsions:
REMARK  status: ('A' for Active; 'I' for Inactive)
REMARK    1  A    between atoms: C_15  and  O_16 
ROOT
HETATM    1  C   UNK N   1      37.548  10.344  12.616  0.00  0.00     0.070 C 
HETATM    2  C   UNK N   1      37.035  11.633  13.154  0.00  0.00     0.033 A 
HETATM    3  N   UNK N   1      36.970  12.743  12.358  0.00  0.00    -0.368 N 
ATOM      4  HN  UNK N   1      37.278  12.677  11.388  1.00  0.00     0.165 HD
HETATM    5  C   UNK N   1      36.501  13.944  12.831  0.00  0.00     0.089 A 
HETATM    6  C   UNK N   1      36.067  14.073  14.165  0.00  0.00     0.031 A 
HETATM    7  C   UNK N   1      36.139  12.936  14.965  0.00  0.00     0.006 A 
HETATM    8  C   UNK N   1      36.612  11.745  14.471  0.00  0.00     0.066 A 
HETATM    9  N   UNK N   1      36.595  10.775  15.412  0.00  0.00    -0.353 N 
HETATM   10  C   UNK N   1      36.102  11.379  16.513  0.00  0.00     0.046 A 
HETATM   11  C   UNK N   1      35.894  10.789  17.748  0.00  0.00     0.067 A 
HETATM   12  C   UNK N   1      35.810  12.704  16.278  0.00  0.00     0.003 A 
HETATM   13  C   UNK N   1      35.288  13.525  17.276  0.00  0.00     0.017 A 
HETATM   14  C   UNK N   1      35.066  12.950  18.545  0.00  0.00     0.038 A 
HETATM   15  C   UNK N   1      35.367  11.585  18.788  0.00  0.00     0.070 A 
HETATM   16  H   UNK N   1      36.880   9.837  15.316  0.00  0.00     0.166 HD
ENDROOT
BRANCH  15  17
HETATM   17  O   UNK N   1      35.142  11.065  20.016  0.00  0.00    -0.356 OA
HETATM   18  C   UNK N   1      34.738   9.762  20.213  0.00  0.00     0.210 C 
ENDBRANCH  15  17
TORSDOF 1
ENDMDL
