REMARK  1 active torsions:
REMARK  status: ('A' for Active; 'I' for Inactive)
REMARK    1  A    between atoms: C_15  and  O_16 
ROOT
HETATM    1  C   UNK N   1       3.038  -2.242   0.000  0.00  0.00     0.070 C 
HETATM    2  C   UNK N   1       2.698  -0.793   0.000  0.00  0.00     0.033 A 
HETATM    3  N   UNK N   1       3.685   0.153   0.000  0.00  0.00    -0.368 N 
ATOM      4  HN  UNK N   1       4.660  -0.146   0.000  1.00  0.00     0.165 HD
HETATM    5  C   UNK N   1       3.397   1.496   0.000  0.00  0.00     0.089 A 
HETATM    6  C   UNK N   1       2.062   1.947   0.000  0.00  0.00     0.031 A 
HETATM    7  C   UNK N   1       1.067   0.974   0.000  0.00  0.00     0.006 A 
HETATM    8  C   UNK N   1       1.378  -0.364   0.000  0.00  0.00     0.066 A 
HETATM    9  N   UNK N   1       0.266  -1.133  -0.000  0.00  0.00    -0.353 N 
HETATM   10  C   UNK N   1      -0.755  -0.252  -0.000  0.00  0.00     0.046 A 
HETATM   11  C   UNK N   1      -2.105  -0.561  -0.000  0.00  0.00     0.067 A 
HETATM   12  C   UNK N   1      -0.304   1.049  -0.000  0.00  0.00     0.003 A 
HETATM   13  C   UNK N   1      -1.186   2.128  -0.000  0.00  0.00     0.017 A 
HETATM   14  C   UNK N   1      -2.568   1.843  -0.000  0.00  0.00     0.038 A 
HETATM   15  C   UNK N   1      -3.033   0.503  -0.000  0.00  0.00     0.070 A 
HETATM   16  H   UNK N   1       0.213  -2.116  -0.000  0.00  0.00     0.166 HD
ENDROOT
BRANCH  15  17
HETATM   17  O   UNK N   1      -4.365   0.263  -0.000  0.00  0.00    -0.356 OA
HETATM   18  C   UNK N   1      -4.895  -1.009  -0.000  0.00  0.00     0.210 C 
ENDBRANCH  15  17
TORSDOF 1
