MODEL 1
REMARK VINA RESULT:      -7.6      0.000      0.000
REMARK  6 active torsions:
REMARK  status: ('A' for Active; 'I' for Inactive)
REMARK    1  A    between atoms: S_2  and  N_4 
REMARK    2  A    between atoms: S_2  and  C_12 
REMARK    3  A    between atoms: N_4  and  C_5 
REMARK    4  A    between atoms: C_5  and  C_6 
REMARK       I    between atoms: C_6  and  N_8 
REMARK    5  A    between atoms: N_8  and  O_10 
REMARK    6  A    between atoms: C_17  and  C_18 
ROOT
HETATM    1  C   UNK N   1      21.146  16.500   6.297  0.00  0.00     0.079 A 
HETATM    2  C   UNK N   1      22.102  15.468   6.165  0.00  0.00     0.026 A 
HETATM    3  C   UNK N   1      22.330  14.558   7.197  0.00  0.00     0.014 A 
HETATM    4  C   UNK N   1      20.492  16.628   7.543  0.00  0.00     0.026 A 
HETATM    5  C   UNK N   1      20.725  15.718   8.578  0.00  0.00     0.014 A 
HETATM    6  C   UNK N   1      21.640  14.670   8.410  0.00  0.00    -0.026 A 
ENDROOT
BRANCH   1   7
HETATM    7  S   UNK N   1      20.897  17.760   4.951  0.00  0.00     0.259 S 
HETATM    8  O   UNK N   1      22.291  17.247   4.551  0.00  0.00    -0.201 OA
HETATM    9  O   UNK N   1      21.369  18.657   6.107  0.00  0.00    -0.201 OA
BRANCH   7  10
HETATM   10  N   UNK N   1      21.578  19.176   4.150  0.00  0.00    -0.307 N 
HETATM   11  H   UNK N   1      22.558  19.460   4.159  0.00  0.00     0.172 HD
BRANCH  10  12
HETATM   12  C   UNK N   1      20.495  19.866   3.474  0.00  0.00     0.237 C 
BRANCH  12  13
HETATM   13  C   UNK N   1      21.032  20.563   2.272  0.00  0.00     0.259 C 
HETATM   14  O   UNK N   1      21.977  21.330   2.389  0.00  0.00    -0.270 OA
HETATM   15  N   UNK N   1      20.471  20.338   1.061  0.00  0.00    -0.236 N 
ATOM     16  HN  UNK N   1      19.683  19.696   0.985  1.00  0.00     0.197 HD
BRANCH  15  17
HETATM   17  O   UNK N   1      20.884  20.881   0.082  0.00  0.00    -0.287 OA
ATOM     18  HO  UNK N   1      20.916  20.428  -0.753  1.00  0.00     0.244 HD
ENDBRANCH  15  17
ENDBRANCH  12  13
ENDBRANCH  10  12
ENDBRANCH   7  10
ENDBRANCH   1   7
BRANCH   6  19
HETATM   19  C   UNK N   1      21.894  13.701   9.503  0.00  0.00    -0.026 A 
HETATM   20  C   UNK N   1      20.828  13.208  10.275  0.00  0.00     0.012 A 
HETATM   21  C   UNK N   1      21.060  12.283  11.297  0.00  0.00     0.001 A 
HETATM   22  C   UNK N   1      22.359  11.841  11.556  0.00  0.00     0.000 A 
HETATM   23  C   UNK N   1      23.427  12.326  10.796  0.00  0.00     0.001 A 
HETATM   24  C   UNK N   1      23.196  13.252   9.774  0.00  0.00     0.012 A 
ENDBRANCH   6  19
TORSDOF 6
ENDMDL
MODEL 2
REMARK VINA RESULT:      -7.5     13.978     15.708
REMARK  6 active torsions:
REMARK  status: ('A' for Active; 'I' for Inactive)
REMARK    1  A    between atoms: S_2  and  N_4 
REMARK    2  A    between atoms: S_2  and  C_12 
REMARK    3  A    between atoms: N_4  and  C_5 
REMARK    4  A    between atoms: C_5  and  C_6 
REMARK       I    between atoms: C_6  and  N_8 
REMARK    5  A    between atoms: N_8  and  O_10 
REMARK    6  A    between atoms: C_17  and  C_18 
ROOT
HETATM    1  C   UNK N   1      35.286  13.156  12.556  0.00  0.00     0.079 A 
HETATM    2  C   UNK N   1      35.912  14.056  13.448  0.00  0.00     0.026 A 
HETATM    3  C   UNK N   1      35.938  13.812  14.821  0.00  0.00     0.014 A 
HETATM    4  C   UNK N   1      34.614  12.046  13.115  0.00  0.00     0.026 A 
HETATM    5  C   UNK N   1      34.637  11.805  14.492  0.00  0.00     0.014 A 
HETATM    6  C   UNK N   1      35.308  12.682  15.355  0.00  0.00    -0.026 A 
ENDROOT
BRANCH   1   7
HETATM    7  S   UNK N   1      35.184  13.520  10.735  0.00  0.00     0.259 S 
HETATM    8  O   UNK N   1      36.504  14.241  11.054  0.00  0.00    -0.201 OA
HETATM    9  O   UNK N   1      34.254  14.605  11.302  0.00  0.00    -0.201 OA
BRANCH   7  10
HETATM   10  N   UNK N   1      35.200  14.787   9.508  0.00  0.00    -0.307 N 
HETATM   11  H   UNK N   1      35.726  14.772   8.634  0.00  0.00     0.172 HD
BRANCH  10  12
HETATM   12  C   UNK N   1      34.330  15.856   9.964  0.00  0.00     0.237 C 
BRANCH  12  13
HETATM   13  C   UNK N   1      35.009  17.164   9.754  0.00  0.00     0.259 C 
HETATM   14  O   UNK N   1      35.898  17.514  10.518  0.00  0.00    -0.270 OA
HETATM   15  N   UNK N   1      34.639  17.952   8.718  0.00  0.00    -0.236 N 
ATOM     16  HN  UNK N   1      33.895  17.644   8.093  1.00  0.00     0.197 HD
BRANCH  15  17
HETATM   17  O   UNK N   1      35.169  19.005   8.526  0.00  0.00    -0.287 OA
ATOM     18  HO  UNK N   1      35.527  19.224   7.673  1.00  0.00     0.244 HD
ENDBRANCH  15  17
ENDBRANCH  12  13
ENDBRANCH  10  12
ENDBRANCH   7  10
ENDBRANCH   1   7
BRANCH   6  19
HETATM   19  C   UNK N   1      35.337  12.435  16.817  0.00  0.00    -0.026 A 
HETATM   20  C   UNK N   1      35.601  11.147  17.313  0.00  0.00     0.012 A 
HETATM   21  C   UNK N   1      35.644  10.913  18.690  0.00  0.00     0.001 A 
HETATM   22  C   UNK N   1      35.425  11.962  19.584  0.00  0.00     0.000 A 
HETATM   23  C   UNK N   1      35.159  13.247  19.102  0.00  0.00     0.001 A 
HETATM   24  C   UNK N   1      35.114  13.483  17.724  0.00  0.00     0.012 A 
ENDBRANCH   6  19
TORSDOF 6
ENDMDL
MODEL 3
REMARK VINA RESULT:      -7.4     13.748     15.314
REMARK  6 active torsions:
REMARK  status: ('A' for Active; 'I' for Inactive)
REMARK    1  A    between atoms: S_2  and  N_4 
REMARK    2  A    between atoms: S_2  and  C_12 
REMARK    3  A    between atoms: N_4  and  C_5 
REMARK    4  A    between atoms: C_5  and  C_6 
REMARK       I    between atoms: C_6  and  N_8 
REMARK    5  A    between atoms: N_8  and  O_10 
REMARK    6  A    between atoms: C_17  and  C_18 
ROOT
HETATM    1  C   UNK N   1      35.694  14.271  12.297  0.00  0.00     0.079 A 
HETATM    2  C   UNK N   1      34.989  13.076  12.565  0.00  0.00     0.026 A 
HETATM    3  C   UNK N   1      34.943  12.537  13.850  0.00  0.00     0.014 A 
HETATM    4  C   UNK N   1      36.421  14.853  13.361  0.00  0.00     0.026 A 
HETATM    5  C   UNK N   1      36.377  14.309  14.648  0.00  0.00     0.014 A 
HETATM    6  C   UNK N   1      35.630  13.151  14.905  0.00  0.00    -0.026 A 
ENDROOT
BRANCH   1   7
HETATM    7  S   UNK N   1      35.820  14.949  10.569  0.00  0.00     0.259 S 
HETATM    8  O   UNK N   1      35.227  16.182  11.273  0.00  0.00    -0.201 OA
HETATM    9  O   UNK N   1      34.506  14.155  10.477  0.00  0.00    -0.201 OA
BRANCH   7  10
HETATM   10  N   UNK N   1      34.941  15.720   9.249  0.00  0.00    -0.307 N 
HETATM   11  H   UNK N   1      34.621  15.266   8.393  0.00  0.00     0.172 HD
BRANCH  10  12
HETATM   12  C   UNK N   1      34.751  17.116   9.599  0.00  0.00     0.237 C 
BRANCH  12  13
HETATM   13  C   UNK N   1      34.691  17.929   8.352  0.00  0.00     0.259 C 
HETATM   14  O   UNK N   1      35.061  19.095   8.372  0.00  0.00    -0.270 OA
HETATM   15  N   UNK N   1      34.233  17.369   7.209  0.00  0.00    -0.236 N 
ATOM     16  HN  UNK N   1      33.928  16.396   7.213  1.00  0.00     0.197 HD
BRANCH  15  17
HETATM   17  O   UNK N   1      34.176  17.998   6.196  0.00  0.00    -0.287 OA
ATOM     18  HO  UNK N   1      34.895  18.561   5.928  1.00  0.00     0.244 HD
ENDBRANCH  15  17
ENDBRANCH  12  13
ENDBRANCH  10  12
ENDBRANCH   7  10
ENDBRANCH   1   7
BRANCH   6  19
HETATM   19  C   UNK N   1      35.579  12.566  16.266  0.00  0.00    -0.026 A 
HETATM   20  C   UNK N   1      35.222  13.364  17.367  0.00  0.00     0.012 A 
HETATM   21  C   UNK N   1      35.158  12.814  18.651  0.00  0.00     0.001 A 
HETATM   22  C   UNK N   1      35.449  11.462  18.846  0.00  0.00     0.000 A 
HETATM   23  C   UNK N   1      35.808  10.660  17.759  0.00  0.00     0.001 A 
HETATM   24  C   UNK N   1      35.873  11.209  16.474  0.00  0.00     0.012 A 
ENDBRANCH   6  19
TORSDOF 6
ENDMDL
MODEL 4
REMARK VINA RESULT:      -7.1     14.819     17.065
REMARK  6 active torsions:
REMARK  status: ('A' for Active; 'I' for Inactive)
REMARK    1  A    between atoms: S_2  and  N_4 
REMARK    2  A    between atoms: S_2  and  C_12 
REMARK    3  A    between atoms: N_4  and  C_5 
REMARK    4  A    between atoms: C_5  and  C_6 
REMARK       I    between atoms: C_6  and  N_8 
REMARK    5  A    between atoms: N_8  and  O_10 
REMARK    6  A    between atoms: C_17  and  C_18 
ROOT
HETATM    1  C   UNK N   1      36.232  12.684  15.234  0.00  0.00     0.079 A 
HETATM    2  C   UNK N   1      35.395  13.207  16.246  0.00  0.00     0.026 A 
HETATM    3  C   UNK N   1      35.061  12.451  17.369  0.00  0.00     0.014 A 
HETATM    4  C   UNK N   1      36.649  11.340  15.362  0.00  0.00     0.026 A 
HETATM    5  C   UNK N   1      36.311  10.583  16.487  0.00  0.00     0.014 A 
HETATM    6  C   UNK N   1      35.521  11.136  17.505  0.00  0.00    -0.026 A 
ENDROOT
BRANCH   1   7
HETATM    7  S   UNK N   1      36.614  13.662  13.699  0.00  0.00     0.259 S 
HETATM    8  O   UNK N   1      36.945  14.729  14.757  0.00  0.00    -0.201 OA
HETATM    9  O   UNK N   1      35.086  13.817  13.772  0.00  0.00    -0.201 OA
BRANCH   7  10
HETATM   10  N   UNK N   1      36.287  15.152  12.813  0.00  0.00    -0.307 N 
HETATM   11  H   UNK N   1      36.536  16.096  13.111  0.00  0.00     0.172 HD
BRANCH  10  12
HETATM   12  C   UNK N   1      35.602  14.797  11.585  0.00  0.00     0.237 C 
BRANCH  12  13
HETATM   13  C   UNK N   1      35.364  16.029  10.782  0.00  0.00     0.259 C 
HETATM   14  O   UNK N   1      36.285  16.807  10.581  0.00  0.00    -0.270 OA
HETATM   15  N   UNK N   1      34.131  16.272  10.279  0.00  0.00    -0.236 N 
ATOM     16  HN  UNK N   1      33.376  15.611  10.460  1.00  0.00     0.197 HD
BRANCH  15  17
HETATM   17  O   UNK N   1      33.914  17.250   9.631  0.00  0.00    -0.287 OA
ATOM     18  HO  UNK N   1      34.486  17.500   8.914  1.00  0.00     0.244 HD
ENDBRANCH  15  17
ENDBRANCH  12  13
ENDBRANCH  10  12
ENDBRANCH   7  10
ENDBRANCH   1   7
BRANCH   6  19
HETATM   19  C   UNK N   1      35.156  10.339  18.701  0.00  0.00    -0.026 A 
HETATM   20  C   UNK N   1      34.292   9.238  18.582  0.00  0.00     0.012 A 
HETATM   21  C   UNK N   1      33.956   8.475  19.704  0.00  0.00     0.001 A 
HETATM   22  C   UNK N   1      34.483   8.804  20.955  0.00  0.00     0.000 A 
HETATM   23  C   UNK N   1      35.342   9.899  21.086  0.00  0.00     0.001 A 
HETATM   24  C   UNK N   1      35.677  10.664  19.964  0.00  0.00     0.012 A 
ENDBRANCH   6  19
TORSDOF 6
ENDMDL
MODEL 5
REMARK VINA RESULT:      -6.7     14.969     16.999
REMARK  6 active torsions:
REMARK  status: ('A' for Active; 'I' for Inactive)
REMARK    1  A    between atoms: S_2  and  N_4 
REMARK    2  A    between atoms: S_2  and  C_12 
REMARK    3  A    between atoms: N_4  and  C_5 
REMARK    4  A    between atoms: C_5  and  C_6 
REMARK       I    between atoms: C_6  and  N_8 
REMARK    5  A    between atoms: N_8  and  O_10 
REMARK    6  A    between atoms: C_17  and  C_18 
ROOT
HETATM    1  C   UNK N   1      29.905  22.470  -3.797  0.00  0.00     0.079 A 
HETATM    2  C   UNK N   1      29.257  23.208  -2.782  0.00  0.00     0.026 A 
HETATM    3  C   UNK N   1      28.272  24.146  -3.088  0.00  0.00     0.014 A 
HETATM    4  C   UNK N   1      29.579  22.778  -5.138  0.00  0.00     0.026 A 
HETATM    5  C   UNK N   1      28.594  23.722  -5.443  0.00  0.00     0.014 A 
HETATM    6  C   UNK N   1      27.926  24.407  -4.419  0.00  0.00    -0.026 A 
ENDROOT
BRANCH   1   7
HETATM    7  S   UNK N   1      31.273  21.275  -3.396  0.00  0.00     0.259 S 
HETATM    8  O   UNK N   1      31.378  22.190  -2.163  0.00  0.00    -0.201 OA
HETATM    9  O   UNK N   1      31.990  22.221  -4.373  0.00  0.00    -0.201 OA
BRANCH   7  10
HETATM   10  N   UNK N   1      32.980  21.115  -2.980  0.00  0.00    -0.307 N 
HETATM   11  H   UNK N   1      33.383  21.202  -2.047  0.00  0.00     0.172 HD
BRANCH  10  12
HETATM   12  C   UNK N   1      33.709  20.835  -4.204  0.00  0.00     0.237 C 
BRANCH  12  13
HETATM   13  C   UNK N   1      34.322  19.481  -4.111  0.00  0.00     0.259 C 
HETATM   14  O   UNK N   1      35.504  19.331  -4.386  0.00  0.00    -0.270 OA
HETATM   15  N   UNK N   1      33.565  18.429  -3.719  0.00  0.00    -0.236 N 
ATOM     16  HN  UNK N   1      32.581  18.575  -3.496  1.00  0.00     0.197 HD
BRANCH  15  17
HETATM   17  O   UNK N   1      34.031  17.334  -3.634  0.00  0.00    -0.287 OA
ATOM     18  HO  UNK N   1      33.473  16.565  -3.604  1.00  0.00     0.244 HD
ENDBRANCH  15  17
ENDBRANCH  12  13
ENDBRANCH  10  12
ENDBRANCH   7  10
ENDBRANCH   1   7
BRANCH   6  19
HETATM   19  C   UNK N   1      26.881  25.411  -4.734  0.00  0.00    -0.026 A 
HETATM   20  C   UNK N   1      26.575  26.428  -3.813  0.00  0.00     0.012 A 
HETATM   21  C   UNK N   1      25.601  27.385  -4.112  0.00  0.00     0.001 A 
HETATM   22  C   UNK N   1      24.925  27.336  -5.332  0.00  0.00     0.000 A 
HETATM   23  C   UNK N   1      25.219  26.328  -6.254  0.00  0.00     0.001 A 
HETATM   24  C   UNK N   1      26.192  25.369  -5.957  0.00  0.00     0.012 A 
ENDBRANCH   6  19
TORSDOF 6
ENDMDL
MODEL 6
REMARK VINA RESULT:      -6.5     10.319     12.499
REMARK  6 active torsions:
REMARK  status: ('A' for Active; 'I' for Inactive)
REMARK    1  A    between atoms: S_2  and  N_4 
REMARK    2  A    between atoms: S_2  and  C_12 
REMARK    3  A    between atoms: N_4  and  C_5 
REMARK    4  A    between atoms: C_5  and  C_6 
REMARK       I    between atoms: C_6  and  N_8 
REMARK    5  A    between atoms: N_8  and  O_10 
REMARK    6  A    between atoms: C_17  and  C_18 
ROOT
HETATM    1  C   UNK N   1      31.062  16.240   7.035  0.00  0.00     0.079 A 
HETATM    2  C   UNK N   1      30.263  17.038   7.884  0.00  0.00     0.026 A 
HETATM    3  C   UNK N   1      29.269  17.868   7.369  0.00  0.00     0.014 A 
HETATM    4  C   UNK N   1      30.874  16.377   5.641  0.00  0.00     0.026 A 
HETATM    5  C   UNK N   1      29.879  17.214   5.126  0.00  0.00     0.014 A 
HETATM    6  C   UNK N   1      29.062  17.959   5.987  0.00  0.00    -0.026 A 
ENDROOT
BRANCH   1   7
HETATM    7  S   UNK N   1      32.440  15.191   7.715  0.00  0.00     0.259 S 
HETATM    8  O   UNK N   1      31.874  15.738   9.037  0.00  0.00    -0.201 OA
HETATM    9  O   UNK N   1      33.209  16.461   7.318  0.00  0.00    -0.201 OA
BRANCH   7  10
HETATM   10  N   UNK N   1      33.870  15.171   8.747  0.00  0.00    -0.307 N 
HETATM   11  H   UNK N   1      34.564  14.424   8.800  0.00  0.00     0.172 HD
BRANCH  10  12
HETATM   12  C   UNK N   1      33.886  16.408   9.506  0.00  0.00     0.237 C 
BRANCH  12  13
HETATM   13  C   UNK N   1      35.257  16.636  10.042  0.00  0.00     0.259 C 
HETATM   14  O   UNK N   1      35.642  17.778  10.252  0.00  0.00    -0.270 OA
HETATM   15  N   UNK N   1      36.062  15.578  10.295  0.00  0.00    -0.236 N 
ATOM     16  HN  UNK N   1      35.723  14.634  10.112  1.00  0.00     0.197 HD
BRANCH  15  17
HETATM   17  O   UNK N   1      37.164  15.733  10.727  0.00  0.00    -0.287 OA
ATOM     18  HO  UNK N   1      37.842  16.144  10.203  1.00  0.00     0.244 HD
ENDBRANCH  15  17
ENDBRANCH  12  13
ENDBRANCH  10  12
ENDBRANCH   7  10
ENDBRANCH   1   7
BRANCH   6  19
HETATM   19  C   UNK N   1      28.005  18.850   5.449  0.00  0.00    -0.026 A 
HETATM   20  C   UNK N   1      27.406  18.570   4.209  0.00  0.00     0.012 A 
HETATM   21  C   UNK N   1      26.399  19.398   3.705  0.00  0.00     0.001 A 
HETATM   22  C   UNK N   1      25.980  20.512   4.436  0.00  0.00     0.000 A 
HETATM   23  C   UNK N   1      26.571  20.801   5.670  0.00  0.00     0.001 A 
HETATM   24  C   UNK N   1      27.579  19.974   6.175  0.00  0.00     0.012 A 
ENDBRANCH   6  19
TORSDOF 6
ENDMDL
MODEL 7
REMARK VINA RESULT:      -6.1     21.657     23.268
REMARK  6 active torsions:
REMARK  status: ('A' for Active; 'I' for Inactive)
REMARK    1  A    between atoms: S_2  and  N_4 
REMARK    2  A    between atoms: S_2  and  C_12 
REMARK    3  A    between atoms: N_4  and  C_5 
REMARK    4  A    between atoms: C_5  and  C_6 
REMARK       I    between atoms: C_6  and  N_8 
REMARK    5  A    between atoms: N_8  and  O_10 
REMARK    6  A    between atoms: C_17  and  C_18 
ROOT
HETATM    1  C   UNK N   1      40.374  23.888  -0.139  0.00  0.00     0.079 A 
HETATM    2  C   UNK N   1      40.577  25.217   0.296  0.00  0.00     0.026 A 
HETATM    3  C   UNK N   1      39.799  26.265  -0.195  0.00  0.00     0.014 A 
HETATM    4  C   UNK N   1      39.412  23.673  -1.153  0.00  0.00     0.026 A 
HETATM    5  C   UNK N   1      38.636  24.725  -1.647  0.00  0.00     0.014 A 
HETATM    6  C   UNK N   1      38.817  26.029  -1.165  0.00  0.00    -0.026 A 
ENDROOT
BRANCH   1   7
HETATM    7  S   UNK N   1      41.462  22.503   0.457  0.00  0.00     0.259 S 
HETATM    8  O   UNK N   1      40.974  23.033   1.816  0.00  0.00    -0.201 OA
HETATM    9  O   UNK N   1      42.503  23.605   0.207  0.00  0.00    -0.201 OA
BRANCH   7  10
HETATM   10  N   UNK N   1      42.809  22.071   1.509  0.00  0.00    -0.307 N 
HETATM   11  H   UNK N   1      43.541  21.391   1.302  0.00  0.00     0.172 HD
BRANCH  10  12
HETATM   12  C   UNK N   1      42.693  22.856   2.724  0.00  0.00     0.237 C 
BRANCH  12  13
HETATM   13  C   UNK N   1      44.055  23.165   3.241  0.00  0.00     0.259 C 
HETATM   14  O   UNK N   1      44.507  24.294   3.118  0.00  0.00    -0.270 OA
HETATM   15  N   UNK N   1      44.777  22.194   3.846  0.00  0.00    -0.236 N 
ATOM     16  HN  UNK N   1      44.383  21.258   3.938  1.00  0.00     0.197 HD
BRANCH  15  17
HETATM   17  O   UNK N   1      45.870  22.415   4.272  0.00  0.00    -0.287 OA
ATOM     18  HO  UNK N   1      46.467  22.994   3.811  1.00  0.00     0.244 HD
ENDBRANCH  15  17
ENDBRANCH  12  13
ENDBRANCH  10  12
ENDBRANCH   7  10
ENDBRANCH   1   7
BRANCH   6  19
HETATM   19  C   UNK N   1      37.999  27.152  -1.685  0.00  0.00    -0.026 A 
HETATM   20  C   UNK N   1      37.563  27.151  -3.020  0.00  0.00     0.012 A 
HETATM   21  C   UNK N   1      36.779  28.200  -3.511  0.00  0.00     0.001 A 
HETATM   22  C   UNK N   1      36.423  29.256  -2.672  0.00  0.00     0.000 A 
HETATM   23  C   UNK N   1      36.852  29.268  -1.341  0.00  0.00     0.001 A 
HETATM   24  C   UNK N   1      37.637  28.221  -0.849  0.00  0.00     0.012 A 
ENDBRANCH   6  19
TORSDOF 6
ENDMDL
MODEL 8
REMARK VINA RESULT:      -6.0      4.950      8.964
REMARK  6 active torsions:
REMARK  status: ('A' for Active; 'I' for Inactive)
REMARK    1  A    between atoms: S_2  and  N_4 
REMARK    2  A    between atoms: S_2  and  C_12 
REMARK    3  A    between atoms: N_4  and  C_5 
REMARK    4  A    between atoms: C_5  and  C_6 
REMARK       I    between atoms: C_6  and  N_8 
REMARK    5  A    between atoms: N_8  and  O_10 
REMARK    6  A    between atoms: C_17  and  C_18 
ROOT
HETATM    1  C   UNK N   1      22.251  15.146   7.016  0.00  0.00     0.079 A 
HETATM    2  C   UNK N   1      23.296  15.751   6.281  0.00  0.00     0.026 A 
HETATM    3  C   UNK N   1      23.035  16.744   5.338  0.00  0.00     0.014 A 
HETATM    4  C   UNK N   1      20.927  15.525   6.699  0.00  0.00     0.026 A 
HETATM    5  C   UNK N   1      20.667  16.518   5.750  0.00  0.00     0.014 A 
HETATM    6  C   UNK N   1      21.720  17.142   5.069  0.00  0.00    -0.026 A 
ENDROOT
BRANCH   1   7
HETATM    7  S   UNK N   1      22.591  13.768   8.217  0.00  0.00     0.259 S 
HETATM    8  O   UNK N   1      22.301  12.930   6.960  0.00  0.00    -0.201 OA
HETATM    9  O   UNK N   1      21.125  14.090   8.550  0.00  0.00    -0.201 OA
BRANCH   7  10
HETATM   10  N   UNK N   1      21.969  12.275   8.922  0.00  0.00    -0.307 N 
HETATM   11  H   UNK N   1      21.024  11.906   8.812  0.00  0.00     0.172 HD
BRANCH  10  12
HETATM   12  C   UNK N   1      23.041  11.666   9.687  0.00  0.00     0.237 C 
BRANCH  12  13
HETATM   13  C   UNK N   1      22.857  11.985  11.130  0.00  0.00     0.259 C 
HETATM   14  O   UNK N   1      21.729  12.118  11.582  0.00  0.00    -0.270 OA
HETATM   15  N   UNK N   1      23.941  12.121  11.929  0.00  0.00    -0.236 N 
ATOM     16  HN  UNK N   1      24.874  12.008  11.533  1.00  0.00     0.197 HD
BRANCH  15  17
HETATM   17  O   UNK N   1      23.822  12.375  13.089  0.00  0.00    -0.287 OA
ATOM     18  HO  UNK N   1      23.048  12.106  13.572  1.00  0.00     0.244 HD
ENDBRANCH  15  17
ENDBRANCH  12  13
ENDBRANCH  10  12
ENDBRANCH   7  10
ENDBRANCH   1   7
BRANCH   6  19
HETATM   19  C   UNK N   1      21.453  18.196   4.060  0.00  0.00    -0.026 A 
HETATM   20  C   UNK N   1      20.213  18.249   3.402  0.00  0.00     0.012 A 
HETATM   21  C   UNK N   1      19.951  19.249   2.461  0.00  0.00     0.001 A 
HETATM   22  C   UNK N   1      20.925  20.205   2.170  0.00  0.00     0.000 A 
HETATM   23  C   UNK N   1      22.164  20.161   2.816  0.00  0.00     0.001 A 
HETATM   24  C   UNK N   1      22.428  19.160   3.757  0.00  0.00     0.012 A 
ENDBRANCH   6  19
TORSDOF 6
ENDMDL
MODEL 9
REMARK VINA RESULT:      -6.0     21.460     22.903
REMARK  6 active torsions:
REMARK  status: ('A' for Active; 'I' for Inactive)
REMARK    1  A    between atoms: S_2  and  N_4 
REMARK    2  A    between atoms: S_2  and  C_12 
REMARK    3  A    between atoms: N_4  and  C_5 
REMARK    4  A    between atoms: C_5  and  C_6 
REMARK       I    between atoms: C_6  and  N_8 
REMARK    5  A    between atoms: N_8  and  O_10 
REMARK    6  A    between atoms: C_17  and  C_18 
ROOT
HETATM    1  C   UNK N   1      40.331  24.358  -0.297  0.00  0.00     0.079 A 
HETATM    2  C   UNK N   1      39.325  24.080  -1.250  0.00  0.00     0.026 A 
HETATM    3  C   UNK N   1      38.499  25.090  -1.743  0.00  0.00     0.014 A 
HETATM    4  C   UNK N   1      40.413  25.678   0.201  0.00  0.00     0.026 A 
HETATM    5  C   UNK N   1      39.581  26.688  -0.291  0.00  0.00     0.014 A 
HETATM    6  C   UNK N   1      38.623  26.404  -1.274  0.00  0.00    -0.026 A 
ENDROOT
BRANCH   1   7
HETATM    7  S   UNK N   1      41.382  22.999   0.418  0.00  0.00     0.259 S 
HETATM    8  O   UNK N   1      40.029  22.267   0.378  0.00  0.00    -0.201 OA
HETATM    9  O   UNK N   1      41.088  23.834   1.675  0.00  0.00    -0.201 OA
BRANCH   7  10
HETATM   10  N   UNK N   1      41.560  21.855   1.748  0.00  0.00    -0.307 N 
HETATM   11  H   UNK N   1      40.802  21.427   2.280  0.00  0.00     0.172 HD
BRANCH  10  12
HETATM   12  C   UNK N   1      42.979  21.628   1.950  0.00  0.00     0.237 C 
BRANCH  12  13
HETATM   13  C   UNK N   1      43.383  22.192   3.268  0.00  0.00     0.259 C 
HETATM   14  O   UNK N   1      43.868  21.458   4.117  0.00  0.00    -0.270 OA
HETATM   15  N   UNK N   1      43.212  23.512   3.512  0.00  0.00    -0.236 N 
ATOM     16  HN  UNK N   1      42.804  24.107   2.792  1.00  0.00     0.197 HD
BRANCH  15  17
HETATM   17  O   UNK N   1      43.529  23.990   4.559  0.00  0.00    -0.287 OA
ATOM     18  HO  UNK N   1      44.291  23.673   5.031  1.00  0.00     0.244 HD
ENDBRANCH  15  17
ENDBRANCH  12  13
ENDBRANCH  10  12
ENDBRANCH   7  10
ENDBRANCH   1   7
BRANCH   6  19
HETATM   19  C   UNK N   1      37.736  27.468  -1.801  0.00  0.00    -0.026 A 
HETATM   20  C   UNK N   1      37.295  28.503  -0.959  0.00  0.00     0.012 A 
HETATM   21  C   UNK N   1      36.470  29.518  -1.454  0.00  0.00     0.001 A 
HETATM   22  C   UNK N   1      36.080  29.508  -2.795  0.00  0.00     0.000 A 
HETATM   23  C   UNK N   1      36.511  28.482  -3.641  0.00  0.00     0.001 A 
HETATM   24  C   UNK N   1      37.335  27.466  -3.147  0.00  0.00     0.012 A 
ENDBRANCH   6  19
TORSDOF 6
ENDMDL
