REMARK  6 active torsions:
REMARK  status: ('A' for Active; 'I' for Inactive)
REMARK    1  A    between atoms: S_2  and  N_4 
REMARK    2  A    between atoms: S_2  and  C_12 
REMARK    3  A    between atoms: N_4  and  C_5 
REMARK    4  A    between atoms: C_5  and  C_6 
REMARK       I    between atoms: C_6  and  N_8 
REMARK    5  A    between atoms: N_8  and  O_10 
REMARK    6  A    between atoms: C_17  and  C_18 
ROOT
HETATM    1  C   UNK N   1       1.008  -0.496   0.193  0.00  0.00     0.079 A 
HETATM    2  C   UNK N   1      -0.235  -1.168   0.173  0.00  0.00     0.026 A 
HETATM    3  C   UNK N   1      -1.436  -0.463   0.101  0.00  0.00     0.014 A 
HETATM    4  C   UNK N   1       0.986   0.917   0.223  0.00  0.00     0.026 A 
HETATM    5  C   UNK N   1      -0.219   1.622   0.155  0.00  0.00     0.014 A 
HETATM    6  C   UNK N   1      -1.440   0.937   0.084  0.00  0.00    -0.026 A 
ENDROOT
BRANCH   1   7
HETATM    7  S   UNK N   1       2.606  -1.432   0.367  0.00  0.00     0.259 S 
HETATM    8  O   UNK N   1       3.068  -0.340  -0.613  0.00  0.00    -0.201 OA
HETATM    9  O   UNK N   1       1.873  -2.296  -0.672  0.00  0.00    -0.201 OA
BRANCH   7  10
HETATM   10  N   UNK N   1       3.901  -2.259  -0.499  0.00  0.00    -0.307 N 
HETATM   11  H   UNK N   1       3.993  -2.338  -1.512  0.00  0.00     0.172 HD
BRANCH  10  12
HETATM   12  C   UNK N   1       4.814  -2.807   0.487  0.00  0.00     0.237 C 
BRANCH  12  13
HETATM   13  C   UNK N   1       6.199  -2.354   0.178  0.00  0.00     0.259 C 
HETATM   14  O   UNK N   1       7.058  -3.179  -0.098  0.00  0.00    -0.270 OA
HETATM   15  N   UNK N   1       6.492  -1.033   0.202  0.00  0.00    -0.236 N 
ATOM     16  HN  UNK N   1       5.762  -0.361   0.436  1.00  0.00     0.197 HD
BRANCH  15  17
HETATM   17  O   UNK N   1       7.593  -0.643  -0.044  0.00  0.00    -0.287 OA
ATOM     18  HO  UNK N   1       7.799   0.285  -0.027  1.00  0.00     0.244 HD
ENDBRANCH  15  17
ENDBRANCH  12  13
ENDBRANCH  10  12
ENDBRANCH   7  10
ENDBRANCH   1   7
BRANCH   6  19
HETATM   19  C   UNK N   1      -2.723   1.677   0.013  0.00  0.00    -0.026 A 
HETATM   20  C   UNK N   1      -3.941   0.979  -0.047  0.00  0.00     0.012 A 
HETATM   21  C   UNK N   1      -5.154   1.672  -0.099  0.00  0.00     0.001 A 
HETATM   22  C   UNK N   1      -5.161   3.068  -0.090  0.00  0.00     0.000 A 
HETATM   23  C   UNK N   1      -3.955   3.773  -0.033  0.00  0.00     0.001 A 
HETATM   24  C   UNK N   1      -2.741   3.081   0.018  0.00  0.00     0.012 A 
ENDBRANCH   6  19
TORSDOF 6
