MODEL 1
REMARK VINA RESULT:      -6.4      0.000      0.000
REMARK  5 active torsions:
REMARK  status: ('A' for Active; 'I' for Inactive)
REMARK    1  A    between atoms: S_2  and  N_4 
REMARK    2  A    between atoms: S_2  and  C_12 
REMARK    3  A    between atoms: N_4  and  C_5 
REMARK    4  A    between atoms: C_5  and  C_6 
REMARK       I    between atoms: C_6  and  N_8 
REMARK    5  A    between atoms: N_8  and  O_10 
ROOT
HETATM    1  O   UNK N   1      21.978  14.841   7.708  0.00  0.00    -0.201 OA
HETATM    2  S   UNK N   1      20.677  14.586   8.486  0.00  0.00     0.259 S 
HETATM    3  O   UNK N   1      20.229  13.743   7.285  0.00  0.00    -0.201 OA
ENDROOT
BRANCH   2   4
HETATM    4  N   UNK N   1      20.469  16.266   7.954  0.00  0.00    -0.307 N 
HETATM    5  H   UNK N   1      21.073  16.750   7.289  0.00  0.00     0.172 HD
BRANCH   4   6
HETATM    6  C   UNK N   1      19.303  16.852   8.611  0.00  0.00     0.237 C 
BRANCH   6   7
HETATM    7  C   UNK N   1      19.511  18.280   9.061  0.00  0.00     0.259 C 
HETATM    8  O   UNK N   1      20.295  18.985   8.442  0.00  0.00    -0.270 OA
HETATM    9  N   UNK N   1      18.873  18.774  10.151  0.00  0.00    -0.236 N 
ATOM     10  HN  UNK N   1      18.212  18.184  10.656  1.00  0.00     0.197 HD
BRANCH   9  11
HETATM   11  O   UNK N   1      19.074  19.889  10.529  0.00  0.00    -0.287 OA
ATOM     12  HO  UNK N   1      19.926  20.295  10.425  1.00  0.00     0.244 HD
ENDBRANCH   9  11
ENDBRANCH   6   7
ENDBRANCH   4   6
ENDBRANCH   2   4
BRANCH   2  13
HETATM   13  C   UNK N   1      21.929  13.652   9.402  0.00  0.00     0.079 A 
HETATM   14  C   UNK N   1      23.249  13.632   8.912  0.00  0.00     0.028 A 
HETATM   15  C   UNK N   1      24.249  12.934   9.584  0.00  0.00     0.044 A 
HETATM   16  C   UNK N   1      23.943  12.231  10.748  0.00  0.00     0.116 A 
HETATM   17  C   UNK N   1      22.629  12.221  11.236  0.00  0.00     0.044 A 
HETATM   18  F   UNK N   1      24.924  11.562  11.401  0.00  0.00    -0.206 F 
HETATM   19  C   UNK N   1      21.619  12.928  10.563  0.00  0.00     0.028 A 
ENDBRANCH   2  13
TORSDOF 5
ENDMDL
MODEL 2
REMARK VINA RESULT:      -6.1      8.266      8.864
REMARK  5 active torsions:
REMARK  status: ('A' for Active; 'I' for Inactive)
REMARK    1  A    between atoms: S_2  and  N_4 
REMARK    2  A    between atoms: S_2  and  C_12 
REMARK    3  A    between atoms: N_4  and  C_5 
REMARK    4  A    between atoms: C_5  and  C_6 
REMARK       I    between atoms: C_6  and  N_8 
REMARK    5  A    between atoms: N_8  and  O_10 
ROOT
HETATM    1  O   UNK N   1      20.802  16.687   1.673  0.00  0.00    -0.201 OA
HETATM    2  S   UNK N   1      19.549  16.839   0.796  0.00  0.00     0.259 S 
HETATM    3  O   UNK N   1      20.457  17.535  -0.226  0.00  0.00    -0.201 OA
ENDROOT
BRANCH   2   4
HETATM    4  N   UNK N   1      19.272  18.060   2.053  0.00  0.00    -0.307 N 
HETATM    5  H   UNK N   1      18.360  18.323   2.424  0.00  0.00     0.172 HD
BRANCH   4   6
HETATM    6  C   UNK N   1      20.549  18.632   2.477  0.00  0.00     0.237 C 
BRANCH   6   7
HETATM    7  C   UNK N   1      20.724  20.083   2.090  0.00  0.00     0.259 C 
HETATM    8  O   UNK N   1      21.035  20.890   2.954  0.00  0.00    -0.270 OA
HETATM    9  N   UNK N   1      20.509  20.502   0.818  0.00  0.00    -0.236 N 
ATOM     10  HN  UNK N   1      20.260  19.822   0.100  1.00  0.00     0.197 HD
BRANCH   9  11
HETATM   11  O   UNK N   1      20.606  21.656   0.526  0.00  0.00    -0.287 OA
ATOM     12  HO  UNK N   1      20.452  21.951  -0.363  1.00  0.00     0.244 HD
ENDBRANCH   9  11
ENDBRANCH   6   7
ENDBRANCH   4   6
ENDBRANCH   2   4
BRANCH   2  13
HETATM   13  C   UNK N   1      19.905  15.063   0.755  0.00  0.00     0.079 A 
HETATM   14  C   UNK N   1      21.233  14.637   0.944  0.00  0.00     0.028 A 
HETATM   15  C   UNK N   1      21.556  13.282   0.929  0.00  0.00     0.044 A 
HETATM   16  C   UNK N   1      20.560  12.333   0.709  0.00  0.00     0.116 A 
HETATM   17  C   UNK N   1      19.236  12.742   0.495  0.00  0.00     0.044 A 
HETATM   18  F   UNK N   1      20.881  11.016   0.704  0.00  0.00    -0.206 F 
HETATM   19  C   UNK N   1      18.906  14.108   0.515  0.00  0.00     0.028 A 
ENDBRANCH   2  13
TORSDOF 5
ENDMDL
MODEL 3
REMARK VINA RESULT:      -6.1     14.037     15.613
REMARK  5 active torsions:
REMARK  status: ('A' for Active; 'I' for Inactive)
REMARK    1  A    between atoms: S_2  and  N_4 
REMARK    2  A    between atoms: S_2  and  C_12 
REMARK    3  A    between atoms: N_4  and  C_5 
REMARK    4  A    between atoms: C_5  and  C_6 
REMARK       I    between atoms: C_6  and  N_8 
REMARK    5  A    between atoms: N_8  and  O_10 
ROOT
HETATM    1  O   UNK N   1      36.608  12.325  14.716  0.00  0.00    -0.201 OA
HETATM    2  S   UNK N   1      35.535  13.425  14.713  0.00  0.00     0.259 S 
HETATM    3  O   UNK N   1      34.712  12.498  13.809  0.00  0.00    -0.201 OA
ENDROOT
BRANCH   2   4
HETATM    4  N   UNK N   1      36.773  14.111  13.642  0.00  0.00    -0.307 N 
HETATM    5  H   UNK N   1      37.612  14.599  13.953  0.00  0.00     0.172 HD
BRANCH   4   6
HETATM    6  C   UNK N   1      36.409  13.870  12.247  0.00  0.00     0.237 C 
BRANCH   6   7
HETATM    7  C   UNK N   1      35.333  14.798  11.730  0.00  0.00     0.259 C 
HETATM    8  O   UNK N   1      35.574  15.994  11.652  0.00  0.00    -0.270 OA
HETATM    9  N   UNK N   1      34.106  14.331  11.389  0.00  0.00    -0.236 N 
ATOM     10  HN  UNK N   1      33.916  13.331  11.447  1.00  0.00     0.197 HD
BRANCH   9  11
HETATM   11  O   UNK N   1      33.246  15.073  11.023  0.00  0.00    -0.287 OA
ATOM     12  HO  UNK N   1      33.119  15.919  11.437  1.00  0.00     0.244 HD
ENDBRANCH   9  11
ENDBRANCH   6   7
ENDBRANCH   4   6
ENDBRANCH   2   4
BRANCH   2  13
HETATM   13  C   UNK N   1      35.487  12.765  16.399  0.00  0.00     0.079 A 
HETATM   14  C   UNK N   1      35.241  13.653  17.464  0.00  0.00     0.028 A 
HETATM   15  C   UNK N   1      35.187  13.194  18.777  0.00  0.00     0.044 A 
HETATM   16  C   UNK N   1      35.393  11.842  19.049  0.00  0.00     0.116 A 
HETATM   17  C   UNK N   1      35.663  10.949  18.002  0.00  0.00     0.044 A 
HETATM   18  F   UNK N   1      35.330  11.401  20.330  0.00  0.00    -0.206 F 
HETATM   19  C   UNK N   1      35.713  11.409  16.676  0.00  0.00     0.028 A 
ENDBRANCH   2  13
TORSDOF 5
ENDMDL
MODEL 4
REMARK VINA RESULT:      -6.0     17.423     19.099
REMARK  5 active torsions:
REMARK  status: ('A' for Active; 'I' for Inactive)
REMARK    1  A    between atoms: S_2  and  N_4 
REMARK    2  A    between atoms: S_2  and  C_12 
REMARK    3  A    between atoms: N_4  and  C_5 
REMARK    4  A    between atoms: C_5  and  C_6 
REMARK       I    between atoms: C_6  and  N_8 
REMARK    5  A    between atoms: N_8  and  O_10 
ROOT
HETATM    1  O   UNK N   1      26.786  24.871  -2.971  0.00  0.00    -0.201 OA
HETATM    2  S   UNK N   1      27.704  24.706  -4.192  0.00  0.00     0.259 S 
HETATM    3  O   UNK N   1      26.563  23.906  -4.833  0.00  0.00    -0.201 OA
ENDROOT
BRANCH   2   4
HETATM    4  N   UNK N   1      28.435  23.587  -3.025  0.00  0.00    -0.307 N 
HETATM    5  H   UNK N   1      28.063  23.381  -2.099  0.00  0.00     0.172 HD
BRANCH   4   6
HETATM    6  C   UNK N   1      29.649  23.004  -3.592  0.00  0.00     0.237 C 
BRANCH   6   7
HETATM    7  C   UNK N   1      30.649  22.551  -2.553  0.00  0.00     0.259 C 
HETATM    8  O   UNK N   1      30.570  23.006  -1.421  0.00  0.00    -0.270 OA
HETATM    9  N   UNK N   1      31.644  21.683  -2.865  0.00  0.00    -0.236 N 
ATOM     10  HN  UNK N   1      31.698  21.300  -3.809  1.00  0.00     0.197 HD
BRANCH   9  11
HETATM   11  O   UNK N   1      32.457  21.362  -2.052  0.00  0.00    -0.287 OA
ATOM     12  HO  UNK N   1      32.521  21.812  -1.218  1.00  0.00     0.244 HD
ENDBRANCH   9  11
ENDBRANCH   6   7
ENDBRANCH   4   6
ENDBRANCH   2   4
BRANCH   2  13
HETATM   13  C   UNK N   1      27.252  26.460  -4.213  0.00  0.00     0.079 A 
HETATM   14  C   UNK N   1      28.217  27.401  -4.619  0.00  0.00     0.028 A 
HETATM   15  C   UNK N   1      27.916  28.760  -4.659  0.00  0.00     0.044 A 
HETATM   16  C   UNK N   1      26.650  29.202  -4.278  0.00  0.00     0.116 A 
HETATM   17  C   UNK N   1      25.685  28.280  -3.847  0.00  0.00     0.044 A 
HETATM   18  F   UNK N   1      26.362  30.526  -4.328  0.00  0.00    -0.206 F 
HETATM   19  C   UNK N   1      25.984  26.908  -3.811  0.00  0.00     0.028 A 
ENDBRANCH   2  13
TORSDOF 5
ENDMDL
MODEL 5
REMARK VINA RESULT:      -5.9     11.622     13.294
REMARK  5 active torsions:
REMARK  status: ('A' for Active; 'I' for Inactive)
REMARK    1  A    between atoms: S_2  and  N_4 
REMARK    2  A    between atoms: S_2  and  C_12 
REMARK    3  A    between atoms: N_4  and  C_5 
REMARK    4  A    between atoms: C_5  and  C_6 
REMARK       I    between atoms: C_6  and  N_8 
REMARK    5  A    between atoms: N_8  and  O_10 
ROOT
HETATM    1  O   UNK N   1      31.800  15.476   9.204  0.00  0.00    -0.201 OA
HETATM    2  S   UNK N   1      33.133  14.752   8.956  0.00  0.00     0.259 S 
HETATM    3  O   UNK N   1      32.304  13.473   8.776  0.00  0.00    -0.201 OA
ENDROOT
BRANCH   2   4
HETATM    4  N   UNK N   1      33.174  15.015  10.711  0.00  0.00    -0.307 N 
HETATM    5  H   UNK N   1      32.358  15.195  11.295  0.00  0.00     0.172 HD
BRANCH   4   6
HETATM    6  C   UNK N   1      34.552  14.934  11.191  0.00  0.00     0.237 C 
BRANCH   6   7
HETATM    7  C   UNK N   1      35.458  16.001  10.622  0.00  0.00     0.259 C 
HETATM    8  O   UNK N   1      36.634  15.732  10.423  0.00  0.00    -0.270 OA
HETATM    9  N   UNK N   1      34.998  17.251  10.366  0.00  0.00    -0.236 N 
ATOM     10  HN  UNK N   1      34.014  17.466  10.525  1.00  0.00     0.197 HD
BRANCH   9  11
HETATM   11  O   UNK N   1      35.728  18.104   9.958  0.00  0.00    -0.287 OA
ATOM     12  HO  UNK N   1      36.054  18.083   9.066  1.00  0.00     0.244 HD
ENDBRANCH   9  11
ENDBRANCH   6   7
ENDBRANCH   4   6
ENDBRANCH   2   4
BRANCH   2  13
HETATM   13  C   UNK N   1      32.911  15.785   7.485  0.00  0.00     0.079 A 
HETATM   14  C   UNK N   1      31.690  15.714   6.788  0.00  0.00     0.028 A 
HETATM   15  C   UNK N   1      31.468  16.493   5.656  0.00  0.00     0.044 A 
HETATM   16  C   UNK N   1      32.469  17.345   5.192  0.00  0.00     0.116 A 
HETATM   17  C   UNK N   1      33.700  17.410   5.861  0.00  0.00     0.044 A 
HETATM   18  F   UNK N   1      32.242  18.107   4.094  0.00  0.00    -0.206 F 
HETATM   19  C   UNK N   1      33.925  16.629   7.006  0.00  0.00     0.028 A 
ENDBRANCH   2  13
TORSDOF 5
ENDMDL
MODEL 6
REMARK VINA RESULT:      -5.9     15.489     16.177
REMARK  5 active torsions:
REMARK  status: ('A' for Active; 'I' for Inactive)
REMARK    1  A    between atoms: S_2  and  N_4 
REMARK    2  A    between atoms: S_2  and  C_12 
REMARK    3  A    between atoms: N_4  and  C_5 
REMARK    4  A    between atoms: C_5  and  C_6 
REMARK       I    between atoms: C_6  and  N_8 
REMARK    5  A    between atoms: N_8  and  O_10 
ROOT
HETATM    1  O   UNK N   1      36.036  11.660  14.521  0.00  0.00    -0.201 OA
HETATM    2  S   UNK N   1      35.888  13.187  14.604  0.00  0.00     0.259 S 
HETATM    3  O   UNK N   1      34.549  13.009  13.877  0.00  0.00    -0.201 OA
ENDROOT
BRANCH   2   4
HETATM    4  N   UNK N   1      37.114  13.001  13.335  0.00  0.00    -0.307 N 
HETATM    5  H   UNK N   1      38.122  13.017  13.487  0.00  0.00     0.172 HD
BRANCH   4   6
HETATM    6  C   UNK N   1      36.461  12.820  12.040  0.00  0.00     0.237 C 
BRANCH   6   7
HETATM    7  C   UNK N   1      36.597  14.010  11.118  0.00  0.00     0.259 C 
HETATM    8  O   UNK N   1      36.633  13.821   9.912  0.00  0.00    -0.270 OA
HETATM    9  N   UNK N   1      36.713  15.269  11.609  0.00  0.00    -0.236 N 
ATOM     10  HN  UNK N   1      36.672  15.422  12.617  1.00  0.00     0.197 HD
BRANCH   9  11
HETATM   11  O   UNK N   1      36.864  16.203  10.879  0.00  0.00    -0.287 OA
ATOM     12  HO  UNK N   1      37.712  16.619  10.786  1.00  0.00     0.244 HD
ENDBRANCH   9  11
ENDBRANCH   6   7
ENDBRANCH   4   6
ENDBRANCH   2   4
BRANCH   2  13
HETATM   13  C   UNK N   1      35.685  12.630  16.316  0.00  0.00     0.079 A 
HETATM   14  C   UNK N   1      35.322  13.575  17.294  0.00  0.00     0.028 A 
HETATM   15  C   UNK N   1      35.147  13.196  18.622  0.00  0.00     0.044 A 
HETATM   16  C   UNK N   1      35.346  11.868  18.997  0.00  0.00     0.116 A 
HETATM   17  C   UNK N   1      35.732  10.919  18.040  0.00  0.00     0.044 A 
HETATM   18  F   UNK N   1      35.165  11.505  20.291  0.00  0.00    -0.206 F 
HETATM   19  C   UNK N   1      35.905  11.298  16.698  0.00  0.00     0.028 A 
ENDBRANCH   2  13
TORSDOF 5
ENDMDL
MODEL 7
REMARK VINA RESULT:      -5.8      7.523      8.800
REMARK  5 active torsions:
REMARK  status: ('A' for Active; 'I' for Inactive)
REMARK    1  A    between atoms: S_2  and  N_4 
REMARK    2  A    between atoms: S_2  and  C_12 
REMARK    3  A    between atoms: N_4  and  C_5 
REMARK    4  A    between atoms: C_5  and  C_6 
REMARK       I    between atoms: C_6  and  N_8 
REMARK    5  A    between atoms: N_8  and  O_10 
ROOT
HETATM    1  O   UNK N   1      19.952  17.581   3.932  0.00  0.00    -0.201 OA
HETATM    2  S   UNK N   1      21.410  17.459   3.459  0.00  0.00     0.259 S 
HETATM    3  O   UNK N   1      21.651  16.603   4.709  0.00  0.00    -0.201 OA
ENDROOT
BRANCH   2   4
HETATM    4  N   UNK N   1      21.353  19.127   4.064  0.00  0.00    -0.307 N 
HETATM    5  H   UNK N   1      21.900  19.485   4.847  0.00  0.00     0.172 HD
BRANCH   4   6
HETATM    6  C   UNK N   1      20.407  19.909   3.271  0.00  0.00     0.237 C 
BRANCH   6   7
HETATM    7  C   UNK N   1      21.012  20.513   2.024  0.00  0.00     0.259 C 
HETATM    8  O   UNK N   1      22.100  21.063   2.104  0.00  0.00    -0.270 OA
HETATM    9  N   UNK N   1      20.354  20.484   0.839  0.00  0.00    -0.236 N 
ATOM     10  HN  UNK N   1      19.450  20.014   0.777  1.00  0.00     0.197 HD
BRANCH   9  11
HETATM   11  O   UNK N   1      20.815  21.000  -0.134  0.00  0.00    -0.287 OA
ATOM     12  HO  UNK N   1      21.146  21.890  -0.106  1.00  0.00     0.244 HD
ENDBRANCH   9  11
ENDBRANCH   6   7
ENDBRANCH   4   6
ENDBRANCH   2   4
BRANCH   2  13
HETATM   13  C   UNK N   1      20.474  16.471   2.264  0.00  0.00     0.079 A 
HETATM   14  C   UNK N   1      20.138  15.146   2.601  0.00  0.00     0.028 A 
HETATM   15  C   UNK N   1      19.413  14.348   1.719  0.00  0.00     0.044 A 
HETATM   16  C   UNK N   1      19.027  14.856   0.480  0.00  0.00     0.116 A 
HETATM   17  C   UNK N   1      19.375  16.165   0.119  0.00  0.00     0.044 A 
HETATM   18  F   UNK N   1      18.315  14.075  -0.369  0.00  0.00    -0.206 F 
HETATM   19  C   UNK N   1      20.102  16.975   1.009  0.00  0.00     0.028 A 
ENDBRANCH   2  13
TORSDOF 5
ENDMDL
MODEL 8
REMARK VINA RESULT:      -5.8     14.364     15.038
REMARK  5 active torsions:
REMARK  status: ('A' for Active; 'I' for Inactive)
REMARK    1  A    between atoms: S_2  and  N_4 
REMARK    2  A    between atoms: S_2  and  C_12 
REMARK    3  A    between atoms: N_4  and  C_5 
REMARK    4  A    between atoms: C_5  and  C_6 
REMARK       I    between atoms: C_6  and  N_8 
REMARK    5  A    between atoms: N_8  and  O_10 
ROOT
HETATM    1  O   UNK N   1      36.494  15.100   9.267  0.00  0.00    -0.201 OA
HETATM    2  S   UNK N   1      35.409  15.479  10.287  0.00  0.00     0.259 S 
HETATM    3  O   UNK N   1      36.436  16.450  10.885  0.00  0.00    -0.201 OA
ENDROOT
BRANCH   2   4
HETATM    4  N   UNK N   1      35.918  13.880  10.863  0.00  0.00    -0.307 N 
HETATM    5  H   UNK N   1      36.691  13.337  10.480  0.00  0.00     0.172 HD
BRANCH   4   6
HETATM    6  C   UNK N   1      35.061  13.458  11.970  0.00  0.00     0.237 C 
BRANCH   6   7
HETATM    7  C   UNK N   1      35.584  13.857  13.331  0.00  0.00     0.259 C 
HETATM    8  O   UNK N   1      34.981  13.485  14.326  0.00  0.00    -0.270 OA
HETATM    9  N   UNK N   1      36.683  14.642  13.459  0.00  0.00    -0.236 N 
ATOM     10  HN  UNK N   1      37.188  14.939  12.624  1.00  0.00     0.197 HD
BRANCH   9  11
HETATM   11  O   UNK N   1      37.068  14.990  14.535  0.00  0.00    -0.287 OA
ATOM     12  HO  UNK N   1      37.915  14.717  14.864  1.00  0.00     0.244 HD
ENDBRANCH   9  11
ENDBRANCH   6   7
ENDBRANCH   4   6
ENDBRANCH   2   4
BRANCH   2  13
HETATM   13  C   UNK N   1      34.810  16.176   8.726  0.00  0.00     0.079 A 
HETATM   14  C   UNK N   1      34.244  17.465   8.736  0.00  0.00     0.028 A 
HETATM   15  C   UNK N   1      33.776  18.047   7.561  0.00  0.00     0.044 A 
HETATM   16  C   UNK N   1      33.851  17.344   6.360  0.00  0.00     0.116 A 
HETATM   17  C   UNK N   1      34.389  16.050   6.337  0.00  0.00     0.044 A 
HETATM   18  F   UNK N   1      33.401  17.921   5.218  0.00  0.00    -0.206 F 
HETATM   19  C   UNK N   1      34.867  15.462   7.520  0.00  0.00     0.028 A 
ENDBRANCH   2  13
TORSDOF 5
ENDMDL
MODEL 9
REMARK VINA RESULT:      -5.8     11.964     13.541
REMARK  5 active torsions:
REMARK  status: ('A' for Active; 'I' for Inactive)
REMARK    1  A    between atoms: S_2  and  N_4 
REMARK    2  A    between atoms: S_2  and  C_12 
REMARK    3  A    between atoms: N_4  and  C_5 
REMARK    4  A    between atoms: C_5  and  C_6 
REMARK       I    between atoms: C_6  and  N_8 
REMARK    5  A    between atoms: N_8  and  O_10 
ROOT
HETATM    1  O   UNK N   1      33.584  16.327   7.255  0.00  0.00    -0.201 OA
HETATM    2  S   UNK N   1      33.179  17.774   7.575  0.00  0.00     0.259 S 
HETATM    3  O   UNK N   1      34.623  18.162   7.233  0.00  0.00    -0.201 OA
ENDROOT
BRANCH   2   4
HETATM    4  N   UNK N   1      33.281  17.051   9.192  0.00  0.00    -0.307 N 
HETATM    5  H   UNK N   1      32.655  17.260   9.969  0.00  0.00     0.172 HD
BRANCH   4   6
HETATM    6  C   UNK N   1      34.398  16.109   9.243  0.00  0.00     0.237 C 
BRANCH   6   7
HETATM    7  C   UNK N   1      35.342  16.346  10.399  0.00  0.00     0.259 C 
HETATM    8  O   UNK N   1      35.892  17.433  10.498  0.00  0.00    -0.270 OA
HETATM    9  N   UNK N   1      35.612  15.368  11.299  0.00  0.00    -0.236 N 
ATOM     10  HN  UNK N   1      35.142  14.466  11.216  1.00  0.00     0.197 HD
BRANCH   9  11
HETATM   11  O   UNK N   1      36.391  15.545  12.186  0.00  0.00    -0.287 OA
ATOM     12  HO  UNK N   1      36.245  15.175  13.048  1.00  0.00     0.244 HD
ENDBRANCH   9  11
ENDBRANCH   6   7
ENDBRANCH   4   6
ENDBRANCH   2   4
BRANCH   2  13
HETATM   13  C   UNK N   1      32.308  17.404   6.031  0.00  0.00     0.079 A 
HETATM   14  C   UNK N   1      33.021  17.479   4.820  0.00  0.00     0.028 A 
HETATM   15  C   UNK N   1      32.399  17.196   3.606  0.00  0.00     0.044 A 
HETATM   16  C   UNK N   1      31.049  16.850   3.583  0.00  0.00     0.116 A 
HETATM   17  C   UNK N   1      30.318  16.795   4.778  0.00  0.00     0.044 A 
HETATM   18  F   UNK N   1      30.452  16.568   2.399  0.00  0.00    -0.206 F 
HETATM   19  C   UNK N   1      30.944  17.074   6.004  0.00  0.00     0.028 A 
ENDBRANCH   2  13
TORSDOF 5
ENDMDL
