REMARK  5 active torsions:
REMARK  status: ('A' for Active; 'I' for Inactive)
REMARK    1  A    between atoms: S_2  and  N_4 
REMARK    2  A    between atoms: S_2  and  C_12 
REMARK    3  A    between atoms: N_4  and  C_5 
REMARK    4  A    between atoms: C_5  and  C_6 
REMARK       I    between atoms: C_6  and  N_8 
REMARK    5  A    between atoms: N_8  and  O_10 
ROOT
HETATM    1  O   UNK N   1       0.374   0.011   1.307  0.00  0.00    -0.201 OA
HETATM    2  S   UNK N   1       0.628   0.380  -0.163  0.00  0.00     0.259 S 
HETATM    3  O   UNK N   1       1.582  -0.821  -0.208  0.00  0.00    -0.201 OA
ENDROOT
BRANCH   2   4
HETATM    4  N   UNK N   1       1.535   1.639   0.698  0.00  0.00    -0.307 N 
HETATM    5  H   UNK N   1       1.419   1.875   1.683  0.00  0.00     0.172 HD
BRANCH   4   6
HETATM    6  C   UNK N   1       2.473   2.286  -0.217  0.00  0.00     0.237 C 
BRANCH   6   7
HETATM    7  C   UNK N   1       3.851   1.664  -0.216  0.00  0.00     0.259 C 
HETATM    8  O   UNK N   1       4.785   2.300  -0.682  0.00  0.00    -0.270 OA
HETATM    9  N   UNK N   1       4.056   0.410   0.258  0.00  0.00    -0.236 N 
ATOM     10  HN  UNK N   1       3.274  -0.111   0.655  1.00  0.00     0.197 HD
BRANCH   9  11
HETATM   11  O   UNK N   1       5.138  -0.094   0.217  0.00  0.00    -0.287 OA
ATOM     12  HO  UNK N   1       5.282  -0.972   0.549  1.00  0.00     0.244 HD
ENDBRANCH   9  11
ENDBRANCH   6   7
ENDBRANCH   4   6
ENDBRANCH   2   4
BRANCH   2  13
HETATM   13  C   UNK N   1      -1.072  -0.244  -0.152  0.00  0.00     0.079 A 
HETATM   14  C   UNK N   1      -1.280  -1.634  -0.070  0.00  0.00     0.028 A 
HETATM   15  C   UNK N   1      -2.568  -2.163  -0.051  0.00  0.00     0.044 A 
HETATM   16  C   UNK N   1      -3.669  -1.312  -0.130  0.00  0.00     0.116 A 
HETATM   17  C   UNK N   1      -3.479   0.073  -0.237  0.00  0.00     0.044 A 
HETATM   18  F   UNK N   1      -4.920  -1.834  -0.102  0.00  0.00    -0.206 F 
HETATM   19  C   UNK N   1      -2.181   0.610  -0.251  0.00  0.00     0.028 A 
ENDBRANCH   2  13
TORSDOF 5
