MODEL 1
REMARK VINA RESULT:      -6.1      0.000      0.000
REMARK  5 active torsions:
REMARK  status: ('A' for Active; 'I' for Inactive)
REMARK       I    between atoms: C_2  and  N_3 
REMARK    1  A    between atoms: C_2  and  C_7 
REMARK    2  A    between atoms: N_3  and  O_5 
REMARK    3  A    between atoms: C_7  and  N_8 
REMARK    4  A    between atoms: N_8  and  S_9 
REMARK    5  A    between atoms: S_9  and  C_12 
ROOT
HETATM    1  N   UNK N   1      19.801  15.906   7.881  0.00  0.00    -0.307 N 
HETATM    2  H   UNK N   1      19.297  15.559   7.065  0.00  0.00     0.172 HD
ENDROOT
BRANCH   1   3
HETATM    3  C   UNK N   1      20.085  17.311   8.152  0.00  0.00     0.237 C 
BRANCH   3   4
HETATM    4  C   UNK N   1      19.118  17.949   9.123  0.00  0.00     0.259 C 
HETATM    5  O   UNK N   1      18.003  17.464   9.246  0.00  0.00    -0.270 OA
HETATM    6  N   UNK N   1      19.462  19.052   9.832  0.00  0.00    -0.236 N 
ATOM      7  HN  UNK N   1      20.399  19.443   9.733  1.00  0.00     0.197 HD
BRANCH   6   8
HETATM    8  O   UNK N   1      18.680  19.572  10.574  0.00  0.00    -0.287 OA
ATOM      9  HO  UNK N   1      18.865  19.648  11.503  1.00  0.00     0.244 HD
ENDBRANCH   6   8
ENDBRANCH   3   4
ENDBRANCH   1   3
BRANCH   1  10
HETATM   10  S   UNK N   1      20.458  14.886   9.176  0.00  0.00     0.259 S 
HETATM   11  O   UNK N   1      20.256  13.906   8.009  0.00  0.00    -0.201 OA
HETATM   12  O   UNK N   1      19.199  14.283   9.808  0.00  0.00    -0.201 OA
BRANCH  10  13
HETATM   13  C   UNK N   1      21.767  13.639   9.357  0.00  0.00     0.079 A 
HETATM   14  C   UNK N   1      21.754  12.784  10.479  0.00  0.00     0.025 A 
HETATM   15  C   UNK N   1      22.750  11.823  10.655  0.00  0.00     0.002 A 
HETATM   16  C   UNK N   1      23.784  11.717   9.725  0.00  0.00     0.000 A 
HETATM   17  C   UNK N   1      23.823  12.577   8.621  0.00  0.00     0.002 A 
HETATM   18  C   UNK N   1      22.818  13.540   8.435  0.00  0.00     0.025 A 
ENDBRANCH  10  13
ENDBRANCH   1  10
TORSDOF 5
ENDMDL
MODEL 2
REMARK VINA RESULT:      -6.0     15.357     16.488
REMARK  5 active torsions:
REMARK  status: ('A' for Active; 'I' for Inactive)
REMARK       I    between atoms: C_2  and  N_3 
REMARK    1  A    between atoms: C_2  and  C_7 
REMARK    2  A    between atoms: N_3  and  O_5 
REMARK    3  A    between atoms: C_7  and  N_8 
REMARK    4  A    between atoms: N_8  and  S_9 
REMARK    5  A    between atoms: S_9  and  C_12 
ROOT
HETATM    1  N   UNK N   1      36.431  14.822  13.368  0.00  0.00    -0.307 N 
HETATM    2  H   UNK N   1      37.108  15.542  13.621  0.00  0.00     0.172 HD
ENDROOT
BRANCH   1   3
HETATM    3  C   UNK N   1      35.540  14.881  12.216  0.00  0.00     0.237 C 
BRANCH   3   4
HETATM    4  C   UNK N   1      35.933  15.926  11.197  0.00  0.00     0.259 C 
HETATM    5  O   UNK N   1      37.052  15.877  10.708  0.00  0.00    -0.270 OA
HETATM    6  N   UNK N   1      35.080  16.917  10.841  0.00  0.00    -0.236 N 
ATOM      7  HN  UNK N   1      34.143  16.944  11.245  1.00  0.00     0.197 HD
BRANCH   6   8
HETATM    8  O   UNK N   1      35.410  17.761  10.060  0.00  0.00    -0.287 OA
ATOM      9  HO  UNK N   1      35.701  17.529   9.185  1.00  0.00     0.244 HD
ENDBRANCH   6   8
ENDBRANCH   3   4
ENDBRANCH   1   3
BRANCH   1  10
HETATM   10  S   UNK N   1      36.171  13.314  14.268  0.00  0.00     0.259 S 
HETATM   11  O   UNK N   1      37.188  14.080  15.129  0.00  0.00    -0.201 OA
HETATM   12  O   UNK N   1      37.334  12.433  13.802  0.00  0.00    -0.201 OA
BRANCH  10  13
HETATM   13  C   UNK N   1      35.819  12.829  15.983  0.00  0.00     0.079 A 
HETATM   14  C   UNK N   1      35.859  11.464  16.336  0.00  0.00     0.025 A 
HETATM   15  C   UNK N   1      35.583  11.056  17.641  0.00  0.00     0.002 A 
HETATM   16  C   UNK N   1      35.242  12.003  18.607  0.00  0.00     0.000 A 
HETATM   17  C   UNK N   1      35.172  13.359  18.264  0.00  0.00     0.002 A 
HETATM   18  C   UNK N   1      35.458  13.775  16.954  0.00  0.00     0.025 A 
ENDBRANCH  10  13
ENDBRANCH   1  10
TORSDOF 5
ENDMDL
MODEL 3
REMARK VINA RESULT:      -6.0     17.118     18.755
REMARK  5 active torsions:
REMARK  status: ('A' for Active; 'I' for Inactive)
REMARK       I    between atoms: C_2  and  N_3 
REMARK    1  A    between atoms: C_2  and  C_7 
REMARK    2  A    between atoms: N_3  and  O_5 
REMARK    3  A    between atoms: C_7  and  N_8 
REMARK    4  A    between atoms: N_8  and  S_9 
REMARK    5  A    between atoms: S_9  and  C_12 
ROOT
HETATM    1  N   UNK N   1      29.437  23.841  -4.042  0.00  0.00    -0.307 N 
HETATM    2  H   UNK N   1      30.157  24.516  -4.301  0.00  0.00     0.172 HD
ENDROOT
BRANCH   1   3
HETATM    3  C   UNK N   1      29.686  22.445  -3.701  0.00  0.00     0.237 C 
BRANCH   3   4
HETATM    4  C   UNK N   1      30.760  22.258  -2.654  0.00  0.00     0.259 C 
HETATM    5  O   UNK N   1      30.723  22.947  -1.645  0.00  0.00    -0.270 OA
HETATM    6  N   UNK N   1      31.764  21.364  -2.830  0.00  0.00    -0.236 N 
ATOM      7  HN  UNK N   1      31.780  20.785  -3.670  1.00  0.00     0.197 HD
BRANCH   6   8
HETATM    8  O   UNK N   1      32.631  21.246  -2.014  0.00  0.00    -0.287 OA
ATOM      9  HO  UNK N   1      32.984  22.005  -1.563  1.00  0.00     0.244 HD
ENDBRANCH   6   8
ENDBRANCH   3   4
ENDBRANCH   1   3
BRANCH   1  10
HETATM   10  S   UNK N   1      27.701  24.198  -3.942  0.00  0.00     0.259 S 
HETATM   11  O   UNK N   1      28.366  25.469  -3.391  0.00  0.00    -0.201 OA
HETATM   12  O   UNK N   1      27.361  23.832  -2.493  0.00  0.00    -0.201 OA
BRANCH  10  13
HETATM   13  C   UNK N   1      26.591  25.562  -4.398  0.00  0.00     0.079 A 
HETATM   14  C   UNK N   1      25.925  25.523  -5.640  0.00  0.00     0.025 A 
HETATM   15  C   UNK N   1      25.075  26.559  -6.027  0.00  0.00     0.002 A 
HETATM   16  C   UNK N   1      24.895  27.658  -5.187  0.00  0.00     0.000 A 
HETATM   17  C   UNK N   1      25.572  27.723  -3.963  0.00  0.00     0.002 A 
HETATM   18  C   UNK N   1      26.421  26.678  -3.566  0.00  0.00     0.025 A 
ENDBRANCH  10  13
ENDBRANCH   1  10
TORSDOF 5
ENDMDL
MODEL 4
REMARK VINA RESULT:      -5.9     14.903     16.152
REMARK  5 active torsions:
REMARK  status: ('A' for Active; 'I' for Inactive)
REMARK       I    between atoms: C_2  and  N_3 
REMARK    1  A    between atoms: C_2  and  C_7 
REMARK    2  A    between atoms: N_3  and  O_5 
REMARK    3  A    between atoms: C_7  and  N_8 
REMARK    4  A    between atoms: N_8  and  S_9 
REMARK    5  A    between atoms: S_9  and  C_12 
ROOT
HETATM    1  N   UNK N   1      36.822  13.995  13.607  0.00  0.00    -0.307 N 
HETATM    2  H   UNK N   1      37.713  14.409  13.881  0.00  0.00     0.172 HD
ENDROOT
BRANCH   1   3
HETATM    3  C   UNK N   1      36.398  13.762  12.231  0.00  0.00     0.237 C 
BRANCH   3   4
HETATM    4  C   UNK N   1      35.341  14.730  11.749  0.00  0.00     0.259 C 
HETATM    5  O   UNK N   1      35.614  15.920  11.700  0.00  0.00    -0.270 OA
HETATM    6  N   UNK N   1      34.105  14.301  11.397  0.00  0.00    -0.236 N 
ATOM      7  HN  UNK N   1      33.890  13.304  11.429  1.00  0.00     0.197 HD
BRANCH   6   8
HETATM    8  O   UNK N   1      33.262  15.076  11.050  0.00  0.00    -0.287 OA
ATOM      9  HO  UNK N   1      32.764  14.931  10.253  1.00  0.00     0.244 HD
ENDBRANCH   6   8
ENDBRANCH   3   4
ENDBRANCH   1   3
BRANCH   1  10
HETATM   10  S   UNK N   1      35.565  13.455  14.737  0.00  0.00     0.259 S 
HETATM   11  O   UNK N   1      36.591  12.311  14.761  0.00  0.00    -0.201 OA
HETATM   12  O   UNK N   1      34.686  12.553  13.863  0.00  0.00    -0.201 OA
BRANCH  10  13
HETATM   13  C   UNK N   1      35.487  12.769  16.417  0.00  0.00     0.079 A 
HETATM   14  C   UNK N   1      35.213  13.628  17.501  0.00  0.00     0.025 A 
HETATM   15  C   UNK N   1      35.157  13.137  18.805  0.00  0.00     0.002 A 
HETATM   16  C   UNK N   1      35.397  11.784  19.048  0.00  0.00     0.000 A 
HETATM   17  C   UNK N   1      35.697  10.925  17.984  0.00  0.00     0.002 A 
HETATM   18  C   UNK N   1      35.745  11.413  16.669  0.00  0.00     0.025 A 
ENDBRANCH  10  13
ENDBRANCH   1  10
TORSDOF 5
ENDMDL
MODEL 5
REMARK VINA RESULT:      -5.8     12.207     13.421
REMARK  5 active torsions:
REMARK  status: ('A' for Active; 'I' for Inactive)
REMARK       I    between atoms: C_2  and  N_3 
REMARK    1  A    between atoms: C_2  and  C_7 
REMARK    2  A    between atoms: N_3  and  O_5 
REMARK    3  A    between atoms: C_7  and  N_8 
REMARK    4  A    between atoms: N_8  and  S_9 
REMARK    5  A    between atoms: S_9  and  C_12 
ROOT
HETATM    1  N   UNK N   1      32.399  16.651   8.977  0.00  0.00    -0.307 N 
HETATM    2  H   UNK N   1      31.857  17.176   9.663  0.00  0.00     0.172 HD
ENDROOT
BRANCH   1   3
HETATM    3  C   UNK N   1      33.788  16.241   9.149  0.00  0.00     0.237 C 
BRANCH   3   4
HETATM    4  C   UNK N   1      34.747  17.397   9.309  0.00  0.00     0.259 C 
HETATM    5  O   UNK N   1      35.548  17.373  10.232  0.00  0.00    -0.270 OA
HETATM    6  N   UNK N   1      34.715  18.458   8.465  0.00  0.00    -0.236 N 
ATOM      7  HN  UNK N   1      34.052  18.465   7.690  1.00  0.00     0.197 HD
BRANCH   6   8
HETATM    8  O   UNK N   1      35.455  19.387   8.619  0.00  0.00    -0.287 OA
ATOM      9  HO  UNK N   1      35.266  20.059   9.263  1.00  0.00     0.244 HD
ENDBRANCH   6   8
ENDBRANCH   3   4
ENDBRANCH   1   3
BRANCH   1  10
HETATM   10  S   UNK N   1      31.787  16.103   7.403  0.00  0.00     0.259 S 
HETATM   11  O   UNK N   1      32.118  17.586   7.169  0.00  0.00    -0.201 OA
HETATM   12  O   UNK N   1      30.311  16.513   7.450  0.00  0.00    -0.201 OA
BRANCH  10  13
HETATM   13  C   UNK N   1      32.294  16.218   5.663  0.00  0.00     0.079 A 
HETATM   14  C   UNK N   1      33.010  15.150   5.081  0.00  0.00     0.025 A 
HETATM   15  C   UNK N   1      33.424  15.210   3.751  0.00  0.00     0.002 A 
HETATM   16  C   UNK N   1      33.148  16.345   2.989  0.00  0.00     0.000 A 
HETATM   17  C   UNK N   1      32.462  17.423   3.561  0.00  0.00     0.002 A 
HETATM   18  C   UNK N   1      32.035  17.364   4.897  0.00  0.00     0.025 A 
ENDBRANCH  10  13
ENDBRANCH   1  10
TORSDOF 5
ENDMDL
MODEL 6
REMARK VINA RESULT:      -5.8     14.862     15.997
REMARK  5 active torsions:
REMARK  status: ('A' for Active; 'I' for Inactive)
REMARK       I    between atoms: C_2  and  N_3 
REMARK    1  A    between atoms: C_2  and  C_7 
REMARK    2  A    between atoms: N_3  and  O_5 
REMARK    3  A    between atoms: C_7  and  N_8 
REMARK    4  A    between atoms: N_8  and  S_9 
REMARK    5  A    between atoms: S_9  and  C_12 
ROOT
HETATM    1  N   UNK N   1      35.808  13.780  11.844  0.00  0.00    -0.307 N 
HETATM    2  H   UNK N   1      35.978  13.123  11.082  0.00  0.00     0.172 HD
ENDROOT
BRANCH   1   3
HETATM    3  C   UNK N   1      34.976  14.974  11.746  0.00  0.00     0.237 C 
BRANCH   3   4
HETATM    4  C   UNK N   1      35.587  16.073  10.907  0.00  0.00     0.259 C 
HETATM    5  O   UNK N   1      36.798  16.084  10.748  0.00  0.00    -0.270 OA
HETATM    6  N   UNK N   1      34.820  17.045  10.357  0.00  0.00    -0.236 N 
ATOM      7  HN  UNK N   1      33.808  17.021  10.485  1.00  0.00     0.197 HD
BRANCH   6   8
HETATM    8  O   UNK N   1      35.314  17.932   9.723  0.00  0.00    -0.287 OA
ATOM      9  HO  UNK N   1      35.744  17.757   8.893  1.00  0.00     0.244 HD
ENDBRANCH   6   8
ENDBRANCH   3   4
ENDBRANCH   1   3
BRANCH   1  10
HETATM   10  S   UNK N   1      36.479  13.632  13.480  0.00  0.00     0.259 S 
HETATM   11  O   UNK N   1      34.960  13.656  13.711  0.00  0.00    -0.201 OA
HETATM   12  O   UNK N   1      36.506  15.084  13.970  0.00  0.00    -0.201 OA
BRANCH  10  13
HETATM   13  C   UNK N   1      36.196  12.603  14.950  0.00  0.00     0.079 A 
HETATM   14  C   UNK N   1      35.395  13.102  15.998  0.00  0.00     0.025 A 
HETATM   15  C   UNK N   1      35.166  12.343  17.145  0.00  0.00     0.002 A 
HETATM   16  C   UNK N   1      35.752  11.083  17.272  0.00  0.00     0.000 A 
HETATM   17  C   UNK N   1      36.571  10.586  16.251  0.00  0.00     0.002 A 
HETATM   18  C   UNK N   1      36.797  11.344  15.090  0.00  0.00     0.025 A 
ENDBRANCH  10  13
ENDBRANCH   1  10
TORSDOF 5
ENDMDL
MODEL 7
REMARK VINA RESULT:      -5.8     14.189     15.213
REMARK  5 active torsions:
REMARK  status: ('A' for Active; 'I' for Inactive)
REMARK       I    between atoms: C_2  and  N_3 
REMARK    1  A    between atoms: C_2  and  C_7 
REMARK    2  A    between atoms: N_3  and  O_5 
REMARK    3  A    between atoms: C_7  and  N_8 
REMARK    4  A    between atoms: N_8  and  S_9 
REMARK    5  A    between atoms: S_9  and  C_12 
ROOT
HETATM    1  N   UNK N   1      34.189  15.889  10.025  0.00  0.00    -0.307 N 
HETATM    2  H   UNK N   1      33.422  16.173  10.633  0.00  0.00     0.172 HD
ENDROOT
BRANCH   1   3
HETATM    3  C   UNK N   1      34.193  16.015   8.572  0.00  0.00     0.237 C 
BRANCH   3   4
HETATM    4  C   UNK N   1      34.569  17.395   8.083  0.00  0.00     0.259 C 
HETATM    5  O   UNK N   1      34.494  17.635   6.887  0.00  0.00    -0.270 OA
HETATM    6  N   UNK N   1      35.004  18.349   8.941  0.00  0.00    -0.236 N 
ATOM      7  HN  UNK N   1      35.052  18.145   9.940  1.00  0.00     0.197 HD
BRANCH   6   8
HETATM    8  O   UNK N   1      35.333  19.429   8.543  0.00  0.00    -0.287 OA
ATOM      9  HO  UNK N   1      34.683  20.076   8.295  1.00  0.00     0.244 HD
ENDBRANCH   6   8
ENDBRANCH   3   4
ENDBRANCH   1   3
BRANCH   1  10
HETATM   10  S   UNK N   1      35.714  15.172  10.583  0.00  0.00     0.259 S 
HETATM   11  O   UNK N   1      35.048  15.662  11.878  0.00  0.00    -0.201 OA
HETATM   12  O   UNK N   1      36.644  16.385  10.685  0.00  0.00    -0.201 OA
BRANCH  10  13
HETATM   13  C   UNK N   1      36.248  14.010  11.873  0.00  0.00     0.079 A 
HETATM   14  C   UNK N   1      36.063  14.351  13.229  0.00  0.00     0.025 A 
HETATM   15  C   UNK N   1      36.471  13.488  14.245  0.00  0.00     0.002 A 
HETATM   16  C   UNK N   1      37.089  12.280  13.922  0.00  0.00     0.000 A 
HETATM   17  C   UNK N   1      37.304  11.940  12.580  0.00  0.00     0.002 A 
HETATM   18  C   UNK N   1      36.887  12.803  11.554  0.00  0.00     0.025 A 
ENDBRANCH  10  13
ENDBRANCH   1  10
TORSDOF 5
ENDMDL
MODEL 8
REMARK VINA RESULT:      -5.8     11.506     12.636
REMARK  5 active torsions:
REMARK  status: ('A' for Active; 'I' for Inactive)
REMARK       I    between atoms: C_2  and  N_3 
REMARK    1  A    between atoms: C_2  and  C_7 
REMARK    2  A    between atoms: N_3  and  O_5 
REMARK    3  A    between atoms: C_7  and  N_8 
REMARK    4  A    between atoms: N_8  and  S_9 
REMARK    5  A    between atoms: S_9  and  C_12 
ROOT
HETATM    1  N   UNK N   1      33.743  15.657   7.875  0.00  0.00    -0.307 N 
HETATM    2  H   UNK N   1      34.438  15.128   7.349  0.00  0.00     0.172 HD
ENDROOT
BRANCH   1   3
HETATM    3  C   UNK N   1      33.908  16.116   9.250  0.00  0.00     0.237 C 
BRANCH   3   4
HETATM    4  C   UNK N   1      34.810  17.321   9.383  0.00  0.00     0.259 C 
HETATM    5  O   UNK N   1      35.621  17.350  10.296  0.00  0.00    -0.270 OA
HETATM    6  N   UNK N   1      34.714  18.367   8.526  0.00  0.00    -0.236 N 
ATOM      7  HN  UNK N   1      34.043  18.330   7.759  1.00  0.00     0.197 HD
BRANCH   6   8
HETATM    8  O   UNK N   1      35.408  19.334   8.658  0.00  0.00    -0.287 OA
ATOM      9  HO  UNK N   1      36.348  19.249   8.770  1.00  0.00     0.244 HD
ENDBRANCH   6   8
ENDBRANCH   3   4
ENDBRANCH   1   3
BRANCH   1  10
HETATM   10  S   UNK N   1      32.157  16.152   7.250  0.00  0.00     0.259 S 
HETATM   11  O   UNK N   1      31.839  15.594   8.646  0.00  0.00    -0.201 OA
HETATM   12  O   UNK N   1      31.593  14.847   6.678  0.00  0.00    -0.201 OA
BRANCH  10  13
HETATM   13  C   UNK N   1      30.730  17.108   7.841  0.00  0.00     0.079 A 
HETATM   14  C   UNK N   1      29.488  16.972   7.185  0.00  0.00     0.025 A 
HETATM   15  C   UNK N   1      28.376  17.700   7.606  0.00  0.00     0.002 A 
HETATM   16  C   UNK N   1      28.492  18.590   8.673  0.00  0.00     0.000 A 
HETATM   17  C   UNK N   1      29.725  18.756   9.316  0.00  0.00     0.002 A 
HETATM   18  C   UNK N   1      30.846  18.018   8.902  0.00  0.00     0.025 A 
ENDBRANCH  10  13
ENDBRANCH   1  10
TORSDOF 5
ENDMDL
MODEL 9
REMARK VINA RESULT:      -5.6      7.252      8.820
REMARK  5 active torsions:
REMARK  status: ('A' for Active; 'I' for Inactive)
REMARK       I    between atoms: C_2  and  N_3 
REMARK    1  A    between atoms: C_2  and  C_7 
REMARK    2  A    between atoms: N_3  and  O_5 
REMARK    3  A    between atoms: C_7  and  N_8 
REMARK    4  A    between atoms: N_8  and  S_9 
REMARK    5  A    between atoms: S_9  and  C_12 
ROOT
HETATM    1  N   UNK N   1      19.591  18.838   2.316  0.00  0.00    -0.307 N 
HETATM    2  H   UNK N   1      18.621  19.144   2.245  0.00  0.00     0.172 HD
ENDROOT
BRANCH   1   3
HETATM    3  C   UNK N   1      20.063  17.487   2.035  0.00  0.00     0.237 C 
BRANCH   3   4
HETATM    4  C   UNK N   1      19.738  17.008   0.639  0.00  0.00     0.259 C 
HETATM    5  O   UNK N   1      20.398  17.436  -0.296  0.00  0.00    -0.270 OA
HETATM    6  N   UNK N   1      18.722  16.141   0.412  0.00  0.00    -0.236 N 
ATOM      7  HN  UNK N   1      18.184  15.779   1.200  1.00  0.00     0.197 HD
BRANCH   6   8
HETATM    8  O   UNK N   1      18.448  15.793  -0.700  0.00  0.00    -0.287 OA
ATOM      9  HO  UNK N   1      18.229  16.430  -1.370  1.00  0.00     0.244 HD
ENDBRANCH   6   8
ENDBRANCH   3   4
ENDBRANCH   1   3
BRANCH   1  10
HETATM   10  S   UNK N   1      20.949  19.874   2.799  0.00  0.00     0.259 S 
HETATM   11  O   UNK N   1      20.937  18.769   3.867  0.00  0.00    -0.201 OA
HETATM   12  O   UNK N   1      20.319  20.797   3.847  0.00  0.00    -0.201 OA
BRANCH  10  13
HETATM   13  C   UNK N   1      22.685  19.655   3.289  0.00  0.00     0.079 A 
HETATM   14  C   UNK N   1      23.026  18.606   4.170  0.00  0.00     0.025 A 
HETATM   15  C   UNK N   1      24.346  18.417   4.575  0.00  0.00     0.002 A 
HETATM   16  C   UNK N   1      25.342  19.284   4.125  0.00  0.00     0.000 A 
HETATM   17  C   UNK N   1      25.013  20.345   3.272  0.00  0.00     0.002 A 
HETATM   18  C   UNK N   1      23.686  20.534   2.854  0.00  0.00     0.025 A 
ENDBRANCH  10  13
ENDBRANCH   1  10
TORSDOF 5
ENDMDL
