REMARK  5 active torsions:
REMARK  status: ('A' for Active; 'I' for Inactive)
REMARK       I    between atoms: C_2  and  N_3 
REMARK    1  A    between atoms: C_2  and  C_7 
REMARK    2  A    between atoms: N_3  and  O_5 
REMARK    3  A    between atoms: C_7  and  N_8 
REMARK    4  A    between atoms: N_8  and  S_9 
REMARK    5  A    between atoms: S_9  and  C_12 
ROOT
HETATM    1  N   UNK N   1      -1.727  -1.117   0.897  0.00  0.00    -0.307 N 
HETATM    2  H   UNK N   1      -1.709  -1.152   1.916  0.00  0.00     0.172 HD
ENDROOT
BRANCH   1   3
HETATM    3  C   UNK N   1      -2.588  -1.934   0.049  0.00  0.00     0.237 C 
BRANCH   3   4
HETATM    4  C   UNK N   1      -3.939  -1.313  -0.222  0.00  0.00     0.259 C 
HETATM    5  O   UNK N   1      -4.808  -2.000  -0.738  0.00  0.00    -0.270 OA
HETATM    6  N   UNK N   1      -4.187  -0.014   0.075  0.00  0.00    -0.236 N 
ATOM      7  HN  UNK N   1      -3.460   0.549   0.517  1.00  0.00     0.197 HD
BRANCH   6   8
HETATM    8  O   UNK N   1      -5.248   0.481  -0.174  0.00  0.00    -0.287 OA
ATOM      9  HO  UNK N   1      -5.422   1.392   0.034  1.00  0.00     0.244 HD
ENDBRANCH   6   8
ENDBRANCH   3   4
ENDBRANCH   1   3
BRANCH   1  10
HETATM   10  S   UNK N   1      -0.716  -0.052  -0.100  0.00  0.00     0.259 S 
HETATM   11  O   UNK N   1      -0.381   0.371   1.339  0.00  0.00    -0.201 OA
HETATM   12  O   UNK N   1      -1.561   1.222  -0.203  0.00  0.00    -0.201 OA
BRANCH  10  13
HETATM   13  C   UNK N   1       1.020   0.482  -0.143  0.00  0.00     0.079 A 
HETATM   14  C   UNK N   1       1.320   1.859  -0.080  0.00  0.00     0.025 A 
HETATM   15  C   UNK N   1       2.641   2.304  -0.122  0.00  0.00     0.002 A 
HETATM   16  C   UNK N   1       3.680   1.382  -0.249  0.00  0.00     0.000 A 
HETATM   17  C   UNK N   1       3.395   0.014  -0.340  0.00  0.00     0.002 A 
HETATM   18  C   UNK N   1       2.067  -0.439  -0.289  0.00  0.00     0.025 A 
ENDBRANCH  10  13
ENDBRANCH   1  10
TORSDOF 5
