MODEL 1
REMARK VINA RESULT:      -5.4      0.000      0.000
REMARK  13 active torsions:
REMARK  status: ('A' for Active; 'I' for Inactive)
REMARK    1  A    between atoms: C_2  and  C_3 
REMARK    2  A    between atoms: C_3  and  C_4 
REMARK    3  A    between atoms: C_4  and  C_5 
REMARK    4  A    between atoms: C_5  and  C_6 
REMARK    5  A    between atoms: C_6  and  C_7 
REMARK    6  A    between atoms: C_7  and  C_8 
REMARK    7  A    between atoms: C_8  and  O_9 
REMARK    8  A    between atoms: C_10  and  O_9 
REMARK    9  A    between atoms: C_12  and  C_13 
REMARK   10  A    between atoms: C_13  and  O_14 
REMARK   11  A    between atoms: C_15  and  O_16 
REMARK   12  A    between atoms: C_17  and  O_18 
REMARK   13  A    between atoms: C_19  and  O_20 
ROOT
HETATM    1  C   UNK N   1      34.982  13.697  11.870  0.00  0.00     0.291 C 
HETATM    2  O   UNK N   1      33.843  14.427  11.424  0.00  0.00    -0.348 OA
HETATM    3  C   UNK N   1      34.174  15.417  10.454  0.00  0.00     0.179 C 
HETATM    4  C   UNK N   1      35.188  16.435  11.024  0.00  0.00     0.180 C 
HETATM    5  C   UNK N   1      36.437  15.729  11.557  0.00  0.00     0.183 C 
HETATM    6  C   UNK N   1      35.995  14.651  12.551  0.00  0.00     0.204 C 
ENDROOT
BRANCH   1   7
HETATM    7  O   UNK N   1      34.523  12.734  12.802  0.00  0.00    -0.359 OA
BRANCH   7   8
HETATM    8  C   UNK N   1      34.754  11.442  12.292  0.00  0.00     0.171 C 
BRANCH   8   9
HETATM    9  C   UNK N   1      34.316  10.385  13.293  0.00  0.00     0.026 C 
BRANCH   9  10
HETATM   10  C   UNK N   1      33.789  11.040  14.558  0.00  0.00     0.002 C 
BRANCH  10  11
HETATM   11  C   UNK N   1      34.597  10.635  15.776  0.00  0.00     0.000 C 
BRANCH  11  12
HETATM   12  C   UNK N   1      35.933  11.363  15.796  0.00  0.00     0.000 C 
BRANCH  12  13
HETATM   13  C   UNK N   1      35.721  12.826  16.134  0.00  0.00    -0.000 C 
BRANCH  13  14
HETATM   14  C   UNK N   1      34.976  12.945  17.450  0.00  0.00    -0.005 C 
HETATM   15  C   UNK N   1      35.372  14.232  18.139  0.00  0.00     0.005 C 
ENDBRANCH  13  14
ENDBRANCH  12  13
ENDBRANCH  11  12
ENDBRANCH  10  11
ENDBRANCH   9  10
ENDBRANCH   8   9
ENDBRANCH   7   8
ENDBRANCH   1   7
BRANCH   6  16
HETATM   16  O   UNK N   1      37.118  13.954  13.001  0.00  0.00    -0.388 OA
HETATM   17  H   UNK N   1      37.991  13.875  12.585  0.00  0.00     0.210 HD
ENDBRANCH   6  16
BRANCH   3  18
HETATM   18  C   UNK N   1      34.612  14.787   9.127  0.00  0.00     0.198 C 
BRANCH  18  19
HETATM   19  O   UNK N   1      33.521  14.183   8.499  0.00  0.00    -0.398 OA
HETATM   20  H   UNK N   1      33.157  13.355   8.850  0.00  0.00     0.209 HD
ENDBRANCH  18  19
ENDBRANCH   3  18
BRANCH   5  21
HETATM   21  O   UNK N   1      37.160  15.148  10.508  0.00  0.00    -0.390 OA
HETATM   22  H   UNK N   1      37.687  14.923   9.726  0.00  0.00     0.210 HD
ENDBRANCH   5  21
BRANCH   4  23
HETATM   23  O   UNK N   1      35.533  17.388  10.061  0.00  0.00    -0.390 OA
HETATM   24  H   UNK N   1      35.359  17.304   9.110  0.00  0.00     0.210 HD
ENDBRANCH   4  23
TORSDOF 13
ENDMDL
MODEL 2
REMARK VINA RESULT:      -5.4     14.651     16.842
REMARK  13 active torsions:
REMARK  status: ('A' for Active; 'I' for Inactive)
REMARK    1  A    between atoms: C_2  and  C_3 
REMARK    2  A    between atoms: C_3  and  C_4 
REMARK    3  A    between atoms: C_4  and  C_5 
REMARK    4  A    between atoms: C_5  and  C_6 
REMARK    5  A    between atoms: C_6  and  C_7 
REMARK    6  A    between atoms: C_7  and  C_8 
REMARK    7  A    between atoms: C_8  and  O_9 
REMARK    8  A    between atoms: C_10  and  O_9 
REMARK    9  A    between atoms: C_12  and  C_13 
REMARK   10  A    between atoms: C_13  and  O_14 
REMARK   11  A    between atoms: C_15  and  O_16 
REMARK   12  A    between atoms: C_17  and  O_18 
REMARK   13  A    between atoms: C_19  and  O_20 
ROOT
HETATM    1  C   UNK N   1      20.680  18.291   4.419  0.00  0.00     0.291 C 
HETATM    2  O   UNK N   1      21.816  18.768   3.704  0.00  0.00    -0.348 OA
HETATM    3  C   UNK N   1      21.469  19.337   2.444  0.00  0.00     0.179 C 
HETATM    4  C   UNK N   1      20.753  18.303   1.546  0.00  0.00     0.180 C 
HETATM    5  C   UNK N   1      19.530  17.713   2.253  0.00  0.00     0.183 C 
HETATM    6  C   UNK N   1      19.976  17.169   3.614  0.00  0.00     0.204 C 
ENDROOT
BRANCH   1   7
HETATM    7  O   UNK N   1      21.148  17.779   5.654  0.00  0.00    -0.359 OA
BRANCH   7   8
HETATM    8  C   UNK N   1      22.039  16.716   5.412  0.00  0.00     0.171 C 
BRANCH   8   9
HETATM    9  C   UNK N   1      22.187  15.848   6.652  0.00  0.00     0.026 C 
BRANCH   9  10
HETATM   10  C   UNK N   1      20.822  15.426   7.169  0.00  0.00     0.002 C 
BRANCH  10  11
HETATM   11  C   UNK N   1      20.666  15.727   8.647  0.00  0.00     0.000 C 
BRANCH  11  12
HETATM   12  C   UNK N   1      20.501  14.438   9.439  0.00  0.00     0.000 C 
BRANCH  12  13
HETATM   13  C   UNK N   1      21.863  13.862   9.779  0.00  0.00    -0.000 C 
BRANCH  13  14
HETATM   14  C   UNK N   1      21.725  12.390  10.120  0.00  0.00    -0.005 C 
HETATM   15  C   UNK N   1      20.890  12.239  11.372  0.00  0.00     0.005 C 
ENDBRANCH  13  14
ENDBRANCH  12  13
ENDBRANCH  11  12
ENDBRANCH  10  11
ENDBRANCH   9  10
ENDBRANCH   8   9
ENDBRANCH   7   8
ENDBRANCH   1   7
BRANCH   6  16
HETATM   16  O   UNK N   1      18.861  16.683   4.300  0.00  0.00    -0.388 OA
HETATM   17  H   UNK N   1      18.290  15.932   4.076  0.00  0.00     0.210 HD
ENDBRANCH   6  16
BRANCH   3  18
HETATM   18  C   UNK N   1      20.697  20.651   2.608  0.00  0.00     0.198 C 
BRANCH  18  19
HETATM   19  O   UNK N   1      21.588  21.715   2.769  0.00  0.00    -0.398 OA
HETATM   20  H   UNK N   1      21.545  22.267   3.565  0.00  0.00     0.209 HD
ENDBRANCH  18  19
ENDBRANCH   3  18
BRANCH   5  21
HETATM   21  O   UNK N   1      18.542  18.688   2.425  0.00  0.00    -0.390 OA
HETATM   22  H   UNK N   1      17.852  19.368   2.357  0.00  0.00     0.210 HD
ENDBRANCH   5  21
BRANCH   4  23
HETATM   23  O   UNK N   1      20.388  18.872   0.323  0.00  0.00    -0.390 OA
HETATM   24  H   UNK N   1      20.465  18.432  -0.538  0.00  0.00     0.210 HD
ENDBRANCH   4  23
TORSDOF 13
ENDMDL
MODEL 3
REMARK VINA RESULT:      -5.3      3.654      7.102
REMARK  13 active torsions:
REMARK  status: ('A' for Active; 'I' for Inactive)
REMARK    1  A    between atoms: C_2  and  C_3 
REMARK    2  A    between atoms: C_3  and  C_4 
REMARK    3  A    between atoms: C_4  and  C_5 
REMARK    4  A    between atoms: C_5  and  C_6 
REMARK    5  A    between atoms: C_6  and  C_7 
REMARK    6  A    between atoms: C_7  and  C_8 
REMARK    7  A    between atoms: C_8  and  O_9 
REMARK    8  A    between atoms: C_10  and  O_9 
REMARK    9  A    between atoms: C_12  and  C_13 
REMARK   10  A    between atoms: C_13  and  O_14 
REMARK   11  A    between atoms: C_15  and  O_16 
REMARK   12  A    between atoms: C_17  and  O_18 
REMARK   13  A    between atoms: C_19  and  O_20 
ROOT
HETATM    1  C   UNK N   1      34.801  14.239   9.006  0.00  0.00     0.291 C 
HETATM    2  O   UNK N   1      36.115  14.790   9.045  0.00  0.00    -0.348 OA
HETATM    3  C   UNK N   1      36.714  14.684  10.333  0.00  0.00     0.179 C 
HETATM    4  C   UNK N   1      35.868  15.415  11.400  0.00  0.00     0.180 C 
HETATM    5  C   UNK N   1      34.426  14.903  11.406  0.00  0.00     0.183 C 
HETATM    6  C   UNK N   1      33.872  15.003   9.982  0.00  0.00     0.204 C 
ENDROOT
BRANCH   1   7
HETATM    7  O   UNK N   1      34.328  14.378   7.678  0.00  0.00    -0.359 OA
BRANCH   7   8
HETATM    8  C   UNK N   1      35.015  15.432   7.046  0.00  0.00     0.171 C 
BRANCH   8   9
HETATM    9  C   UNK N   1      34.245  15.919   5.829  0.00  0.00     0.026 C 
BRANCH   9  10
HETATM   10  C   UNK N   1      33.714  17.323   6.065  0.00  0.00     0.002 C 
BRANCH  10  11
HETATM   11  C   UNK N   1      33.965  17.785   7.487  0.00  0.00     0.000 C 
BRANCH  11  12
HETATM   12  C   UNK N   1      32.663  18.221   8.144  0.00  0.00     0.000 C 
BRANCH  12  13
HETATM   13  C   UNK N   1      31.615  17.135   7.988  0.00  0.00    -0.000 C 
BRANCH  13  14
HETATM   14  C   UNK N   1      30.230  17.750   8.038  0.00  0.00    -0.005 C 
HETATM   15  C   UNK N   1      30.100  18.599   9.283  0.00  0.00     0.005 C 
ENDBRANCH  13  14
ENDBRANCH  12  13
ENDBRANCH  11  12
ENDBRANCH  10  11
ENDBRANCH   9  10
ENDBRANCH   8   9
ENDBRANCH   7   8
ENDBRANCH   1   7
BRANCH   6  16
HETATM   16  O   UNK N   1      32.577  14.482   9.956  0.00  0.00    -0.388 OA
HETATM   17  H   UNK N   1      31.798  14.763  10.461  0.00  0.00     0.210 HD
ENDBRANCH   6  16
BRANCH   3  18
HETATM   18  C   UNK N   1      37.036  13.229  10.691  0.00  0.00     0.198 C 
BRANCH  18  19
HETATM   19  O   UNK N   1      38.053  13.182  11.646  0.00  0.00    -0.398 OA
HETATM   20  H   UNK N   1      37.917  12.700  12.477  0.00  0.00     0.209 HD
ENDBRANCH  18  19
ENDBRANCH   3  18
BRANCH   5  21
HETATM   21  O   UNK N   1      34.376  13.576  11.850  0.00  0.00    -0.390 OA
HETATM   22  H   UNK N   1      34.483  12.708  12.269  0.00  0.00     0.210 HD
ENDBRANCH   5  21
BRANCH   4  23
HETATM   23  O   UNK N   1      36.443  15.285  12.668  0.00  0.00    -0.390 OA
HETATM   24  H   UNK N   1      35.965  15.379  13.507  0.00  0.00     0.210 HD
ENDBRANCH   4  23
TORSDOF 13
ENDMDL
MODEL 4
REMARK VINA RESULT:      -5.3      2.371      4.210
REMARK  13 active torsions:
REMARK  status: ('A' for Active; 'I' for Inactive)
REMARK    1  A    between atoms: C_2  and  C_3 
REMARK    2  A    between atoms: C_3  and  C_4 
REMARK    3  A    between atoms: C_4  and  C_5 
REMARK    4  A    between atoms: C_5  and  C_6 
REMARK    5  A    between atoms: C_6  and  C_7 
REMARK    6  A    between atoms: C_7  and  C_8 
REMARK    7  A    between atoms: C_8  and  O_9 
REMARK    8  A    between atoms: C_10  and  O_9 
REMARK    9  A    between atoms: C_12  and  C_13 
REMARK   10  A    between atoms: C_13  and  O_14 
REMARK   11  A    between atoms: C_15  and  O_16 
REMARK   12  A    between atoms: C_17  and  O_18 
REMARK   13  A    between atoms: C_19  and  O_20 
ROOT
HETATM    1  C   UNK N   1      34.605  16.847   9.184  0.00  0.00     0.291 C 
HETATM    2  O   UNK N   1      33.471  15.989   9.279  0.00  0.00    -0.348 OA
HETATM    3  C   UNK N   1      32.900  15.695   8.007  0.00  0.00     0.179 C 
HETATM    4  C   UNK N   1      32.450  16.987   7.289  0.00  0.00     0.180 C 
HETATM    5  C   UNK N   1      33.606  17.983   7.170  0.00  0.00     0.183 C 
HETATM    6  C   UNK N   1      34.195  18.207   8.566  0.00  0.00     0.204 C 
ENDROOT
BRANCH   1   7
HETATM    7  O   UNK N   1      35.094  17.040  10.499  0.00  0.00    -0.359 OA
BRANCH   7   8
HETATM    8  C   UNK N   1      35.984  15.999  10.825  0.00  0.00     0.171 C 
BRANCH   8   9
HETATM    9  C   UNK N   1      35.332  15.019  11.787  0.00  0.00     0.026 C 
BRANCH   9  10
HETATM   10  C   UNK N   1      36.192  14.840  13.026  0.00  0.00     0.002 C 
BRANCH  10  11
HETATM   11  C   UNK N   1      35.791  13.609  13.815  0.00  0.00     0.000 C 
BRANCH  11  12
HETATM   12  C   UNK N   1      36.326  13.689  15.237  0.00  0.00     0.000 C 
BRANCH  12  13
HETATM   13  C   UNK N   1      36.159  12.349  15.929  0.00  0.00    -0.000 C 
BRANCH  13  14
HETATM   14  C   UNK N   1      35.130  12.470  17.037  0.00  0.00    -0.005 C 
HETATM   15  C   UNK N   1      35.267  13.819  17.707  0.00  0.00     0.005 C 
ENDBRANCH  13  14
ENDBRANCH  12  13
ENDBRANCH  11  12
ENDBRANCH  10  11
ENDBRANCH   9  10
ENDBRANCH   8   9
ENDBRANCH   7   8
ENDBRANCH   1   7
BRANCH   6  16
HETATM   16  O   UNK N   1      35.292  19.066   8.468  0.00  0.00    -0.388 OA
HETATM   17  H   UNK N   1      35.391  19.967   8.812  0.00  0.00     0.210 HD
ENDBRANCH   6  16
BRANCH   3  18
HETATM   18  C   UNK N   1      33.822  14.809   7.162  0.00  0.00     0.198 C 
BRANCH  18  19
HETATM   19  O   UNK N   1      33.072  14.069   6.247  0.00  0.00    -0.398 OA
HETATM   20  H   UNK N   1      32.103  14.078   6.294  0.00  0.00     0.209 HD
ENDBRANCH  18  19
ENDBRANCH   3  18
BRANCH   5  21
HETATM   21  O   UNK N   1      34.591  17.493   6.305  0.00  0.00    -0.390 OA
HETATM   22  H   UNK N   1      35.344  17.327   5.716  0.00  0.00     0.210 HD
ENDBRANCH   5  21
BRANCH   4  23
HETATM   23  O   UNK N   1      31.917  16.698   6.029  0.00  0.00    -0.390 OA
HETATM   24  H   UNK N   1      32.427  16.363   5.275  0.00  0.00     0.210 HD
ENDBRANCH   4  23
TORSDOF 13
ENDMDL
MODEL 5
REMARK VINA RESULT:      -5.3     13.706     16.713
REMARK  13 active torsions:
REMARK  status: ('A' for Active; 'I' for Inactive)
REMARK    1  A    between atoms: C_2  and  C_3 
REMARK    2  A    between atoms: C_3  and  C_4 
REMARK    3  A    between atoms: C_4  and  C_5 
REMARK    4  A    between atoms: C_5  and  C_6 
REMARK    5  A    between atoms: C_6  and  C_7 
REMARK    6  A    between atoms: C_7  and  C_8 
REMARK    7  A    between atoms: C_8  and  O_9 
REMARK    8  A    between atoms: C_10  and  O_9 
REMARK    9  A    between atoms: C_12  and  C_13 
REMARK   10  A    between atoms: C_13  and  O_14 
REMARK   11  A    between atoms: C_15  and  O_16 
REMARK   12  A    between atoms: C_17  and  O_18 
REMARK   13  A    between atoms: C_19  and  O_20 
ROOT
HETATM    1  C   UNK N   1      22.266  18.630   3.273  0.00  0.00     0.291 C 
HETATM    2  O   UNK N   1      21.376  17.685   3.859  0.00  0.00    -0.348 OA
HETATM    3  C   UNK N   1      20.187  17.506   3.094  0.00  0.00     0.179 C 
HETATM    4  C   UNK N   1      19.420  18.839   2.942  0.00  0.00     0.180 C 
HETATM    5  C   UNK N   1      20.316  19.926   2.344  0.00  0.00     0.183 C 
HETATM    6  C   UNK N   1      21.589  20.022   3.191  0.00  0.00     0.204 C 
ENDROOT
BRANCH   1   7
HETATM    7  O   UNK N   1      23.411  18.698   4.104  0.00  0.00    -0.359 OA
BRANCH   7   8
HETATM    8  C   UNK N   1      24.079  17.459   4.082  0.00  0.00     0.171 C 
BRANCH   8   9
HETATM    9  C   UNK N   1      25.488  17.620   3.533  0.00  0.00     0.026 C 
BRANCH   9  10
HETATM   10  C   UNK N   1      26.502  17.607   4.664  0.00  0.00     0.002 C 
BRANCH  10  11
HETATM   11  C   UNK N   1      27.584  18.650   4.458  0.00  0.00     0.000 C 
BRANCH  11  12
HETATM   12  C   UNK N   1      27.036  19.840   3.684  0.00  0.00     0.000 C 
BRANCH  12  13
HETATM   13  C   UNK N   1      26.394  20.828   4.639  0.00  0.00    -0.000 C 
BRANCH  13  14
HETATM   14  C   UNK N   1      27.306  21.058   5.828  0.00  0.00    -0.005 C 
HETATM   15  C   UNK N   1      26.473  21.414   7.040  0.00  0.00     0.005 C 
ENDBRANCH  13  14
ENDBRANCH  12  13
ENDBRANCH  11  12
ENDBRANCH  10  11
ENDBRANCH   9  10
ENDBRANCH   8   9
ENDBRANCH   7   8
ENDBRANCH   1   7
BRANCH   6  16
HETATM   16  O   UNK N   1      22.447  20.966   2.623  0.00  0.00    -0.388 OA
HETATM   17  H   UNK N   1      23.117  20.841   1.933  0.00  0.00     0.210 HD
ENDBRANCH   6  16
BRANCH   3  18
HETATM   18  C   UNK N   1      20.470  16.802   1.763  0.00  0.00     0.198 C 
BRANCH  18  19
HETATM   19  O   UNK N   1      19.291  16.263   1.244  0.00  0.00    -0.398 OA
HETATM   20  H   UNK N   1      19.009  15.372   1.507  0.00  0.00     0.209 HD
ENDBRANCH  18  19
ENDBRANCH   3  18
BRANCH   5  21
HETATM   21  O   UNK N   1      20.642  19.621   1.018  0.00  0.00    -0.390 OA
HETATM   22  H   UNK N   1      20.753  19.264   0.123  0.00  0.00     0.210 HD
ENDBRANCH   5  21
BRANCH   4  23
HETATM   23  O   UNK N   1      18.270  18.667   2.167  0.00  0.00    -0.390 OA
HETATM   24  H   UNK N   1      17.361  18.711   2.505  0.00  0.00     0.210 HD
ENDBRANCH   4  23
TORSDOF 13
ENDMDL
MODEL 6
REMARK VINA RESULT:      -5.3      2.004      3.787
REMARK  13 active torsions:
REMARK  status: ('A' for Active; 'I' for Inactive)
REMARK    1  A    between atoms: C_2  and  C_3 
REMARK    2  A    between atoms: C_3  and  C_4 
REMARK    3  A    between atoms: C_4  and  C_5 
REMARK    4  A    between atoms: C_5  and  C_6 
REMARK    5  A    between atoms: C_6  and  C_7 
REMARK    6  A    between atoms: C_7  and  C_8 
REMARK    7  A    between atoms: C_8  and  O_9 
REMARK    8  A    between atoms: C_10  and  O_9 
REMARK    9  A    between atoms: C_12  and  C_13 
REMARK   10  A    between atoms: C_13  and  O_14 
REMARK   11  A    between atoms: C_15  and  O_16 
REMARK   12  A    between atoms: C_17  and  O_18 
REMARK   13  A    between atoms: C_19  and  O_20 
ROOT
HETATM    1  C   UNK N   1      34.648  16.283  10.099  0.00  0.00     0.291 C 
HETATM    2  O   UNK N   1      35.396  16.484   8.904  0.00  0.00    -0.348 OA
HETATM    3  C   UNK N   1      34.601  17.000   7.840  0.00  0.00     0.179 C 
HETATM    4  C   UNK N   1      33.434  16.044   7.507  0.00  0.00     0.180 C 
HETATM    5  C   UNK N   1      32.590  15.748   8.749  0.00  0.00     0.183 C 
HETATM    6  C   UNK N   1      33.522  15.247   9.857  0.00  0.00     0.204 C 
ENDROOT
BRANCH   1   7
HETATM    7  O   UNK N   1      35.548  15.799  11.080  0.00  0.00    -0.359 OA
BRANCH   7   8
HETATM    8  C   UNK N   1      36.100  14.579  10.646  0.00  0.00     0.171 C 
BRANCH   8   9
HETATM    9  C   UNK N   1      36.629  13.780  11.827  0.00  0.00     0.026 C 
BRANCH   9  10
HETATM   10  C   UNK N   1      35.930  14.203  13.108  0.00  0.00     0.002 C 
BRANCH  10  11
HETATM   11  C   UNK N   1      36.229  13.250  14.249  0.00  0.00     0.000 C 
BRANCH  11  12
HETATM   12  C   UNK N   1      34.956  12.557  14.713  0.00  0.00     0.000 C 
BRANCH  12  13
HETATM   13  C   UNK N   1      35.016  12.309  16.208  0.00  0.00    -0.000 C 
BRANCH  13  14
HETATM   14  C   UNK N   1      35.623  13.513  16.903  0.00  0.00    -0.005 C 
HETATM   15  C   UNK N   1      35.115  13.582  18.326  0.00  0.00     0.005 C 
ENDBRANCH  13  14
ENDBRANCH  12  13
ENDBRANCH  11  12
ENDBRANCH  10  11
ENDBRANCH   9  10
ENDBRANCH   8   9
ENDBRANCH   7   8
ENDBRANCH   1   7
BRANCH   6  16
HETATM   16  O   UNK N   1      32.777  15.032  11.018  0.00  0.00    -0.388 OA
HETATM   17  H   UNK N   1      32.090  14.368  11.186  0.00  0.00     0.210 HD
ENDBRANCH   6  16
BRANCH   3  18
HETATM   18  C   UNK N   1      34.159  18.442   8.112  0.00  0.00     0.198 C 
BRANCH  18  19
HETATM   19  O   UNK N   1      35.260  19.223   8.468  0.00  0.00    -0.398 OA
HETATM   20  H   UNK N   1      36.138  18.817   8.545  0.00  0.00     0.209 HD
ENDBRANCH  18  19
ENDBRANCH   3  18
BRANCH   5  21
HETATM   21  O   UNK N   1      31.916  16.900   9.171  0.00  0.00    -0.390 OA
HETATM   22  H   UNK N   1      31.581  17.705   9.596  0.00  0.00     0.210 HD
ENDBRANCH   5  21
BRANCH   4  23
HETATM   23  O   UNK N   1      32.638  16.566   6.483  0.00  0.00    -0.390 OA
HETATM   24  H   UNK N   1      31.917  17.203   6.611  0.00  0.00     0.210 HD
ENDBRANCH   4  23
TORSDOF 13
ENDMDL
MODEL 7
REMARK VINA RESULT:      -5.3      3.117      7.917
REMARK  13 active torsions:
REMARK  status: ('A' for Active; 'I' for Inactive)
REMARK    1  A    between atoms: C_2  and  C_3 
REMARK    2  A    between atoms: C_3  and  C_4 
REMARK    3  A    between atoms: C_4  and  C_5 
REMARK    4  A    between atoms: C_5  and  C_6 
REMARK    5  A    between atoms: C_6  and  C_7 
REMARK    6  A    between atoms: C_7  and  C_8 
REMARK    7  A    between atoms: C_8  and  O_9 
REMARK    8  A    between atoms: C_10  and  O_9 
REMARK    9  A    between atoms: C_12  and  C_13 
REMARK   10  A    between atoms: C_13  and  O_14 
REMARK   11  A    between atoms: C_15  and  O_16 
REMARK   12  A    between atoms: C_17  and  O_18 
REMARK   13  A    between atoms: C_19  and  O_20 
ROOT
HETATM    1  C   UNK N   1      36.115  15.498  11.119  0.00  0.00     0.291 C 
HETATM    2  O   UNK N   1      34.824  14.951  11.375  0.00  0.00    -0.348 OA
HETATM    3  C   UNK N   1      34.886  13.675  12.006  0.00  0.00     0.179 C 
HETATM    4  C   UNK N   1      35.658  12.661  11.133  0.00  0.00     0.180 C 
HETATM    5  C   UNK N   1      37.054  13.184  10.783  0.00  0.00     0.183 C 
HETATM    6  C   UNK N   1      36.905  14.574  10.157  0.00  0.00     0.204 C 
ENDROOT
BRANCH   1   7
HETATM    7  O   UNK N   1      35.921  16.766  10.520  0.00  0.00    -0.359 OA
BRANCH   7   8
HETATM    8  C   UNK N   1      34.824  16.705   9.640  0.00  0.00     0.171 C 
BRANCH   8   9
HETATM    9  C   UNK N   1      34.812  17.912   8.714  0.00  0.00     0.026 C 
BRANCH   9  10
HETATM   10  C   UNK N   1      33.434  18.095   8.101  0.00  0.00     0.002 C 
BRANCH  10  11
HETATM   11  C   UNK N   1      33.394  17.620   6.662  0.00  0.00     0.000 C 
BRANCH  11  12
HETATM   12  C   UNK N   1      32.086  16.898   6.375  0.00  0.00     0.000 C 
BRANCH  12  13
HETATM   13  C   UNK N   1      31.584  17.265   4.991  0.00  0.00    -0.000 C 
BRANCH  13  14
HETATM   14  C   UNK N   1      32.759  17.607   4.094  0.00  0.00    -0.005 C 
HETATM   15  C   UNK N   1      32.944  16.511   3.067  0.00  0.00     0.005 C 
ENDBRANCH  13  14
ENDBRANCH  12  13
ENDBRANCH  11  12
ENDBRANCH  10  11
ENDBRANCH   9  10
ENDBRANCH   8   9
ENDBRANCH   7   8
ENDBRANCH   1   7
BRANCH   6  16
HETATM   16  O   UNK N   1      38.172  15.094   9.889  0.00  0.00    -0.388 OA
HETATM   17  H   UNK N   1      38.416  15.991   9.613  0.00  0.00     0.210 HD
ENDBRANCH   6  16
BRANCH   3  18
HETATM   18  C   UNK N   1      35.411  13.779  13.443  0.00  0.00     0.198 C 
BRANCH  18  19
HETATM   19  O   UNK N   1      34.650  12.972  14.291  0.00  0.00    -0.398 OA
HETATM   20  H   UNK N   1      35.047  12.608  15.099  0.00  0.00     0.209 HD
ENDBRANCH  18  19
ENDBRANCH   3  18
BRANCH   5  21
HETATM   21  O   UNK N   1      37.854  13.256  11.929  0.00  0.00    -0.390 OA
HETATM   22  H   UNK N   1      38.320  13.467  12.754  0.00  0.00     0.210 HD
ENDBRANCH   5  21
BRANCH   4  23
HETATM   23  O   UNK N   1      35.743  11.418  11.768  0.00  0.00    -0.390 OA
HETATM   24  H   UNK N   1      34.986  10.844  11.966  0.00  0.00     0.210 HD
ENDBRANCH   4  23
TORSDOF 13
ENDMDL
MODEL 8
REMARK VINA RESULT:      -5.0      7.291     11.127
REMARK  13 active torsions:
REMARK  status: ('A' for Active; 'I' for Inactive)
REMARK    1  A    between atoms: C_2  and  C_3 
REMARK    2  A    between atoms: C_3  and  C_4 
REMARK    3  A    between atoms: C_4  and  C_5 
REMARK    4  A    between atoms: C_5  and  C_6 
REMARK    5  A    between atoms: C_6  and  C_7 
REMARK    6  A    between atoms: C_7  and  C_8 
REMARK    7  A    between atoms: C_8  and  O_9 
REMARK    8  A    between atoms: C_10  and  O_9 
REMARK    9  A    between atoms: C_12  and  C_13 
REMARK   10  A    between atoms: C_13  and  O_14 
REMARK   11  A    between atoms: C_15  and  O_16 
REMARK   12  A    between atoms: C_17  and  O_18 
REMARK   13  A    between atoms: C_19  and  O_20 
ROOT
HETATM    1  C   UNK N   1      30.684  16.760   7.151  0.00  0.00     0.291 C 
HETATM    2  O   UNK N   1      31.244  17.212   5.922  0.00  0.00    -0.348 OA
HETATM    3  C   UNK N   1      32.665  17.113   5.899  0.00  0.00     0.179 C 
HETATM    4  C   UNK N   1      33.298  17.947   7.036  0.00  0.00     0.180 C 
HETATM    5  C   UNK N   1      32.727  17.546   8.398  0.00  0.00     0.183 C 
HETATM    6  C   UNK N   1      31.199  17.631   8.325  0.00  0.00     0.204 C 
ENDROOT
BRANCH   1   7
HETATM    7  O   UNK N   1      29.277  16.882   7.040  0.00  0.00    -0.359 OA
BRANCH   7   8
HETATM    8  C   UNK N   1      28.966  18.014   6.263  0.00  0.00     0.171 C 
BRANCH   8   9
HETATM    9  C   UNK N   1      27.966  18.902   6.987  0.00  0.00     0.026 C 
BRANCH   9  10
HETATM   10  C   UNK N   1      27.585  20.088   6.117  0.00  0.00     0.002 C 
BRANCH  10  11
HETATM   11  C   UNK N   1      27.977  19.869   4.668  0.00  0.00     0.000 C 
BRANCH  11  12
HETATM   12  C   UNK N   1      26.766  19.451   3.846  0.00  0.00     0.000 C 
BRANCH  12  13
HETATM   13  C   UNK N   1      26.223  20.643   3.081  0.00  0.00    -0.000 C 
BRANCH  13  14
HETATM   14  C   UNK N   1      24.743  20.449   2.814  0.00  0.00    -0.005 C 
HETATM   15  C   UNK N   1      24.200  19.382   3.738  0.00  0.00     0.005 C 
ENDBRANCH  13  14
ENDBRANCH  12  13
ENDBRANCH  11  12
ENDBRANCH  10  11
ENDBRANCH   9  10
ENDBRANCH   8   9
ENDBRANCH   7   8
ENDBRANCH   1   7
BRANCH   6  16
HETATM   16  O   UNK N   1      30.658  17.208   9.541  0.00  0.00    -0.388 OA
HETATM   17  H   UNK N   1      30.969  17.391  10.441  0.00  0.00     0.210 HD
ENDBRANCH   6  16
BRANCH   3  18
HETATM   18  C   UNK N   1      33.131  15.653   5.873  0.00  0.00     0.198 C 
BRANCH  18  19
HETATM   19  O   UNK N   1      34.407  15.566   5.312  0.00  0.00    -0.398 OA
HETATM   20  H   UNK N   1      35.119  16.141   5.635  0.00  0.00     0.209 HD
ENDBRANCH  18  19
ENDBRANCH   3  18
BRANCH   5  21
HETATM   21  O   UNK N   1      33.121  16.245   8.733  0.00  0.00    -0.390 OA
HETATM   22  H   UNK N   1      33.288  15.370   9.117  0.00  0.00     0.210 HD
ENDBRANCH   5  21
BRANCH   4  23
HETATM   23  O   UNK N   1      34.690  17.825   7.029  0.00  0.00    -0.390 OA
HETATM   24  H   UNK N   1      35.256  17.878   7.816  0.00  0.00     0.210 HD
ENDBRANCH   4  23
TORSDOF 13
ENDMDL
MODEL 9
REMARK VINA RESULT:      -5.0      3.069      7.669
REMARK  13 active torsions:
REMARK  status: ('A' for Active; 'I' for Inactive)
REMARK    1  A    between atoms: C_2  and  C_3 
REMARK    2  A    between atoms: C_3  and  C_4 
REMARK    3  A    between atoms: C_4  and  C_5 
REMARK    4  A    between atoms: C_5  and  C_6 
REMARK    5  A    between atoms: C_6  and  C_7 
REMARK    6  A    between atoms: C_7  and  C_8 
REMARK    7  A    between atoms: C_8  and  O_9 
REMARK    8  A    between atoms: C_10  and  O_9 
REMARK    9  A    between atoms: C_12  and  C_13 
REMARK   10  A    between atoms: C_13  and  O_14 
REMARK   11  A    between atoms: C_15  and  O_16 
REMARK   12  A    between atoms: C_17  and  O_18 
REMARK   13  A    between atoms: C_19  and  O_20 
ROOT
HETATM    1  C   UNK N   1      34.009  14.825  10.512  0.00  0.00     0.291 C 
HETATM    2  O   UNK N   1      34.381  13.500  10.141  0.00  0.00    -0.348 OA
HETATM    3  C   UNK N   1      35.548  13.049  10.823  0.00  0.00     0.179 C 
HETATM    4  C   UNK N   1      36.752  13.972  10.532  0.00  0.00     0.180 C 
HETATM    5  C   UNK N   1      36.427  15.428  10.876  0.00  0.00     0.183 C 
HETATM    6  C   UNK N   1      35.139  15.819  10.146  0.00  0.00     0.204 C 
ENDROOT
BRANCH   1   7
HETATM    7  O   UNK N   1      32.831  15.145   9.794  0.00  0.00    -0.359 OA
BRANCH   7   8
HETATM    8  C   UNK N   1      32.728  14.308   8.667  0.00  0.00     0.171 C 
BRANCH   8   9
HETATM    9  C   UNK N   1      32.767  15.127   7.386  0.00  0.00     0.026 C 
BRANCH   9  10
HETATM   10  C   UNK N   1      32.314  16.552   7.655  0.00  0.00     0.002 C 
BRANCH  10  11
HETATM   11  C   UNK N   1      33.274  17.566   7.063  0.00  0.00     0.000 C 
BRANCH  11  12
HETATM   12  C   UNK N   1      33.739  17.118   5.685  0.00  0.00     0.000 C 
BRANCH  12  13
HETATM   13  C   UNK N   1      32.847  17.720   4.616  0.00  0.00    -0.000 C 
BRANCH  13  14
HETATM   14  C   UNK N   1      32.258  16.617   3.758  0.00  0.00    -0.005 C 
HETATM   15  C   UNK N   1      33.356  15.980   2.935  0.00  0.00     0.005 C 
ENDBRANCH  13  14
ENDBRANCH  12  13
ENDBRANCH  11  12
ENDBRANCH  10  11
ENDBRANCH   9  10
ENDBRANCH   8   9
ENDBRANCH   7   8
ENDBRANCH   1   7
BRANCH   6  16
HETATM   16  O   UNK N   1      34.793  17.125  10.497  0.00  0.00    -0.388 OA
HETATM   17  H   UNK N   1      35.016  17.618  11.302  0.00  0.00     0.210 HD
ENDBRANCH   6  16
BRANCH   3  18
HETATM   18  C   UNK N   1      35.283  12.832  12.317  0.00  0.00     0.198 C 
BRANCH  18  19
HETATM   19  O   UNK N   1      34.337  11.822  12.496  0.00  0.00    -0.398 OA
HETATM   20  H   UNK N   1      33.734  11.588  11.773  0.00  0.00     0.209 HD
ENDBRANCH  18  19
ENDBRANCH   3  18
BRANCH   5  21
HETATM   21  O   UNK N   1      36.264  15.583  12.257  0.00  0.00    -0.390 OA
HETATM   22  H   UNK N   1      36.185  15.871  13.180  0.00  0.00     0.210 HD
ENDBRANCH   5  21
BRANCH   4  23
HETATM   23  O   UNK N   1      37.888  13.543  11.226  0.00  0.00    -0.390 OA
HETATM   24  H   UNK N   1      38.801  13.647  10.913  0.00  0.00     0.210 HD
ENDBRANCH   4  23
TORSDOF 13
ENDMDL
