MODEL 1
REMARK VINA RESULT:      -5.4      0.000      0.000
REMARK  13 active torsions:
REMARK  status: ('A' for Active; 'I' for Inactive)
REMARK    1  A    between atoms: C_2  and  C_3 
REMARK    2  A    between atoms: C_3  and  C_4 
REMARK    3  A    between atoms: C_4  and  C_5 
REMARK    4  A    between atoms: C_5  and  C_6 
REMARK    5  A    between atoms: C_6  and  C_7 
REMARK    6  A    between atoms: C_7  and  C_8 
REMARK    7  A    between atoms: C_8  and  O_9 
REMARK    8  A    between atoms: C_10  and  O_9 
REMARK    9  A    between atoms: C_12  and  C_13 
REMARK   10  A    between atoms: C_13  and  O_14 
REMARK   11  A    between atoms: C_15  and  O_16 
REMARK   12  A    between atoms: C_17  and  O_18 
REMARK   13  A    between atoms: C_19  and  O_20 
ROOT
HETATM    1  C   UNK N   1      35.079  13.815  11.656  0.00  0.00     0.291 C 
HETATM    2  O   UNK N   1      33.970  14.310  10.912  0.00  0.00    -0.348 OA
HETATM    3  C   UNK N   1      34.343  15.322   9.982  0.00  0.00     0.179 C 
HETATM    4  C   UNK N   1      34.996  16.524  10.701  0.00  0.00     0.180 C 
HETATM    5  C   UNK N   1      36.186  16.075  11.554  0.00  0.00     0.183 C 
HETATM    6  C   UNK N   1      35.716  14.957  12.488  0.00  0.00     0.204 C 
ENDROOT
BRANCH   1   7
HETATM    7  O   UNK N   1      34.587  12.805  12.519  0.00  0.00    -0.359 OA
BRANCH   7   8
HETATM    8  C   UNK N   1      34.959  11.542  12.020  0.00  0.00     0.171 C 
BRANCH   8   9
HETATM    9  C   UNK N   1      34.124  10.445  12.661  0.00  0.00     0.026 C 
BRANCH   9  10
HETATM   10  C   UNK N   1      33.768  10.817  14.091  0.00  0.00     0.002 C 
BRANCH  10  11
HETATM   11  C   UNK N   1      34.670  10.122  15.091  0.00  0.00     0.000 C 
BRANCH  11  12
HETATM   12  C   UNK N   1      34.948  11.030  16.280  0.00  0.00     0.000 C 
BRANCH  12  13
HETATM   13  C   UNK N   1      34.603  12.464  15.929  0.00  0.00    -0.000 C 
BRANCH  13  14
HETATM   14  C   UNK N   1      35.636  13.400  16.525  0.00  0.00    -0.005 C 
HETATM   15  C   UNK N   1      35.240  13.754  17.941  0.00  0.00     0.005 C 
ENDBRANCH  13  14
ENDBRANCH  12  13
ENDBRANCH  11  12
ENDBRANCH  10  11
ENDBRANCH   9  10
ENDBRANCH   8   9
ENDBRANCH   7   8
ENDBRANCH   1   7
BRANCH   6  16
HETATM   16  O   UNK N   1      36.804  14.492  13.230  0.00  0.00    -0.388 OA
HETATM   17  H   UNK N   1      37.098  13.579  13.371  0.00  0.00     0.210 HD
ENDBRANCH   6  16
BRANCH   3  18
HETATM   18  C   UNK N   1      35.189  14.755   8.837  0.00  0.00     0.198 C 
BRANCH  18  19
HETATM   19  O   UNK N   1      35.035  15.539   7.691  0.00  0.00    -0.398 OA
HETATM   20  H   UNK N   1      35.124  16.503   7.746  0.00  0.00     0.209 HD
ENDBRANCH  18  19
ENDBRANCH   3  18
BRANCH   5  21
HETATM   21  O   UNK N   1      37.229  15.617  10.741  0.00  0.00    -0.390 OA
HETATM   22  H   UNK N   1      37.833  15.333  10.037  0.00  0.00     0.210 HD
ENDBRANCH   5  21
BRANCH   4  23
HETATM   23  O   UNK N   1      35.388  17.503   9.783  0.00  0.00    -0.390 OA
HETATM   24  H   UNK N   1      35.005  17.620   8.901  0.00  0.00     0.210 HD
ENDBRANCH   4  23
TORSDOF 13
ENDMDL
MODEL 2
REMARK VINA RESULT:      -5.4      2.056      3.579
REMARK  13 active torsions:
REMARK  status: ('A' for Active; 'I' for Inactive)
REMARK    1  A    between atoms: C_2  and  C_3 
REMARK    2  A    between atoms: C_3  and  C_4 
REMARK    3  A    between atoms: C_4  and  C_5 
REMARK    4  A    between atoms: C_5  and  C_6 
REMARK    5  A    between atoms: C_6  and  C_7 
REMARK    6  A    between atoms: C_7  and  C_8 
REMARK    7  A    between atoms: C_8  and  O_9 
REMARK    8  A    between atoms: C_10  and  O_9 
REMARK    9  A    between atoms: C_12  and  C_13 
REMARK   10  A    between atoms: C_13  and  O_14 
REMARK   11  A    between atoms: C_15  and  O_16 
REMARK   12  A    between atoms: C_17  and  O_18 
REMARK   13  A    between atoms: C_19  and  O_20 
ROOT
HETATM    1  C   UNK N   1      34.662  16.336  10.238  0.00  0.00     0.291 C 
HETATM    2  O   UNK N   1      35.484  16.525   9.090  0.00  0.00    -0.348 OA
HETATM    3  C   UNK N   1      34.744  16.963   7.954  0.00  0.00     0.179 C 
HETATM    4  C   UNK N   1      33.645  15.943   7.580  0.00  0.00     0.180 C 
HETATM    5  C   UNK N   1      32.729  15.657   8.772  0.00  0.00     0.183 C 
HETATM    6  C   UNK N   1      33.601  15.241   9.961  0.00  0.00     0.204 C 
ENDROOT
BRANCH   1   7
HETATM    7  O   UNK N   1      35.510  15.931  11.297  0.00  0.00    -0.359 OA
BRANCH   7   8
HETATM    8  C   UNK N   1      36.417  14.963  10.826  0.00  0.00     0.171 C 
BRANCH   8   9
HETATM    9  C   UNK N   1      36.539  13.814  11.816  0.00  0.00     0.026 C 
BRANCH   9  10
HETATM   10  C   UNK N   1      35.845  14.164  13.121  0.00  0.00     0.002 C 
BRANCH  10  11
HETATM   11  C   UNK N   1      36.006  13.067  14.153  0.00  0.00     0.000 C 
BRANCH  11  12
HETATM   12  C   UNK N   1      36.260  13.662  15.531  0.00  0.00     0.000 C 
BRANCH  12  13
HETATM   13  C   UNK N   1      35.380  12.981  16.560  0.00  0.00    -0.000 C 
BRANCH  13  14
HETATM   14  C   UNK N   1      35.282  13.845  17.803  0.00  0.00    -0.005 C 
HETATM   15  C   UNK N   1      35.184  12.961  19.026  0.00  0.00     0.005 C 
ENDBRANCH  13  14
ENDBRANCH  12  13
ENDBRANCH  11  12
ENDBRANCH  10  11
ENDBRANCH   9  10
ENDBRANCH   8   9
ENDBRANCH   7   8
ENDBRANCH   1   7
BRANCH   6  16
HETATM   16  O   UNK N   1      32.787  15.037  11.077  0.00  0.00    -0.388 OA
HETATM   17  H   UNK N   1      32.169  15.654  11.499  0.00  0.00     0.210 HD
ENDBRANCH   6  16
BRANCH   3  18
HETATM   18  C   UNK N   1      34.223  18.393   8.135  0.00  0.00     0.198 C 
BRANCH  18  19
HETATM   19  O   UNK N   1      35.262  19.237   8.530  0.00  0.00    -0.398 OA
HETATM   20  H   UNK N   1      35.134  20.199   8.530  0.00  0.00     0.209 HD
ENDBRANCH  18  19
ENDBRANCH   3  18
BRANCH   5  21
HETATM   21  O   UNK N   1      31.978  16.791   9.099  0.00  0.00    -0.390 OA
HETATM   22  H   UNK N   1      31.478  17.621   9.145  0.00  0.00     0.210 HD
ENDBRANCH   5  21
BRANCH   4  23
HETATM   23  O   UNK N   1      32.902  16.389   6.483  0.00  0.00    -0.390 OA
HETATM   24  H   UNK N   1      32.109  16.943   6.539  0.00  0.00     0.210 HD
ENDBRANCH   4  23
TORSDOF 13
ENDMDL
MODEL 3
REMARK VINA RESULT:      -5.4     14.896     16.719
REMARK  13 active torsions:
REMARK  status: ('A' for Active; 'I' for Inactive)
REMARK    1  A    between atoms: C_2  and  C_3 
REMARK    2  A    between atoms: C_3  and  C_4 
REMARK    3  A    between atoms: C_4  and  C_5 
REMARK    4  A    between atoms: C_5  and  C_6 
REMARK    5  A    between atoms: C_6  and  C_7 
REMARK    6  A    between atoms: C_7  and  C_8 
REMARK    7  A    between atoms: C_8  and  O_9 
REMARK    8  A    between atoms: C_10  and  O_9 
REMARK    9  A    between atoms: C_12  and  C_13 
REMARK   10  A    between atoms: C_13  and  O_14 
REMARK   11  A    between atoms: C_15  and  O_16 
REMARK   12  A    between atoms: C_17  and  O_18 
REMARK   13  A    between atoms: C_19  and  O_20 
ROOT
HETATM    1  C   UNK N   1      20.617  18.325   4.491  0.00  0.00     0.291 C 
HETATM    2  O   UNK N   1      21.765  18.879   3.853  0.00  0.00    -0.348 OA
HETATM    3  C   UNK N   1      21.448  19.528   2.626  0.00  0.00     0.179 C 
HETATM    4  C   UNK N   1      20.790  18.545   1.631  0.00  0.00     0.180 C 
HETATM    5  C   UNK N   1      19.559  17.877   2.249  0.00  0.00     0.183 C 
HETATM    6  C   UNK N   1      19.970  17.248   3.584  0.00  0.00     0.204 C 
ENDROOT
BRANCH   1   7
HETATM    7  O   UNK N   1      21.055  17.738   5.703  0.00  0.00    -0.359 OA
BRANCH   7   8
HETATM    8  C   UNK N   1      22.461  17.667   5.708  0.00  0.00     0.171 C 
BRANCH   8   9
HETATM    9  C   UNK N   1      22.926  16.243   5.971  0.00  0.00     0.026 C 
BRANCH   9  10
HETATM   10  C   UNK N   1      21.748  15.364   6.358  0.00  0.00     0.002 C 
BRANCH  10  11
HETATM   11  C   UNK N   1      21.956  14.714   7.711  0.00  0.00     0.000 C 
BRANCH  11  12
HETATM   12  C   UNK N   1      20.975  15.276   8.730  0.00  0.00     0.000 C 
BRANCH  12  13
HETATM   13  C   UNK N   1      20.417  14.155   9.585  0.00  0.00    -0.000 C 
BRANCH  13  14
HETATM   14  C   UNK N   1      21.554  13.328  10.152  0.00  0.00    -0.005 C 
HETATM   15  C   UNK N   1      21.003  12.310  11.125  0.00  0.00     0.005 C 
ENDBRANCH  13  14
ENDBRANCH  12  13
ENDBRANCH  11  12
ENDBRANCH  10  11
ENDBRANCH   9  10
ENDBRANCH   8   9
ENDBRANCH   7   8
ENDBRANCH   1   7
BRANCH   6  16
HETATM   16  O   UNK N   1      18.845  16.689   4.192  0.00  0.00    -0.388 OA
HETATM   17  H   UNK N   1      18.510  16.824   5.092  0.00  0.00     0.210 HD
ENDBRANCH   6  16
BRANCH   3  18
HETATM   18  C   UNK N   1      20.638  20.809   2.854  0.00  0.00     0.198 C 
BRANCH  18  19
HETATM   19  O   UNK N   1      20.897  21.729   1.837  0.00  0.00    -0.398 OA
HETATM   20  H   UNK N   1      20.391  21.696   1.010  0.00  0.00     0.209 HD
ENDBRANCH  18  19
ENDBRANCH   3  18
BRANCH   5  21
HETATM   21  O   UNK N   1      18.541  18.815   2.453  0.00  0.00    -0.390 OA
HETATM   22  H   UNK N   1      17.945  19.580   2.496  0.00  0.00     0.210 HD
ENDBRANCH   5  21
BRANCH   4  23
HETATM   23  O   UNK N   1      20.454  19.191   0.438  0.00  0.00    -0.390 OA
HETATM   24  H   UNK N   1      20.888  19.040  -0.415  0.00  0.00     0.210 HD
ENDBRANCH   4  23
TORSDOF 13
ENDMDL
MODEL 4
REMARK VINA RESULT:      -5.2      3.490      7.152
REMARK  13 active torsions:
REMARK  status: ('A' for Active; 'I' for Inactive)
REMARK    1  A    between atoms: C_2  and  C_3 
REMARK    2  A    between atoms: C_3  and  C_4 
REMARK    3  A    between atoms: C_4  and  C_5 
REMARK    4  A    between atoms: C_5  and  C_6 
REMARK    5  A    between atoms: C_6  and  C_7 
REMARK    6  A    between atoms: C_7  and  C_8 
REMARK    7  A    between atoms: C_8  and  O_9 
REMARK    8  A    between atoms: C_10  and  O_9 
REMARK    9  A    between atoms: C_12  and  C_13 
REMARK   10  A    between atoms: C_13  and  O_14 
REMARK   11  A    between atoms: C_15  and  O_16 
REMARK   12  A    between atoms: C_17  and  O_18 
REMARK   13  A    between atoms: C_19  and  O_20 
ROOT
HETATM    1  C   UNK N   1      34.682  15.336   8.712  0.00  0.00     0.291 C 
HETATM    2  O   UNK N   1      35.084  14.012   8.373  0.00  0.00    -0.348 OA
HETATM    3  C   UNK N   1      34.535  13.032   9.248  0.00  0.00     0.179 C 
HETATM    4  C   UNK N   1      34.963  13.290  10.710  0.00  0.00     0.180 C 
HETATM    5  C   UNK N   1      34.593  14.708  11.150  0.00  0.00     0.183 C 
HETATM    6  C   UNK N   1      35.177  15.696  10.136  0.00  0.00     0.204 C 
ENDROOT
BRANCH   1   7
HETATM    7  O   UNK N   1      35.266  16.208   7.762  0.00  0.00    -0.359 OA
BRANCH   7   8
HETATM    8  C   UNK N   1      34.268  16.690   6.894  0.00  0.00     0.171 C 
BRANCH   8   9
HETATM    9  C   UNK N   1      33.818  18.081   7.312  0.00  0.00     0.026 C 
BRANCH   9  10
HETATM   10  C   UNK N   1      32.538  18.002   8.126  0.00  0.00     0.002 C 
BRANCH  10  11
HETATM   11  C   UNK N   1      31.540  17.044   7.508  0.00  0.00     0.000 C 
BRANCH  11  12
HETATM   12  C   UNK N   1      30.122  17.576   7.662  0.00  0.00     0.000 C 
BRANCH  12  13
HETATM   13  C   UNK N   1      30.078  18.622   8.759  0.00  0.00    -0.000 C 
BRANCH  13  14
HETATM   14  C   UNK N   1      29.150  18.163   9.868  0.00  0.00    -0.005 C 
HETATM   15  C   UNK N   1      28.011  17.364   9.275  0.00  0.00     0.005 C 
ENDBRANCH  13  14
ENDBRANCH  12  13
ENDBRANCH  11  12
ENDBRANCH  10  11
ENDBRANCH   9  10
ENDBRANCH   8   9
ENDBRANCH   7   8
ENDBRANCH   1   7
BRANCH   6  16
HETATM   16  O   UNK N   1      34.797  16.992  10.488  0.00  0.00    -0.388 OA
HETATM   17  H   UNK N   1      34.928  17.457  11.328  0.00  0.00     0.210 HD
ENDBRANCH   6  16
BRANCH   3  18
HETATM   18  C   UNK N   1      33.019  12.895   9.064  0.00  0.00     0.198 C 
BRANCH  18  19
HETATM   19  O   UNK N   1      32.595  11.635   9.490  0.00  0.00    -0.398 OA
HETATM   20  H   UNK N   1      32.586  10.889   8.871  0.00  0.00     0.209 HD
ENDBRANCH  18  19
ENDBRANCH   3  18
BRANCH   5  21
HETATM   21  O   UNK N   1      33.203  14.856  11.220  0.00  0.00    -0.390 OA
HETATM   22  H   UNK N   1      32.250  14.973  11.083  0.00  0.00     0.210 HD
ENDBRANCH   5  21
BRANCH   4  23
HETATM   23  O   UNK N   1      34.398  12.343  11.570  0.00  0.00    -0.390 OA
HETATM   24  H   UNK N   1      34.673  11.416  11.631  0.00  0.00     0.210 HD
ENDBRANCH   4  23
TORSDOF 13
ENDMDL
MODEL 5
REMARK VINA RESULT:      -5.1      1.696      3.160
REMARK  13 active torsions:
REMARK  status: ('A' for Active; 'I' for Inactive)
REMARK    1  A    between atoms: C_2  and  C_3 
REMARK    2  A    between atoms: C_3  and  C_4 
REMARK    3  A    between atoms: C_4  and  C_5 
REMARK    4  A    between atoms: C_5  and  C_6 
REMARK    5  A    between atoms: C_6  and  C_7 
REMARK    6  A    between atoms: C_7  and  C_8 
REMARK    7  A    between atoms: C_8  and  O_9 
REMARK    8  A    between atoms: C_10  and  O_9 
REMARK    9  A    between atoms: C_12  and  C_13 
REMARK   10  A    between atoms: C_13  and  O_14 
REMARK   11  A    between atoms: C_15  and  O_16 
REMARK   12  A    between atoms: C_17  and  O_18 
REMARK   13  A    between atoms: C_19  and  O_20 
ROOT
HETATM    1  C   UNK N   1      35.351  11.642  11.836  0.00  0.00     0.291 C 
HETATM    2  O   UNK N   1      36.699  11.998  12.129  0.00  0.00    -0.348 OA
HETATM    3  C   UNK N   1      36.865  13.399  12.321  0.00  0.00     0.179 C 
HETATM    4  C   UNK N   1      36.437  14.187  11.063  0.00  0.00     0.180 C 
HETATM    5  C   UNK N   1      35.002  13.841  10.658  0.00  0.00     0.183 C 
HETATM    6  C   UNK N   1      34.894  12.319  10.519  0.00  0.00     0.204 C 
ENDROOT
BRANCH   1   7
HETATM    7  O   UNK N   1      35.311  10.234  11.695  0.00  0.00    -0.359 OA
BRANCH   7   8
HETATM    8  C   UNK N   1      34.742   9.664  12.849  0.00  0.00     0.171 C 
BRANCH   8   9
HETATM    9  C   UNK N   1      33.887  10.684  13.586  0.00  0.00     0.026 C 
BRANCH   9  10
HETATM   10  C   UNK N   1      33.989  10.475  15.088  0.00  0.00     0.002 C 
BRANCH  10  11
HETATM   11  C   UNK N   1      35.372  10.009  15.495  0.00  0.00     0.000 C 
BRANCH  11  12
HETATM   12  C   UNK N   1      36.148  11.145  16.148  0.00  0.00     0.000 C 
BRANCH  12  13
HETATM   13  C   UNK N   1      35.186  12.138  16.770  0.00  0.00    -0.000 C 
BRANCH  13  14
HETATM   14  C   UNK N   1      35.276  12.060  18.282  0.00  0.00    -0.005 C 
HETATM   15  C   UNK N   1      35.227  13.455  18.864  0.00  0.00     0.005 C 
ENDBRANCH  13  14
ENDBRANCH  12  13
ENDBRANCH  11  12
ENDBRANCH  10  11
ENDBRANCH   9  10
ENDBRANCH   8   9
ENDBRANCH   7   8
ENDBRANCH   1   7
BRANCH   6  16
HETATM   16  O   UNK N   1      33.575  11.981  10.211  0.00  0.00    -0.388 OA
HETATM   17  H   UNK N   1      33.179  11.100  10.121  0.00  0.00     0.210 HD
ENDBRANCH   6  16
BRANCH   3  18
HETATM   18  C   UNK N   1      36.188  13.879  13.610  0.00  0.00     0.198 C 
BRANCH  18  19
HETATM   19  O   UNK N   1      36.875  14.975  14.135  0.00  0.00    -0.398 OA
HETATM   20  H   UNK N   1      36.709  15.865  13.787  0.00  0.00     0.209 HD
ENDBRANCH  18  19
ENDBRANCH   3  18
BRANCH   5  21
HETATM   21  O   UNK N   1      34.095  14.303  11.617  0.00  0.00    -0.390 OA
HETATM   22  H   UNK N   1      33.393  14.721  12.141  0.00  0.00     0.210 HD
ENDBRANCH   5  21
BRANCH   4  23
HETATM   23  O   UNK N   1      36.574  15.564  11.265  0.00  0.00    -0.390 OA
HETATM   24  H   UNK N   1      37.100  16.157  10.707  0.00  0.00     0.210 HD
ENDBRANCH   4  23
TORSDOF 13
ENDMDL
MODEL 6
REMARK VINA RESULT:      -5.1      3.229      7.097
REMARK  13 active torsions:
REMARK  status: ('A' for Active; 'I' for Inactive)
REMARK    1  A    between atoms: C_2  and  C_3 
REMARK    2  A    between atoms: C_3  and  C_4 
REMARK    3  A    between atoms: C_4  and  C_5 
REMARK    4  A    between atoms: C_5  and  C_6 
REMARK    5  A    between atoms: C_6  and  C_7 
REMARK    6  A    between atoms: C_7  and  C_8 
REMARK    7  A    between atoms: C_8  and  O_9 
REMARK    8  A    between atoms: C_10  and  O_9 
REMARK    9  A    between atoms: C_12  and  C_13 
REMARK   10  A    between atoms: C_13  and  O_14 
REMARK   11  A    between atoms: C_15  and  O_16 
REMARK   12  A    between atoms: C_17  and  O_18 
REMARK   13  A    between atoms: C_19  and  O_20 
ROOT
HETATM    1  C   UNK N   1      34.707  14.339   9.513  0.00  0.00     0.291 C 
HETATM    2  O   UNK N   1      36.121  14.326   9.346  0.00  0.00    -0.348 OA
HETATM    3  C   UNK N   1      36.791  13.661  10.412  0.00  0.00     0.179 C 
HETATM    4  C   UNK N   1      36.488  14.338  11.768  0.00  0.00     0.180 C 
HETATM    5  C   UNK N   1      34.980  14.422  12.016  0.00  0.00     0.183 C 
HETATM    6  C   UNK N   1      34.329  15.102  10.808  0.00  0.00     0.204 C 
ENDROOT
BRANCH   1   7
HETATM    7  O   UNK N   1      34.158  14.998   8.386  0.00  0.00    -0.359 OA
BRANCH   7   8
HETATM    8  C   UNK N   1      34.840  16.211   8.176  0.00  0.00     0.171 C 
BRANCH   8   9
HETATM    9  C   UNK N   1      34.059  17.108   7.227  0.00  0.00     0.026 C 
BRANCH   9  10
HETATM   10  C   UNK N   1      33.355  18.211   7.999  0.00  0.00     0.002 C 
BRANCH  10  11
HETATM   11  C   UNK N   1      31.953  17.803   8.404  0.00  0.00     0.000 C 
BRANCH  11  12
HETATM   12  C   UNK N   1      31.229  17.146   7.237  0.00  0.00     0.000 C 
BRANCH  12  13
HETATM   13  C   UNK N   1      29.735  17.373   7.360  0.00  0.00    -0.000 C 
BRANCH  13  14
HETATM   14  C   UNK N   1      29.459  18.384   8.455  0.00  0.00    -0.005 C 
HETATM   15  C   UNK N   1      28.228  17.968   9.229  0.00  0.00     0.005 C 
ENDBRANCH  13  14
ENDBRANCH  12  13
ENDBRANCH  11  12
ENDBRANCH  10  11
ENDBRANCH   9  10
ENDBRANCH   8   9
ENDBRANCH   7   8
ENDBRANCH   1   7
BRANCH   6  16
HETATM   16  O   UNK N   1      32.945  15.131  10.989  0.00  0.00    -0.388 OA
HETATM   17  H   UNK N   1      32.288  15.703  10.563  0.00  0.00     0.210 HD
ENDBRANCH   6  16
BRANCH   3  18
HETATM   18  C   UNK N   1      36.518  12.153  10.401  0.00  0.00     0.198 C 
BRANCH  18  19
HETATM   19  O   UNK N   1      37.569  11.469  11.013  0.00  0.00    -0.398 OA
HETATM   20  H   UNK N   1      37.392  10.671  11.537  0.00  0.00     0.209 HD
ENDBRANCH  18  19
ENDBRANCH   3  18
BRANCH   5  21
HETATM   21  O   UNK N   1      34.439  13.144  12.197  0.00  0.00    -0.390 OA
HETATM   22  H   UNK N   1      34.198  12.204  12.204  0.00  0.00     0.210 HD
ENDBRANCH   5  21
BRANCH   4  23
HETATM   23  O   UNK N   1      37.123  13.666  12.816  0.00  0.00    -0.390 OA
HETATM   24  H   UNK N   1      38.057  13.405  12.822  0.00  0.00     0.210 HD
ENDBRANCH   4  23
TORSDOF 13
ENDMDL
MODEL 7
REMARK VINA RESULT:      -5.1      4.459      8.004
REMARK  13 active torsions:
REMARK  status: ('A' for Active; 'I' for Inactive)
REMARK    1  A    between atoms: C_2  and  C_3 
REMARK    2  A    between atoms: C_3  and  C_4 
REMARK    3  A    between atoms: C_4  and  C_5 
REMARK    4  A    between atoms: C_5  and  C_6 
REMARK    5  A    between atoms: C_6  and  C_7 
REMARK    6  A    between atoms: C_7  and  C_8 
REMARK    7  A    between atoms: C_8  and  O_9 
REMARK    8  A    between atoms: C_10  and  O_9 
REMARK    9  A    between atoms: C_12  and  C_13 
REMARK   10  A    between atoms: C_13  and  O_14 
REMARK   11  A    between atoms: C_15  and  O_16 
REMARK   12  A    between atoms: C_17  and  O_18 
REMARK   13  A    between atoms: C_19  and  O_20 
ROOT
HETATM    1  C   UNK N   1      34.689  15.724   7.421  0.00  0.00     0.291 C 
HETATM    2  O   UNK N   1      34.768  16.724   8.433  0.00  0.00    -0.348 OA
HETATM    3  C   UNK N   1      34.748  16.174   9.747  0.00  0.00     0.179 C 
HETATM    4  C   UNK N   1      33.455  15.365   9.991  0.00  0.00     0.180 C 
HETATM    5  C   UNK N   1      33.273  14.282   8.925  0.00  0.00     0.183 C 
HETATM    6  C   UNK N   1      33.356  14.943   7.546  0.00  0.00     0.204 C 
ENDROOT
BRANCH   1   7
HETATM    7  O   UNK N   1      34.745  16.389   6.172  0.00  0.00    -0.359 OA
BRANCH   7   8
HETATM    8  C   UNK N   1      33.769  17.403   6.137  0.00  0.00     0.171 C 
BRANCH   8   9
HETATM    9  C   UNK N   1      33.091  17.449   4.776  0.00  0.00     0.026 C 
BRANCH   9  10
HETATM   10  C   UNK N   1      31.765  16.709   4.820  0.00  0.00     0.002 C 
BRANCH  10  11
HETATM   11  C   UNK N   1      30.595  17.643   4.583  0.00  0.00     0.000 C 
BRANCH  11  12
HETATM   12  C   UNK N   1      29.537  17.457   5.662  0.00  0.00     0.000 C 
BRANCH  12  13
HETATM   13  C   UNK N   1      30.122  16.700   6.838  0.00  0.00    -0.000 C 
BRANCH  13  14
HETATM   14  C   UNK N   1      29.894  17.483   8.117  0.00  0.00    -0.005 C 
HETATM   15  C   UNK N   1      31.218  17.995   8.639  0.00  0.00     0.005 C 
ENDBRANCH  13  14
ENDBRANCH  12  13
ENDBRANCH  11  12
ENDBRANCH  10  11
ENDBRANCH   9  10
ENDBRANCH   8   9
ENDBRANCH   7   8
ENDBRANCH   1   7
BRANCH   6  16
HETATM   16  O   UNK N   1      33.256  13.960   6.560  0.00  0.00    -0.388 OA
HETATM   17  H   UNK N   1      33.585  13.978   5.648  0.00  0.00     0.210 HD
ENDBRANCH   6  16
BRANCH   3  18
HETATM   18  C   UNK N   1      36.031  15.395  10.055  0.00  0.00     0.198 C 
BRANCH  18  19
HETATM   19  O   UNK N   1      36.862  16.146  10.888  0.00  0.00    -0.398 OA
HETATM   20  H   UNK N   1      36.690  16.183  11.842  0.00  0.00     0.209 HD
ENDBRANCH  18  19
ENDBRANCH   3  18
BRANCH   5  21
HETATM   21  O   UNK N   1      34.263  13.300   9.048  0.00  0.00    -0.390 OA
HETATM   22  H   UNK N   1      35.017  12.730   9.266  0.00  0.00     0.210 HD
ENDBRANCH   5  21
BRANCH   4  23
HETATM   23  O   UNK N   1      33.451  14.802  11.271  0.00  0.00    -0.390 OA
HETATM   24  H   UNK N   1      32.670  14.438  11.714  0.00  0.00     0.210 HD
ENDBRANCH   4  23
TORSDOF 13
ENDMDL
MODEL 8
REMARK VINA RESULT:      -5.0      1.438      2.882
REMARK  13 active torsions:
REMARK  status: ('A' for Active; 'I' for Inactive)
REMARK    1  A    between atoms: C_2  and  C_3 
REMARK    2  A    between atoms: C_3  and  C_4 
REMARK    3  A    between atoms: C_4  and  C_5 
REMARK    4  A    between atoms: C_5  and  C_6 
REMARK    5  A    between atoms: C_6  and  C_7 
REMARK    6  A    between atoms: C_7  and  C_8 
REMARK    7  A    between atoms: C_8  and  O_9 
REMARK    8  A    between atoms: C_10  and  O_9 
REMARK    9  A    between atoms: C_12  and  C_13 
REMARK   10  A    between atoms: C_13  and  O_14 
REMARK   11  A    between atoms: C_15  and  O_16 
REMARK   12  A    between atoms: C_17  and  O_18 
REMARK   13  A    between atoms: C_19  and  O_20 
ROOT
HETATM    1  C   UNK N   1      34.914  12.937  10.247  0.00  0.00     0.291 C 
HETATM    2  O   UNK N   1      36.159  13.625  10.325  0.00  0.00    -0.348 OA
HETATM    3  C   UNK N   1      36.031  14.922  10.898  0.00  0.00     0.179 C 
HETATM    4  C   UNK N   1      35.064  15.801  10.074  0.00  0.00     0.180 C 
HETATM    5  C   UNK N   1      33.703  15.121   9.914  0.00  0.00     0.183 C 
HETATM    6  C   UNK N   1      33.929  13.719   9.340  0.00  0.00     0.204 C 
ENDROOT
BRANCH   1   7
HETATM    7  O   UNK N   1      35.174  11.661   9.690  0.00  0.00    -0.359 OA
BRANCH   7   8
HETATM    8  C   UNK N   1      34.698  10.664  10.562  0.00  0.00     0.171 C 
BRANCH   8   9
HETATM    9  C   UNK N   1      34.696  11.164  11.999  0.00  0.00     0.026 C 
BRANCH   9  10
HETATM   10  C   UNK N   1      34.048  10.140  12.915  0.00  0.00     0.002 C 
BRANCH  10  11
HETATM   11  C   UNK N   1      33.793  10.707  14.297  0.00  0.00     0.000 C 
BRANCH  11  12
HETATM   12  C   UNK N   1      35.108  11.015  14.999  0.00  0.00     0.000 C 
BRANCH  12  13
HETATM   13  C   UNK N   1      34.943  10.866  16.499  0.00  0.00    -0.000 C 
BRANCH  13  14
HETATM   14  C   UNK N   1      35.143  12.209  17.173  0.00  0.00    -0.005 C 
HETATM   15  C   UNK N   1      35.798  13.168  16.204  0.00  0.00     0.005 C 
ENDBRANCH  13  14
ENDBRANCH  12  13
ENDBRANCH  11  12
ENDBRANCH  10  11
ENDBRANCH   9  10
ENDBRANCH   8   9
ENDBRANCH   7   8
ENDBRANCH   1   7
BRANCH   6  16
HETATM   16  O   UNK N   1      32.702  13.059   9.246  0.00  0.00    -0.388 OA
HETATM   17  H   UNK N   1      32.448  12.328   8.661  0.00  0.00     0.210 HD
ENDBRANCH   6  16
BRANCH   3  18
HETATM   18  C   UNK N   1      35.682  14.851  12.389  0.00  0.00     0.198 C 
BRANCH  18  19
HETATM   19  O   UNK N   1      36.828  14.578  13.139  0.00  0.00    -0.398 OA
HETATM   20  H   UNK N   1      37.705  14.781  12.778  0.00  0.00     0.209 HD
ENDBRANCH  18  19
ENDBRANCH   3  18
BRANCH   5  21
HETATM   21  O   UNK N   1      33.046  15.037  11.146  0.00  0.00    -0.390 OA
HETATM   22  H   UNK N   1      32.761  14.942  12.069  0.00  0.00     0.210 HD
ENDBRANCH   5  21
BRANCH   4  23
HETATM   23  O   UNK N   1      34.919  17.064  10.656  0.00  0.00    -0.390 OA
HETATM   24  H   UNK N   1      35.618  17.541  11.127  0.00  0.00     0.210 HD
ENDBRANCH   4  23
TORSDOF 13
ENDMDL
MODEL 9
REMARK VINA RESULT:      -4.9      7.315     10.085
REMARK  13 active torsions:
REMARK  status: ('A' for Active; 'I' for Inactive)
REMARK    1  A    between atoms: C_2  and  C_3 
REMARK    2  A    between atoms: C_3  and  C_4 
REMARK    3  A    between atoms: C_4  and  C_5 
REMARK    4  A    between atoms: C_5  and  C_6 
REMARK    5  A    between atoms: C_6  and  C_7 
REMARK    6  A    between atoms: C_7  and  C_8 
REMARK    7  A    between atoms: C_8  and  O_9 
REMARK    8  A    between atoms: C_10  and  O_9 
REMARK    9  A    between atoms: C_12  and  C_13 
REMARK   10  A    between atoms: C_13  and  O_14 
REMARK   11  A    between atoms: C_15  and  O_16 
REMARK   12  A    between atoms: C_17  and  O_18 
REMARK   13  A    between atoms: C_19  and  O_20 
ROOT
HETATM    1  C   UNK N   1      28.994  16.928   5.480  0.00  0.00     0.291 C 
HETATM    2  O   UNK N   1      29.667  17.662   6.498  0.00  0.00    -0.348 OA
HETATM    3  C   UNK N   1      28.767  18.344   7.366  0.00  0.00     0.179 C 
HETATM    4  C   UNK N   1      27.884  19.339   6.580  0.00  0.00     0.180 C 
HETATM    5  C   UNK N   1      27.143  18.636   5.440  0.00  0.00     0.183 C 
HETATM    6  C   UNK N   1      28.171  17.889   4.585  0.00  0.00     0.204 C 
ENDROOT
BRANCH   1   7
HETATM    7  O   UNK N   1      29.987  16.278   4.706  0.00  0.00    -0.359 OA
BRANCH   7   8
HETATM    8  C   UNK N   1      30.880  15.605   5.561  0.00  0.00     0.171 C 
BRANCH   8   9
HETATM    9  C   UNK N   1      32.201  15.339   4.855  0.00  0.00     0.026 C 
BRANCH   9  10
HETATM   10  C   UNK N   1      32.720  16.611   4.206  0.00  0.00     0.002 C 
BRANCH  10  11
HETATM   11  C   UNK N   1      33.077  17.661   5.238  0.00  0.00     0.000 C 
BRANCH  11  12
HETATM   12  C   UNK N   1      34.012  17.080   6.289  0.00  0.00     0.000 C 
BRANCH  12  13
HETATM   13  C   UNK N   1      34.017  17.964   7.522  0.00  0.00    -0.000 C 
BRANCH  13  14
HETATM   14  C   UNK N   1      32.725  17.775   8.293  0.00  0.00    -0.005 C 
HETATM   15  C   UNK N   1      32.576  16.322   8.682  0.00  0.00     0.005 C 
ENDBRANCH  13  14
ENDBRANCH  12  13
ENDBRANCH  11  12
ENDBRANCH  10  11
ENDBRANCH   9  10
ENDBRANCH   8   9
ENDBRANCH   7   8
ENDBRANCH   1   7
BRANCH   6  16
HETATM   16  O   UNK N   1      27.505  17.189   3.576  0.00  0.00    -0.388 OA
HETATM   17  H   UNK N   1      27.813  16.972   2.682  0.00  0.00     0.210 HD
ENDBRANCH   6  16
BRANCH   3  18
HETATM   18  C   UNK N   1      27.970  17.367   8.237  0.00  0.00     0.198 C 
BRANCH  18  19
HETATM   19  O   UNK N   1      27.479  18.022   9.368  0.00  0.00    -0.398 OA
HETATM   20  H   UNK N   1      26.677  18.564   9.307  0.00  0.00     0.209 HD
ENDBRANCH  18  19
ENDBRANCH   3  18
BRANCH   5  21
HETATM   21  O   UNK N   1      26.196  17.739   5.948  0.00  0.00    -0.390 OA
HETATM   22  H   UNK N   1      25.423  17.263   6.290  0.00  0.00     0.210 HD
ENDBRANCH   5  21
BRANCH   4  23
HETATM   23  O   UNK N   1      26.982  19.985   7.430  0.00  0.00    -0.390 OA
HETATM   24  H   UNK N   1      26.314  19.539   7.973  0.00  0.00     0.210 HD
ENDBRANCH   4  23
TORSDOF 13
ENDMDL
