MODEL 1
REMARK VINA RESULT:      -6.3      0.000      0.000
REMARK  11 active torsions:
REMARK  status: ('A' for Active; 'I' for Inactive)
REMARK    1  A    between atoms: C_1  and  C_2 
REMARK       I    between atoms: C_1  and  N_20 
REMARK    2  A    between atoms: C_2  and  C_3 
REMARK    3  A    between atoms: C_3  and  C_4 
REMARK    4  A    between atoms: C_3  and  C_5 
REMARK       I    between atoms: C_4  and  N_21 
REMARK    5  A    between atoms: C_5  and  C_6 
REMARK    6  A    between atoms: C_9  and  C_10 
REMARK    7  A    between atoms: C_9  and  C_11 
REMARK    8  A    between atoms: C_9  and  N_21 
REMARK       I    between atoms: C_10  and  N_22 
REMARK    9  A    between atoms: C_11  and  C_12 
REMARK   10  A    between atoms: C_17  and  O_27 
REMARK   11  A    between atoms: N_20  and  O_23 
ROOT
HETATM    1  C   UNK N   1      20.433  14.766   9.089  0.00  0.00     0.223 C 
HETATM    2  N   UNK N   1      21.581  14.049   9.052  0.00  0.00    -0.347 N 
HETATM    3  O   UNK N   1      19.415  14.304   9.585  0.00  0.00    -0.273 OA
HETATM    4  H   UNK N   1      22.404  14.543   8.830  0.00  0.00     0.163 HD
ENDROOT
BRANCH   2   5
HETATM    5  C   UNK N   1      21.726  12.634   9.305  0.00  0.00     0.180 C 
BRANCH   5   6
HETATM    6  C   UNK N   1      22.384  12.406  10.661  0.00  0.00     0.240 C 
HETATM    7  N   UNK N   1      21.653  12.094  11.762  0.00  0.00    -0.364 N 
HETATM    8  C   UNK N   1      20.223  11.922  11.739  0.00  0.00     0.149 C 
HETATM    9  H   UNK N   1      22.124  11.979  12.620  0.00  0.00     0.161 HD
HETATM   10  O   UNK N   1      23.598  12.479  10.771  0.00  0.00    -0.271 OA
ENDBRANCH   5   6
BRANCH   5  11
HETATM   11  C   UNK N   1      22.564  12.161   8.109  0.00  0.00     0.073 C 
BRANCH  11  12
HETATM   12  C   UNK N   1      22.015  12.358   6.741  0.00  0.00    -0.056 A 
HETATM   13  C   UNK N   1      20.694  12.028   6.430  0.00  0.00     0.010 A 
HETATM   14  C   UNK N   1      20.203  12.272   5.144  0.00  0.00     0.037 A 
HETATM   15  C   UNK N   1      21.032  12.857   4.167  0.00  0.00     0.068 A 
HETATM   16  C   UNK N   1      22.349  13.188   4.492  0.00  0.00     0.037 A 
HETATM   17  C   UNK N   1      22.837  12.943   5.775  0.00  0.00     0.010 A 
BRANCH  15  18
HETATM   18  O   UNK N   1      20.587  13.110   2.914  0.00  0.00    -0.356 OA
HETATM   19  C   UNK N   1      19.339  13.623   2.647  0.00  0.00     0.210 C 
ENDBRANCH  15  18
ENDBRANCH  11  12
ENDBRANCH   5  11
ENDBRANCH   2   5
BRANCH   1  20
HETATM   20  C   UNK N   1      20.422  16.088   8.369  0.00  0.00     0.087 C 
BRANCH  20  21
HETATM   21  C   UNK N   1      19.167  16.933   8.599  0.00  0.00     0.119 C 
BRANCH  21  22
HETATM   22  C   UNK N   1      19.485  18.304   9.113  0.00  0.00     0.241 C 
HETATM   23  N   UNK N   1      18.871  18.781  10.217  0.00  0.00    -0.237 N 
HETATM   24  H   UNK N   1      18.217  18.218  10.691  0.00  0.00     0.197 HD
HETATM   25  O   UNK N   1      20.300  18.994   8.516  0.00  0.00    -0.271 OA
BRANCH  23  26
HETATM   26  O   UNK N   1      19.141  20.010  10.677  0.00  0.00    -0.287 OA
HETATM   27  H   UNK N   1      19.837  20.230  11.317  0.00  0.00     0.244 HD
ENDBRANCH  23  26
ENDBRANCH  21  22
ENDBRANCH  20  21
BRANCH  20  28
HETATM   28  C   UNK N   1      20.477  15.717   6.884  0.00  0.00     0.018 C 
BRANCH  28  29
HETATM   29  C   UNK N   1      21.146  16.754   6.004  0.00  0.00    -0.022 C 
HETATM   30  C   UNK N   1      22.647  16.561   6.087  0.00  0.00     0.009 C 
HETATM   31  C   UNK N   1      20.700  16.563   4.570  0.00  0.00     0.009 C 
ENDBRANCH  28  29
ENDBRANCH  20  28
ENDBRANCH   1  20
TORSDOF 11
ENDMDL
MODEL 2
REMARK VINA RESULT:      -6.2     16.150     19.035
REMARK  11 active torsions:
REMARK  status: ('A' for Active; 'I' for Inactive)
REMARK    1  A    between atoms: C_1  and  C_2 
REMARK       I    between atoms: C_1  and  N_20 
REMARK    2  A    between atoms: C_2  and  C_3 
REMARK    3  A    between atoms: C_3  and  C_4 
REMARK    4  A    between atoms: C_3  and  C_5 
REMARK       I    between atoms: C_4  and  N_21 
REMARK    5  A    between atoms: C_5  and  C_6 
REMARK    6  A    between atoms: C_9  and  C_10 
REMARK    7  A    between atoms: C_9  and  C_11 
REMARK    8  A    between atoms: C_9  and  N_21 
REMARK       I    between atoms: C_10  and  N_22 
REMARK    9  A    between atoms: C_11  and  C_12 
REMARK   10  A    between atoms: C_17  and  O_27 
REMARK   11  A    between atoms: N_20  and  O_23 
ROOT
HETATM    1  C   UNK N   1      27.213  24.033  -4.923  0.00  0.00     0.223 C 
HETATM    2  N   UNK N   1      27.236  24.270  -6.256  0.00  0.00    -0.347 N 
HETATM    3  O   UNK N   1      26.158  23.842  -4.333  0.00  0.00    -0.273 OA
HETATM    4  H   UNK N   1      28.113  24.213  -6.700  0.00  0.00     0.163 HD
ENDROOT
BRANCH   2   5
HETATM    5  C   UNK N   1      26.108  24.599  -7.096  0.00  0.00     0.180 C 
BRANCH   5   6
HETATM    6  C   UNK N   1      26.041  23.647  -8.285  0.00  0.00     0.240 C 
HETATM    7  N   UNK N   1      25.482  22.414  -8.177  0.00  0.00    -0.364 N 
HETATM    8  C   UNK N   1      24.886  21.919  -6.963  0.00  0.00     0.149 C 
HETATM    9  H   UNK N   1      25.484  21.828  -8.969  0.00  0.00     0.161 HD
HETATM   10  O   UNK N   1      26.474  23.996  -9.372  0.00  0.00    -0.271 OA
ENDBRANCH   5   6
BRANCH   5  11
HETATM   11  C   UNK N   1      26.381  26.062  -7.473  0.00  0.00     0.073 C 
BRANCH  11  12
HETATM   12  C   UNK N   1      26.321  27.090  -6.400  0.00  0.00    -0.056 A 
HETATM   13  C   UNK N   1      25.348  27.044  -5.399  0.00  0.00     0.010 A 
HETATM   14  C   UNK N   1      25.355  28.003  -4.382  0.00  0.00     0.037 A 
HETATM   15  C   UNK N   1      26.343  29.007  -4.359  0.00  0.00     0.068 A 
HETATM   16  C   UNK N   1      27.314  29.039  -5.363  0.00  0.00     0.037 A 
HETATM   17  C   UNK N   1      27.305  28.082  -6.377  0.00  0.00     0.010 A 
BRANCH  15  18
HETATM   18  O   UNK N   1      26.380  29.948  -3.387  0.00  0.00    -0.356 OA
HETATM   19  C   UNK N   1      27.502  30.218  -2.641  0.00  0.00     0.210 C 
ENDBRANCH  15  18
ENDBRANCH  11  12
ENDBRANCH   5  11
ENDBRANCH   2   5
BRANCH   1  20
HETATM   20  C   UNK N   1      28.515  24.158  -4.177  0.00  0.00     0.087 C 
BRANCH  20  21
HETATM   21  C   UNK N   1      28.521  23.517  -2.788  0.00  0.00     0.119 C 
BRANCH  21  22
HETATM   22  C   UNK N   1      29.787  22.764  -2.509  0.00  0.00     0.241 C 
HETATM   23  N   UNK N   1      30.186  21.769  -3.332  0.00  0.00    -0.237 N 
HETATM   24  H   UNK N   1      29.645  21.546  -4.123  0.00  0.00     0.197 HD
HETATM   25  O   UNK N   1      30.451  23.051  -1.524  0.00  0.00    -0.271 OA
BRANCH  23  26
HETATM   26  O   UNK N   1      31.310  21.084  -3.085  0.00  0.00    -0.287 OA
HETATM   27  H   UNK N   1      31.525  20.209  -3.446  0.00  0.00     0.244 HD
ENDBRANCH  23  26
ENDBRANCH  21  22
ENDBRANCH  20  21
BRANCH  20  28
HETATM   28  C   UNK N   1      28.714  25.666  -4.004  0.00  0.00     0.018 C 
BRANCH  28  29
HETATM   29  C   UNK N   1      30.144  26.134  -4.190  0.00  0.00    -0.022 C 
HETATM   30  C   UNK N   1      30.434  26.217  -5.675  0.00  0.00     0.009 C 
HETATM   31  C   UNK N   1      30.310  27.508  -3.576  0.00  0.00     0.009 C 
ENDBRANCH  28  29
ENDBRANCH  20  28
ENDBRANCH   1  20
TORSDOF 11
ENDMDL
MODEL 3
REMARK VINA RESULT:      -6.1     16.977     18.869
REMARK  11 active torsions:
REMARK  status: ('A' for Active; 'I' for Inactive)
REMARK    1  A    between atoms: C_1  and  C_2 
REMARK       I    between atoms: C_1  and  N_20 
REMARK    2  A    between atoms: C_2  and  C_3 
REMARK    3  A    between atoms: C_3  and  C_4 
REMARK    4  A    between atoms: C_3  and  C_5 
REMARK       I    between atoms: C_4  and  N_21 
REMARK    5  A    between atoms: C_5  and  C_6 
REMARK    6  A    between atoms: C_9  and  C_10 
REMARK    7  A    between atoms: C_9  and  C_11 
REMARK    8  A    between atoms: C_9  and  N_21 
REMARK       I    between atoms: C_10  and  N_22 
REMARK    9  A    between atoms: C_11  and  C_12 
REMARK   10  A    between atoms: C_17  and  O_27 
REMARK   11  A    between atoms: N_20  and  O_23 
ROOT
HETATM    1  C   UNK N   1      28.584  25.715  -4.044  0.00  0.00     0.223 C 
HETATM    2  N   UNK N   1      27.248  25.933  -4.079  0.00  0.00    -0.347 N 
HETATM    3  O   UNK N   1      29.376  26.591  -4.364  0.00  0.00    -0.273 OA
HETATM    4  H   UNK N   1      26.680  25.270  -3.622  0.00  0.00     0.163 HD
ENDROOT
BRANCH   2   5
HETATM    5  C   UNK N   1      26.567  27.036  -4.716  0.00  0.00     0.180 C 
BRANCH   5   6
HETATM    6  C   UNK N   1      26.167  28.078  -3.679  0.00  0.00     0.240 C 
HETATM    7  N   UNK N   1      26.568  29.371  -3.778  0.00  0.00    -0.364 N 
HETATM    8  C   UNK N   1      27.366  29.870  -4.869  0.00  0.00     0.149 C 
HETATM    9  H   UNK N   1      26.301  30.001  -3.069  0.00  0.00     0.161 HD
HETATM   10  O   UNK N   1      25.448  27.763  -2.743  0.00  0.00    -0.271 OA
ENDBRANCH   5   6
BRANCH   5  11
HETATM   11  C   UNK N   1      25.384  26.348  -5.411  0.00  0.00     0.073 C 
BRANCH  11  12
HETATM   12  C   UNK N   1      25.651  25.560  -6.644  0.00  0.00    -0.056 A 
HETATM   13  C   UNK N   1      25.550  24.167  -6.656  0.00  0.00     0.010 A 
HETATM   14  C   UNK N   1      25.764  23.468  -7.848  0.00  0.00     0.037 A 
HETATM   15  C   UNK N   1      26.070  24.163  -9.034  0.00  0.00     0.068 A 
HETATM   16  C   UNK N   1      26.161  25.557  -9.010  0.00  0.00     0.037 A 
HETATM   17  C   UNK N   1      25.949  26.252  -7.820  0.00  0.00     0.010 A 
BRANCH  15  18
HETATM   18  O   UNK N   1      26.279  23.516 -10.205  0.00  0.00    -0.356 OA
HETATM   19  C   UNK N   1      27.031  22.371 -10.309  0.00  0.00     0.210 C 
ENDBRANCH  15  18
ENDBRANCH  11  12
ENDBRANCH   5  11
ENDBRANCH   2   5
BRANCH   1  20
HETATM   20  C   UNK N   1      29.047  24.316  -3.738  0.00  0.00     0.087 C 
BRANCH  20  21
HETATM   21  C   UNK N   1      30.566  24.144  -3.672  0.00  0.00     0.119 C 
BRANCH  21  22
HETATM   22  C   UNK N   1      30.983  23.105  -2.675  0.00  0.00     0.241 C 
HETATM   23  N   UNK N   1      31.941  22.205  -2.985  0.00  0.00    -0.237 N 
HETATM   24  H   UNK N   1      32.373  22.239  -3.869  0.00  0.00     0.197 HD
HETATM   25  O   UNK N   1      30.440  23.073  -1.579  0.00  0.00    -0.271 OA
BRANCH  23  26
HETATM   26  O   UNK N   1      32.312  21.266  -2.104  0.00  0.00    -0.287 OA
HETATM   27  H   UNK N   1      32.040  21.230  -1.173  0.00  0.00     0.244 HD
ENDBRANCH  23  26
ENDBRANCH  21  22
ENDBRANCH  20  21
BRANCH  20  28
HETATM   28  C   UNK N   1      28.527  23.475  -4.907  0.00  0.00     0.018 C 
BRANCH  28  29
HETATM   29  C   UNK N   1      29.566  23.165  -5.967  0.00  0.00    -0.022 C 
HETATM   30  C   UNK N   1      29.437  21.707  -6.358  0.00  0.00     0.009 C 
HETATM   31  C   UNK N   1      29.318  24.028  -7.186  0.00  0.00     0.009 C 
ENDBRANCH  28  29
ENDBRANCH  20  28
ENDBRANCH   1  20
TORSDOF 11
ENDMDL
MODEL 4
REMARK VINA RESULT:      -6.0      9.885     11.497
REMARK  11 active torsions:
REMARK  status: ('A' for Active; 'I' for Inactive)
REMARK    1  A    between atoms: C_1  and  C_2 
REMARK       I    between atoms: C_1  and  N_20 
REMARK    2  A    between atoms: C_2  and  C_3 
REMARK    3  A    between atoms: C_3  and  C_4 
REMARK    4  A    between atoms: C_3  and  C_5 
REMARK       I    between atoms: C_4  and  N_21 
REMARK    5  A    between atoms: C_5  and  C_6 
REMARK    6  A    between atoms: C_9  and  C_10 
REMARK    7  A    between atoms: C_9  and  C_11 
REMARK    8  A    between atoms: C_9  and  N_21 
REMARK       I    between atoms: C_10  and  N_22 
REMARK    9  A    between atoms: C_11  and  C_12 
REMARK   10  A    between atoms: C_17  and  O_27 
REMARK   11  A    between atoms: N_20  and  O_23 
ROOT
HETATM    1  C   UNK N   1      31.161  17.013   7.580  0.00  0.00     0.223 C 
HETATM    2  N   UNK N   1      32.286  17.760   7.681  0.00  0.00    -0.347 N 
HETATM    3  O   UNK N   1      31.209  15.791   7.606  0.00  0.00    -0.273 OA
HETATM    4  H   UNK N   1      32.164  18.721   7.858  0.00  0.00     0.163 HD
ENDROOT
BRANCH   2   5
HETATM    5  C   UNK N   1      33.648  17.294   7.555  0.00  0.00     0.180 C 
BRANCH   5   6
HETATM    6  C   UNK N   1      34.547  18.019   8.551  0.00  0.00     0.240 C 
HETATM    7  N   UNK N   1      34.967  17.421   9.695  0.00  0.00    -0.364 N 
HETATM    8  C   UNK N   1      34.635  16.064  10.046  0.00  0.00     0.149 C 
HETATM    9  H   UNK N   1      35.528  17.941  10.316  0.00  0.00     0.161 HD
HETATM   10  O   UNK N   1      34.925  19.156   8.316  0.00  0.00    -0.271 OA
ENDBRANCH   5   6
BRANCH   5  11
HETATM   11  C   UNK N   1      33.971  17.586   6.083  0.00  0.00     0.073 C 
BRANCH  11  12
HETATM   12  C   UNK N   1      33.649  16.546   5.071  0.00  0.00    -0.056 A 
HETATM   13  C   UNK N   1      34.230  15.276   5.118  0.00  0.00     0.010 A 
HETATM   14  C   UNK N   1      33.864  14.312   4.174  0.00  0.00     0.037 A 
HETATM   15  C   UNK N   1      32.908  14.613   3.184  0.00  0.00     0.068 A 
HETATM   16  C   UNK N   1      32.330  15.884   3.152  0.00  0.00     0.037 A 
HETATM   17  C   UNK N   1      32.696  16.845   4.093  0.00  0.00     0.010 A 
BRANCH  15  18
HETATM   18  O   UNK N   1      32.530  13.701   2.259  0.00  0.00    -0.356 OA
HETATM   19  C   UNK N   1      31.334  13.025   2.311  0.00  0.00     0.210 C 
ENDBRANCH  15  18
ENDBRANCH  11  12
ENDBRANCH   5  11
ENDBRANCH   2   5
BRANCH   1  20
HETATM   20  C   UNK N   1      29.874  17.740   7.292  0.00  0.00     0.087 C 
BRANCH  20  21
HETATM   21  C   UNK N   1      29.224  18.399   8.510  0.00  0.00     0.119 C 
BRANCH  21  22
HETATM   22  C   UNK N   1      28.895  17.413   9.589  0.00  0.00     0.241 C 
HETATM   23  N   UNK N   1      29.868  16.918  10.385  0.00  0.00    -0.237 N 
HETATM   24  H   UNK N   1      30.798  17.216  10.258  0.00  0.00     0.197 HD
HETATM   25  O   UNK N   1      27.736  17.051   9.738  0.00  0.00    -0.271 OA
BRANCH  23  26
HETATM   26  O   UNK N   1      29.585  16.028  11.344  0.00  0.00    -0.287 OA
HETATM   27  H   UNK N   1      29.944  16.040  12.246  0.00  0.00     0.244 HD
ENDBRANCH  23  26
ENDBRANCH  21  22
ENDBRANCH  20  21
BRANCH  20  28
HETATM   28  C   UNK N   1      28.927  16.651   6.781  0.00  0.00     0.018 C 
BRANCH  28  29
HETATM   29  C   UNK N   1      28.527  16.803   5.326  0.00  0.00    -0.022 C 
HETATM   30  C   UNK N   1      29.214  18.031   4.763  0.00  0.00     0.009 C 
HETATM   31  C   UNK N   1      28.977  15.584   4.549  0.00  0.00     0.009 C 
ENDBRANCH  28  29
ENDBRANCH  20  28
ENDBRANCH   1  20
TORSDOF 11
ENDMDL
MODEL 5
REMARK VINA RESULT:      -5.8      8.834     10.755
REMARK  11 active torsions:
REMARK  status: ('A' for Active; 'I' for Inactive)
REMARK    1  A    between atoms: C_1  and  C_2 
REMARK       I    between atoms: C_1  and  N_20 
REMARK    2  A    between atoms: C_2  and  C_3 
REMARK    3  A    between atoms: C_3  and  C_4 
REMARK    4  A    between atoms: C_3  and  C_5 
REMARK       I    between atoms: C_4  and  N_21 
REMARK    5  A    between atoms: C_5  and  C_6 
REMARK    6  A    between atoms: C_9  and  C_10 
REMARK    7  A    between atoms: C_9  and  C_11 
REMARK    8  A    between atoms: C_9  and  N_21 
REMARK       I    between atoms: C_10  and  N_22 
REMARK    9  A    between atoms: C_11  and  C_12 
REMARK   10  A    between atoms: C_17  and  O_27 
REMARK   11  A    between atoms: N_20  and  O_23 
ROOT
HETATM    1  C   UNK N   1      30.954  17.454   7.858  0.00  0.00     0.223 C 
HETATM    2  N   UNK N   1      29.885  16.764   7.395  0.00  0.00    -0.347 N 
HETATM    3  O   UNK N   1      30.819  18.545   8.395  0.00  0.00    -0.273 OA
HETATM    4  H   UNK N   1      30.035  15.819   7.163  0.00  0.00     0.163 HD
ENDROOT
BRANCH   2   5
HETATM    5  C   UNK N   1      28.546  17.271   7.203  0.00  0.00     0.180 C 
BRANCH   5   6
HETATM    6  C   UNK N   1      28.003  17.833   8.512  0.00  0.00     0.240 C 
HETATM    7  N   UNK N   1      27.569  19.116   8.608  0.00  0.00    -0.364 N 
HETATM    8  C   UNK N   1      27.553  20.031   7.497  0.00  0.00     0.149 C 
HETATM    9  H   UNK N   1      27.249  19.437   9.483  0.00  0.00     0.161 HD
HETATM   10  O   UNK N   1      27.928  17.118   9.499  0.00  0.00    -0.271 OA
ENDBRANCH   5   6
BRANCH   5  11
HETATM   11  C   UNK N   1      27.789  16.041   6.682  0.00  0.00     0.073 C 
BRANCH  11  12
HETATM   12  C   UNK N   1      28.054  15.587   5.290  0.00  0.00    -0.056 A 
HETATM   13  C   UNK N   1      27.677  16.357   4.187  0.00  0.00     0.010 A 
HETATM   14  C   UNK N   1      27.986  15.916   2.897  0.00  0.00     0.037 A 
HETATM   15  C   UNK N   1      28.684  14.707   2.708  0.00  0.00     0.068 A 
HETATM   16  C   UNK N   1      29.061  13.950   3.819  0.00  0.00     0.037 A 
HETATM   17  C   UNK N   1      28.750  14.390   5.105  0.00  0.00     0.010 A 
BRANCH  15  18
HETATM   18  O   UNK N   1      29.001  14.254   1.472  0.00  0.00    -0.356 OA
HETATM   19  C   UNK N   1      29.265  12.933   1.198  0.00  0.00     0.210 C 
ENDBRANCH  15  18
ENDBRANCH  11  12
ENDBRANCH   5  11
ENDBRANCH   2   5
BRANCH   1  20
HETATM   20  C   UNK N   1      32.319  16.894   7.558  0.00  0.00     0.087 C 
BRANCH  20  21
HETATM   21  C   UNK N   1      33.405  17.945   7.318  0.00  0.00     0.119 C 
BRANCH  21  22
HETATM   22  C   UNK N   1      34.333  18.087   8.486  0.00  0.00     0.241 C 
HETATM   23  N   UNK N   1      34.248  17.241   9.536  0.00  0.00    -0.237 N 
HETATM   24  H   UNK N   1      33.576  16.522   9.527  0.00  0.00     0.197 HD
HETATM   25  O   UNK N   1      35.165  18.985   8.486  0.00  0.00    -0.271 OA
BRANCH  23  26
HETATM   26  O   UNK N   1      35.066  17.368  10.589  0.00  0.00    -0.287 OA
HETATM   27  H   UNK N   1      36.024  17.207  10.579  0.00  0.00     0.244 HD
ENDBRANCH  23  26
ENDBRANCH  21  22
ENDBRANCH  20  21
BRANCH  20  28
HETATM   28  C   UNK N   1      32.132  16.101   6.262  0.00  0.00     0.018 C 
BRANCH  28  29
HETATM   29  C   UNK N   1      32.616  16.818   5.016  0.00  0.00    -0.022 C 
HETATM   30  C   UNK N   1      33.458  15.855   4.203  0.00  0.00     0.009 C 
HETATM   31  C   UNK N   1      31.425  17.253   4.189  0.00  0.00     0.009 C 
ENDBRANCH  28  29
ENDBRANCH  20  28
ENDBRANCH   1  20
TORSDOF 11
ENDMDL
MODEL 6
REMARK VINA RESULT:      -5.8     10.098     12.213
REMARK  11 active torsions:
REMARK  status: ('A' for Active; 'I' for Inactive)
REMARK    1  A    between atoms: C_1  and  C_2 
REMARK       I    between atoms: C_1  and  N_20 
REMARK    2  A    between atoms: C_2  and  C_3 
REMARK    3  A    between atoms: C_3  and  C_4 
REMARK    4  A    between atoms: C_3  and  C_5 
REMARK       I    between atoms: C_4  and  N_21 
REMARK    5  A    between atoms: C_5  and  C_6 
REMARK    6  A    between atoms: C_9  and  C_10 
REMARK    7  A    between atoms: C_9  and  C_11 
REMARK    8  A    between atoms: C_9  and  N_21 
REMARK       I    between atoms: C_10  and  N_22 
REMARK    9  A    between atoms: C_11  and  C_12 
REMARK   10  A    between atoms: C_17  and  O_27 
REMARK   11  A    between atoms: N_20  and  O_23 
ROOT
HETATM    1  C   UNK N   1      31.150  17.317   7.541  0.00  0.00     0.223 C 
HETATM    2  N   UNK N   1      30.437  16.951   6.450  0.00  0.00    -0.347 N 
HETATM    3  O   UNK N   1      30.783  18.240   8.256  0.00  0.00    -0.273 OA
HETATM    4  H   UNK N   1      30.670  16.086   6.040  0.00  0.00     0.163 HD
ENDROOT
BRANCH   2   5
HETATM    5  C   UNK N   1      29.371  17.696   5.823  0.00  0.00     0.180 C 
BRANCH   5   6
HETATM    6  C   UNK N   1      28.047  17.411   6.523  0.00  0.00     0.240 C 
HETATM    7  N   UNK N   1      27.283  18.410   7.034  0.00  0.00    -0.364 N 
HETATM    8  C   UNK N   1      27.634  19.803   6.935  0.00  0.00     0.149 C 
HETATM    9  H   UNK N   1      26.447  18.170   7.497  0.00  0.00     0.161 HD
HETATM   10  O   UNK N   1      27.638  16.263   6.612  0.00  0.00    -0.271 OA
ENDBRANCH   5   6
BRANCH   5  11
HETATM   11  C   UNK N   1      29.432  17.215   4.366  0.00  0.00     0.073 C 
BRANCH  11  12
HETATM   12  C   UNK N   1      30.697  16.601   3.879  0.00  0.00    -0.056 A 
HETATM   13  C   UNK N   1      31.867  17.351   3.744  0.00  0.00     0.010 A 
HETATM   14  C   UNK N   1      33.046  16.725   3.328  0.00  0.00     0.037 A 
HETATM   15  C   UNK N   1      33.058  15.342   3.054  0.00  0.00     0.068 A 
HETATM   16  C   UNK N   1      31.881  14.603   3.199  0.00  0.00     0.037 A 
HETATM   17  C   UNK N   1      30.707  15.230   3.613  0.00  0.00     0.010 A 
BRANCH  15  18
HETATM   18  O   UNK N   1      34.183  14.706   2.653  0.00  0.00    -0.356 OA
HETATM   19  C   UNK N   1      34.913  13.878   3.472  0.00  0.00     0.210 C 
ENDBRANCH  15  18
ENDBRANCH  11  12
ENDBRANCH   5  11
ENDBRANCH   2   5
BRANCH   1  20
HETATM   20  C   UNK N   1      32.480  16.644   7.755  0.00  0.00     0.087 C 
BRANCH  20  21
HETATM   21  C   UNK N   1      33.689  17.439   7.258  0.00  0.00     0.119 C 
BRANCH  21  22
HETATM   22  C   UNK N   1      34.544  17.945   8.380  0.00  0.00     0.241 C 
HETATM   23  N   UNK N   1      34.786  17.170   9.460  0.00  0.00    -0.237 N 
HETATM   24  H   UNK N   1      34.403  16.264   9.503  0.00  0.00     0.197 HD
HETATM   25  O   UNK N   1      35.014  19.073   8.314  0.00  0.00    -0.271 OA
BRANCH  23  26
HETATM   26  O   UNK N   1      35.540  17.618  10.472  0.00  0.00    -0.287 OA
HETATM   27  H   UNK N   1      35.829  17.091  11.234  0.00  0.00     0.244 HD
ENDBRANCH  23  26
ENDBRANCH  21  22
ENDBRANCH  20  21
BRANCH  20  28
HETATM   28  C   UNK N   1      32.392  15.354   6.936  0.00  0.00     0.018 C 
BRANCH  28  29
HETATM   29  C   UNK N   1      33.326  14.253   7.401  0.00  0.00    -0.022 C 
HETATM   30  C   UNK N   1      33.003  13.925   8.845  0.00  0.00     0.009 C 
HETATM   31  C   UNK N   1      33.111  13.017   6.553  0.00  0.00     0.009 C 
ENDBRANCH  28  29
ENDBRANCH  20  28
ENDBRANCH   1  20
TORSDOF 11
ENDMDL
MODEL 7
REMARK VINA RESULT:      -5.8      5.974      7.937
REMARK  11 active torsions:
REMARK  status: ('A' for Active; 'I' for Inactive)
REMARK    1  A    between atoms: C_1  and  C_2 
REMARK       I    between atoms: C_1  and  N_20 
REMARK    2  A    between atoms: C_2  and  C_3 
REMARK    3  A    between atoms: C_3  and  C_4 
REMARK    4  A    between atoms: C_3  and  C_5 
REMARK       I    between atoms: C_4  and  N_21 
REMARK    5  A    between atoms: C_5  and  C_6 
REMARK    6  A    between atoms: C_9  and  C_10 
REMARK    7  A    between atoms: C_9  and  C_11 
REMARK    8  A    between atoms: C_9  and  N_21 
REMARK       I    between atoms: C_10  and  N_22 
REMARK    9  A    between atoms: C_11  and  C_12 
REMARK   10  A    between atoms: C_17  and  O_27 
REMARK   11  A    between atoms: N_20  and  O_23 
ROOT
HETATM    1  C   UNK N   1      23.913  19.898   3.432  0.00  0.00     0.223 C 
HETATM    2  N   UNK N   1      22.734  19.292   3.706  0.00  0.00    -0.347 N 
HETATM    3  O   UNK N   1      24.028  20.660   2.482  0.00  0.00    -0.273 OA
HETATM    4  H   UNK N   1      22.654  18.860   4.588  0.00  0.00     0.163 HD
ENDROOT
BRANCH   2   5
HETATM    5  C   UNK N   1      21.581  19.213   2.841  0.00  0.00     0.180 C 
BRANCH   5   6
HETATM    6  C   UNK N   1      20.756  20.491   2.943  0.00  0.00     0.240 C 
HETATM    7  N   UNK N   1      20.500  21.260   1.854  0.00  0.00    -0.364 N 
HETATM    8  C   UNK N   1      20.948  20.926   0.527  0.00  0.00     0.149 C 
HETATM    9  H   UNK N   1      19.981  22.089   1.978  0.00  0.00     0.161 HD
HETATM   10  O   UNK N   1      20.288  20.831   4.018  0.00  0.00    -0.271 OA
ENDBRANCH   5   6
BRANCH   5  11
HETATM   11  C   UNK N   1      20.862  17.955   3.349  0.00  0.00     0.073 C 
BRANCH  11  12
HETATM   12  C   UNK N   1      21.037  16.688   2.589  0.00  0.00    -0.056 A 
HETATM   13  C   UNK N   1      21.944  15.709   3.001  0.00  0.00     0.010 A 
HETATM   14  C   UNK N   1      22.044  14.512   2.285  0.00  0.00     0.037 A 
HETATM   15  C   UNK N   1      21.228  14.288   1.159  0.00  0.00     0.068 A 
HETATM   16  C   UNK N   1      20.320  15.272   0.761  0.00  0.00     0.037 A 
HETATM   17  C   UNK N   1      20.223  16.465   1.475  0.00  0.00     0.010 A 
BRANCH  15  18
HETATM   18  O   UNK N   1      21.298  13.139   0.447  0.00  0.00    -0.356 OA
HETATM   19  C   UNK N   1      20.883  11.923   0.936  0.00  0.00     0.210 C 
ENDBRANCH  15  18
ENDBRANCH  11  12
ENDBRANCH   5  11
ENDBRANCH   2   5
BRANCH   1  20
HETATM   20  C   UNK N   1      25.108  19.486   4.252  0.00  0.00     0.087 C 
BRANCH  20  21
HETATM   21  C   UNK N   1      26.110  20.608   4.533  0.00  0.00     0.119 C 
BRANCH  21  22
HETATM   22  C   UNK N   1      26.430  20.740   5.991  0.00  0.00     0.241 C 
HETATM   23  N   UNK N   1      26.838  19.667   6.702  0.00  0.00    -0.237 N 
HETATM   24  H   UNK N   1      26.933  18.795   6.255  0.00  0.00     0.197 HD
HETATM   25  O   UNK N   1      26.308  21.829   6.536  0.00  0.00    -0.271 OA
BRANCH  23  26
HETATM   26  O   UNK N   1      27.115  19.773   8.008  0.00  0.00    -0.287 OA
HETATM   27  H   UNK N   1      27.352  20.595   8.467  0.00  0.00     0.244 HD
ENDBRANCH  23  26
ENDBRANCH  21  22
ENDBRANCH  20  21
BRANCH  20  28
HETATM   28  C   UNK N   1      25.810  18.426   3.400  0.00  0.00     0.018 C 
BRANCH  28  29
HETATM   29  C   UNK N   1      25.271  17.021   3.580  0.00  0.00    -0.022 C 
HETATM   30  C   UNK N   1      26.018  16.093   2.644  0.00  0.00     0.009 C 
HETATM   31  C   UNK N   1      25.499  16.572   5.008  0.00  0.00     0.009 C 
ENDBRANCH  28  29
ENDBRANCH  20  28
ENDBRANCH   1  20
TORSDOF 11
ENDMDL
MODEL 8
REMARK VINA RESULT:      -5.7      4.911      7.827
REMARK  11 active torsions:
REMARK  status: ('A' for Active; 'I' for Inactive)
REMARK    1  A    between atoms: C_1  and  C_2 
REMARK       I    between atoms: C_1  and  N_20 
REMARK    2  A    between atoms: C_2  and  C_3 
REMARK    3  A    between atoms: C_3  and  C_4 
REMARK    4  A    between atoms: C_3  and  C_5 
REMARK       I    between atoms: C_4  and  N_21 
REMARK    5  A    between atoms: C_5  and  C_6 
REMARK    6  A    between atoms: C_9  and  C_10 
REMARK    7  A    between atoms: C_9  and  C_11 
REMARK    8  A    between atoms: C_9  and  N_21 
REMARK       I    between atoms: C_10  and  N_22 
REMARK    9  A    between atoms: C_11  and  C_12 
REMARK   10  A    between atoms: C_17  and  O_27 
REMARK   11  A    between atoms: N_20  and  O_23 
ROOT
HETATM    1  C   UNK N   1      23.823  19.887   3.448  0.00  0.00     0.223 C 
HETATM    2  N   UNK N   1      22.689  19.229   3.784  0.00  0.00    -0.347 N 
HETATM    3  O   UNK N   1      23.842  20.676   2.512  0.00  0.00    -0.273 OA
HETATM    4  H   UNK N   1      22.686  18.773   4.657  0.00  0.00     0.163 HD
ENDROOT
BRANCH   2   5
HETATM    5  C   UNK N   1      21.483  19.123   2.996  0.00  0.00     0.180 C 
BRANCH   5   6
HETATM    6  C   UNK N   1      20.740  20.454   2.990  0.00  0.00     0.240 C 
HETATM    7  N   UNK N   1      20.563  21.164   1.847  0.00  0.00    -0.364 N 
HETATM    8  C   UNK N   1      21.026  20.717   0.559  0.00  0.00     0.149 C 
HETATM    9  H   UNK N   1      20.095  22.030   1.901  0.00  0.00     0.161 HD
HETATM   10  O   UNK N   1      20.265  20.892   4.026  0.00  0.00    -0.271 OA
ENDBRANCH   5   6
BRANCH   5  11
HETATM   11  C   UNK N   1      20.727  17.979   3.686  0.00  0.00     0.073 C 
BRANCH  11  12
HETATM   12  C   UNK N   1      21.352  16.629   3.702  0.00  0.00    -0.056 A 
HETATM   13  C   UNK N   1      21.719  15.980   2.522  0.00  0.00     0.010 A 
HETATM   14  C   UNK N   1      22.347  14.732   2.584  0.00  0.00     0.037 A 
HETATM   15  C   UNK N   1      22.617  14.134   3.831  0.00  0.00     0.068 A 
HETATM   16  C   UNK N   1      22.250  14.797   5.004  0.00  0.00     0.037 A 
HETATM   17  C   UNK N   1      21.623  16.040   4.940  0.00  0.00     0.010 A 
BRANCH  15  18
HETATM   18  O   UNK N   1      23.226  12.929   3.925  0.00  0.00    -0.356 OA
HETATM   19  C   UNK N   1      23.664  12.398   5.115  0.00  0.00     0.210 C 
ENDBRANCH  15  18
ENDBRANCH  11  12
ENDBRANCH   5  11
ENDBRANCH   2   5
BRANCH   1  20
HETATM   20  C   UNK N   1      25.085  19.505   4.174  0.00  0.00     0.087 C 
BRANCH  20  21
HETATM   21  C   UNK N   1      26.138  20.613   4.256  0.00  0.00     0.119 C 
BRANCH  21  22
HETATM   22  C   UNK N   1      26.605  20.858   5.659  0.00  0.00     0.241 C 
HETATM   23  N   UNK N   1      26.362  19.950   6.630  0.00  0.00    -0.237 N 
HETATM   24  H   UNK N   1      25.882  19.119   6.409  0.00  0.00     0.197 HD
HETATM   25  O   UNK N   1      27.201  21.893   5.921  0.00  0.00    -0.271 OA
BRANCH  23  26
HETATM   26  O   UNK N   1      26.765  20.166   7.888  0.00  0.00    -0.287 OA
HETATM   27  H   UNK N   1      27.682  20.328   8.164  0.00  0.00     0.244 HD
ENDBRANCH  23  26
ENDBRANCH  21  22
ENDBRANCH  20  21
BRANCH  20  28
HETATM   28  C   UNK N   1      25.670  18.357   3.348  0.00  0.00     0.018 C 
BRANCH  28  29
HETATM   29  C   UNK N   1      25.129  16.987   3.711  0.00  0.00    -0.022 C 
HETATM   30  C   UNK N   1      25.880  15.944   2.907  0.00  0.00     0.009 C 
HETATM   31  C   UNK N   1      25.353  16.731   5.186  0.00  0.00     0.009 C 
ENDBRANCH  28  29
ENDBRANCH  20  28
ENDBRANCH   1  20
TORSDOF 11
ENDMDL
MODEL 9
REMARK VINA RESULT:      -5.7     10.090     11.434
REMARK  11 active torsions:
REMARK  status: ('A' for Active; 'I' for Inactive)
REMARK    1  A    between atoms: C_1  and  C_2 
REMARK       I    between atoms: C_1  and  N_20 
REMARK    2  A    between atoms: C_2  and  C_3 
REMARK    3  A    between atoms: C_3  and  C_4 
REMARK    4  A    between atoms: C_3  and  C_5 
REMARK       I    between atoms: C_4  and  N_21 
REMARK    5  A    between atoms: C_5  and  C_6 
REMARK    6  A    between atoms: C_9  and  C_10 
REMARK    7  A    between atoms: C_9  and  C_11 
REMARK    8  A    between atoms: C_9  and  N_21 
REMARK       I    between atoms: C_10  and  N_22 
REMARK    9  A    between atoms: C_11  and  C_12 
REMARK   10  A    between atoms: C_17  and  O_27 
REMARK   11  A    between atoms: N_20  and  O_23 
ROOT
HETATM    1  C   UNK N   1      31.414  16.914   7.984  0.00  0.00     0.223 C 
HETATM    2  N   UNK N   1      32.715  17.069   7.642  0.00  0.00    -0.347 N 
HETATM    3  O   UNK N   1      31.096  16.349   9.022  0.00  0.00    -0.273 OA
HETATM    4  H   UNK N   1      32.907  17.701   6.911  0.00  0.00     0.163 HD
ENDROOT
BRANCH   2   5
HETATM    5  C   UNK N   1      33.851  16.404   8.236  0.00  0.00     0.180 C 
BRANCH   5   6
HETATM    6  C   UNK N   1      34.608  17.365   9.146  0.00  0.00     0.240 C 
HETATM    7  N   UNK N   1      34.994  17.005  10.397  0.00  0.00    -0.364 N 
HETATM    8  C   UNK N   1      34.756  15.697  10.952  0.00  0.00     0.149 C 
HETATM    9  H   UNK N   1      35.460  17.671  10.953  0.00  0.00     0.161 HD
HETATM   10  O   UNK N   1      34.901  18.481   8.746  0.00  0.00    -0.271 OA
ENDBRANCH   5   6
BRANCH   5  11
HETATM   11  C   UNK N   1      34.648  15.935   7.010  0.00  0.00     0.073 C 
BRANCH  11  12
HETATM   12  C   UNK N   1      34.004  14.972   6.078  0.00  0.00    -0.056 A 
HETATM   13  C   UNK N   1      33.176  13.948   6.542  0.00  0.00     0.010 A 
HETATM   14  C   UNK N   1      32.553  13.093   5.628  0.00  0.00     0.037 A 
HETATM   15  C   UNK N   1      32.751  13.266   4.244  0.00  0.00     0.068 A 
HETATM   16  C   UNK N   1      33.577  14.298   3.792  0.00  0.00     0.037 A 
HETATM   17  C   UNK N   1      34.198  15.149   4.705  0.00  0.00     0.010 A 
BRANCH  15  18
HETATM   18  O   UNK N   1      32.160  12.458   3.334  0.00  0.00    -0.356 OA
HETATM   19  C   UNK N   1      31.464  12.930   2.247  0.00  0.00     0.210 C 
ENDBRANCH  15  18
ENDBRANCH  11  12
ENDBRANCH   5  11
ENDBRANCH   2   5
BRANCH   1  20
HETATM   20  C   UNK N   1      30.379  17.332   6.973  0.00  0.00     0.087 C 
BRANCH  20  21
HETATM   21  C   UNK N   1      28.932  17.068   7.391  0.00  0.00     0.119 C 
BRANCH  21  22
HETATM   22  C   UNK N   1      28.295  18.260   8.039  0.00  0.00     0.241 C 
HETATM   23  N   UNK N   1      27.462  19.058   7.335  0.00  0.00    -0.237 N 
HETATM   24  H   UNK N   1      27.268  18.847   6.393  0.00  0.00     0.197 HD
HETATM   25  O   UNK N   1      28.543  18.511   9.210  0.00  0.00    -0.271 OA
BRANCH  23  26
HETATM   26  O   UNK N   1      26.897  20.131   7.903  0.00  0.00    -0.287 OA
HETATM   27  H   UNK N   1      26.756  20.255   8.855  0.00  0.00     0.244 HD
ENDBRANCH  23  26
ENDBRANCH  21  22
ENDBRANCH  20  21
BRANCH  20  28
HETATM   28  C   UNK N   1      30.681  16.476   5.740  0.00  0.00     0.018 C 
BRANCH  28  29
HETATM   29  C   UNK N   1      30.654  17.237   4.429  0.00  0.00    -0.022 C 
HETATM   30  C   UNK N   1      32.042  17.782   4.159  0.00  0.00     0.009 C 
HETATM   31  C   UNK N   1      30.265  16.298   3.307  0.00  0.00     0.009 C 
ENDBRANCH  28  29
ENDBRANCH  20  28
ENDBRANCH   1  20
TORSDOF 11
ENDMDL
