MODEL 1
REMARK VINA RESULT:      -6.8      0.000      0.000
REMARK  8 active torsions:
REMARK  status: ('A' for Active; 'I' for Inactive)
REMARK    1  A    between atoms: N_1  and  S_2 
REMARK    2  A    between atoms: N_1  and  C_13 
REMARK    3  A    between atoms: S_2  and  C_5 
REMARK    4  A    between atoms: C_9  and  C_10 
REMARK    5  A    between atoms: C_10  and  O_11 
REMARK    6  A    between atoms: C_14  and  O_19 
REMARK    7  A    between atoms: C_16  and  C_20 
REMARK    8  A    between atoms: C_20  and  O_21 
ROOT
HETATM    1  N   UNK N   1      19.455  15.645   3.496  0.00  0.00    -0.278 N 
HETATM    2  H   UNK N   1      19.294  15.082   2.705  0.00  0.00     0.179 HD
ENDROOT
BRANCH   1   3
HETATM    3  S   UNK N   1      19.023  15.013   5.079  0.00  0.00     0.264 S 
HETATM    4  O   UNK N   1      18.143  13.803   4.730  0.00  0.00    -0.200 OA
HETATM    5  O   UNK N   1      17.941  15.975   5.578  0.00  0.00    -0.200 OA
BRANCH   3   6
HETATM    6  C   UNK N   1      20.247  14.499   6.309  0.00  0.00     0.104 A 
HETATM    7  C   UNK N   1      21.042  13.342   6.071  0.00  0.00     0.034 A 
HETATM    8  C   UNK N   1      21.890  12.999   7.131  0.00  0.00     0.052 A 
HETATM    9  S   UNK N   1      21.616  14.123   8.316  0.00  0.00    -0.094 SA
HETATM   10  C   UNK N   1      20.471  15.070   7.583  0.00  0.00     0.101 A 
BRANCH  10  11
HETATM   11  C   UNK N   1      19.864  16.246   8.247  0.00  0.00     0.184 C 
HETATM   12  O   UNK N   1      20.542  17.186   8.614  0.00  0.00    -0.646 OA
BRANCH  11  13
HETATM   13  O   UNK N   1      18.534  16.271   8.466  0.00  0.00    -0.772 OA
HETATM   14  H   UNK N   1      18.201  16.467   9.320  0.00  0.00     0.167 HD
ENDBRANCH  11  13
ENDBRANCH  10  11
ENDBRANCH   3   6
ENDBRANCH   1   3
BRANCH   1  15
HETATM   15  C   UNK N   1      20.024  16.930   3.307  0.00  0.00     0.075 A 
HETATM   16  C   UNK N   1      19.803  17.613   2.101  0.00  0.00     0.093 A 
HETATM   17  C   UNK N   1      20.379  18.866   1.887  0.00  0.00     0.057 A 
HETATM   18  C   UNK N   1      21.172  19.462   2.876  0.00  0.00     0.040 A 
HETATM   19  C   UNK N   1      21.387  18.783   4.085  0.00  0.00     0.021 A 
HETATM   20  C   UNK N   1      20.824  17.519   4.296  0.00  0.00     0.034 A 
BRANCH  16  21
HETATM   21  O   UNK N   1      19.057  17.053   1.131  0.00  0.00    -0.358 OA
HETATM   22  H   UNK N   1      18.272  16.588   1.343  0.00  0.00     0.217 HD
ENDBRANCH  16  21
BRANCH  18  23
HETATM   23  C   UNK N   1      21.779  20.786   2.634  0.00  0.00     0.176 C 
HETATM   24  O   UNK N   1      22.940  20.999   2.951  0.00  0.00    -0.646 OA
BRANCH  23  25
HETATM   25  O   UNK N   1      21.059  21.768   2.057  0.00  0.00    -0.773 OA
HETATM   26  H   UNK N   1      21.359  22.163   1.262  0.00  0.00     0.167 HD
ENDBRANCH  23  25
ENDBRANCH  18  23
ENDBRANCH   1  15
TORSDOF 8
ENDMDL
MODEL 2
REMARK VINA RESULT:      -6.6     11.554     13.147
REMARK  8 active torsions:
REMARK  status: ('A' for Active; 'I' for Inactive)
REMARK    1  A    between atoms: N_1  and  S_2 
REMARK    2  A    between atoms: N_1  and  C_13 
REMARK    3  A    between atoms: S_2  and  C_5 
REMARK    4  A    between atoms: C_9  and  C_10 
REMARK    5  A    between atoms: C_10  and  O_11 
REMARK    6  A    between atoms: C_14  and  O_19 
REMARK    7  A    between atoms: C_16  and  C_20 
REMARK    8  A    between atoms: C_20  and  O_21 
ROOT
HETATM    1  N   UNK N   1      32.645  17.840   8.902  0.00  0.00    -0.278 N 
HETATM    2  H   UNK N   1      32.595  18.396   9.713  0.00  0.00     0.179 HD
ENDROOT
BRANCH   1   3
HETATM    3  S   UNK N   1      34.226  17.305   8.347  0.00  0.00     0.264 S 
HETATM    4  O   UNK N   1      35.186  18.111   9.235  0.00  0.00    -0.200 OA
HETATM    5  O   UNK N   1      34.424  18.049   7.023  0.00  0.00    -0.200 OA
BRANCH   3   6
HETATM    6  C   UNK N   1      34.747  15.572   8.361  0.00  0.00     0.104 A 
HETATM    7  C   UNK N   1      35.381  15.018   7.213  0.00  0.00     0.034 A 
HETATM    8  C   UNK N   1      35.659  13.649   7.314  0.00  0.00     0.052 A 
HETATM    9  S   UNK N   1      35.104  13.180   8.802  0.00  0.00    -0.094 SA
HETATM   10  C   UNK N   1      34.518  14.617   9.380  0.00  0.00     0.101 A 
BRANCH  10  11
HETATM   11  C   UNK N   1      33.882  14.744  10.711  0.00  0.00     0.184 C 
HETATM   12  O   UNK N   1      34.496  14.497  11.731  0.00  0.00    -0.646 OA
BRANCH  11  13
HETATM   13  O   UNK N   1      32.591  15.121  10.797  0.00  0.00    -0.772 OA
HETATM   14  H   UNK N   1      32.203  15.286  11.634  0.00  0.00     0.167 HD
ENDBRANCH  11  13
ENDBRANCH  10  11
ENDBRANCH   3   6
ENDBRANCH   1   3
BRANCH   1  15
HETATM   15  C   UNK N   1      31.439  17.508   8.234  0.00  0.00     0.075 A 
HETATM   16  C   UNK N   1      30.219  17.985   8.736  0.00  0.00     0.093 A 
HETATM   17  C   UNK N   1      29.019  17.644   8.107  0.00  0.00     0.057 A 
HETATM   18  C   UNK N   1      29.021  16.836   6.964  0.00  0.00     0.040 A 
HETATM   19  C   UNK N   1      30.243  16.365   6.458  0.00  0.00     0.021 A 
HETATM   20  C   UNK N   1      31.445  16.691   7.095  0.00  0.00     0.034 A 
BRANCH  16  21
HETATM   21  O   UNK N   1      30.191  18.751   9.841  0.00  0.00    -0.358 OA
HETATM   22  H   UNK N   1      30.180  18.358  10.692  0.00  0.00     0.217 HD
ENDBRANCH  16  21
BRANCH  18  23
HETATM   23  C   UNK N   1      27.745  16.479   6.312  0.00  0.00     0.176 C 
HETATM   24  O   UNK N   1      27.611  15.390   5.773  0.00  0.00    -0.646 OA
BRANCH  23  25
HETATM   25  O   UNK N   1      26.716  17.350   6.312  0.00  0.00    -0.773 OA
HETATM   26  H   UNK N   1      25.841  17.041   6.443  0.00  0.00     0.167 HD
ENDBRANCH  23  25
ENDBRANCH  18  23
ENDBRANCH   1  15
TORSDOF 8
ENDMDL
MODEL 3
REMARK VINA RESULT:      -6.5      6.051      7.106
REMARK  8 active torsions:
REMARK  status: ('A' for Active; 'I' for Inactive)
REMARK    1  A    between atoms: N_1  and  S_2 
REMARK    2  A    between atoms: N_1  and  C_13 
REMARK    3  A    between atoms: S_2  and  C_5 
REMARK    4  A    between atoms: C_9  and  C_10 
REMARK    5  A    between atoms: C_10  and  O_11 
REMARK    6  A    between atoms: C_14  and  O_19 
REMARK    7  A    between atoms: C_16  and  C_20 
REMARK    8  A    between atoms: C_20  and  O_21 
ROOT
HETATM    1  N   UNK N   1      25.994  18.894   5.642  0.00  0.00    -0.278 N 
HETATM    2  H   UNK N   1      26.085  19.358   6.505  0.00  0.00     0.179 HD
ENDROOT
BRANCH   1   3
HETATM    3  S   UNK N   1      27.169  17.653   5.228  0.00  0.00     0.264 S 
HETATM    4  O   UNK N   1      27.494  17.971   3.761  0.00  0.00    -0.200 OA
HETATM    5  O   UNK N   1      26.320  16.393   5.030  0.00  0.00    -0.200 OA
BRANCH   3   6
HETATM    6  C   UNK N   1      28.723  17.420   6.125  0.00  0.00     0.104 A 
HETATM    7  C   UNK N   1      29.881  16.975   5.425  0.00  0.00     0.034 A 
HETATM    8  C   UNK N   1      30.996  16.752   6.242  0.00  0.00     0.052 A 
HETATM    9  S   UNK N   1      30.508  17.100   7.786  0.00  0.00    -0.094 SA
HETATM   10  C   UNK N   1      28.934  17.542   7.518  0.00  0.00     0.101 A 
BRANCH  10  11
HETATM   11  C   UNK N   1      28.022  17.947   8.612  0.00  0.00     0.184 C 
HETATM   12  O   UNK N   1      27.798  17.212   9.554  0.00  0.00    -0.646 OA
BRANCH  11  13
HETATM   13  O   UNK N   1      27.409  19.146   8.556  0.00  0.00    -0.772 OA
HETATM   14  H   UNK N   1      27.046  19.453   7.749  0.00  0.00     0.167 HD
ENDBRANCH  11  13
ENDBRANCH  10  11
ENDBRANCH   3   6
ENDBRANCH   1   3
BRANCH   1  15
HETATM   15  C   UNK N   1      24.922  19.257   4.788  0.00  0.00     0.075 A 
HETATM   16  C   UNK N   1      23.715  18.543   4.855  0.00  0.00     0.093 A 
HETATM   17  C   UNK N   1      22.658  18.869   4.002  0.00  0.00     0.057 A 
HETATM   18  C   UNK N   1      22.785  19.918   3.083  0.00  0.00     0.040 A 
HETATM   19  C   UNK N   1      23.988  20.637   3.022  0.00  0.00     0.021 A 
HETATM   20  C   UNK N   1      25.055  20.302   3.864  0.00  0.00     0.034 A 
BRANCH  16  21
HETATM   21  O   UNK N   1      23.577  17.523   5.719  0.00  0.00    -0.358 OA
HETATM   22  H   UNK N   1      23.419  16.653   5.407  0.00  0.00     0.217 HD
ENDBRANCH  16  21
BRANCH  18  23
HETATM   23  C   UNK N   1      21.661  20.248   2.183  0.00  0.00     0.176 C 
HETATM   24  O   UNK N   1      20.509  20.184   2.586  0.00  0.00    -0.646 OA
BRANCH  23  25
HETATM   25  O   UNK N   1      21.898  20.629   0.912  0.00  0.00    -0.773 OA
HETATM   26  H   UNK N   1      21.761  21.520   0.657  0.00  0.00     0.167 HD
ENDBRANCH  23  25
ENDBRANCH  18  23
ENDBRANCH   1  15
TORSDOF 8
ENDMDL
MODEL 4
REMARK VINA RESULT:      -6.5      3.465      7.705
REMARK  8 active torsions:
REMARK  status: ('A' for Active; 'I' for Inactive)
REMARK    1  A    between atoms: N_1  and  S_2 
REMARK    2  A    between atoms: N_1  and  C_13 
REMARK    3  A    between atoms: S_2  and  C_5 
REMARK    4  A    between atoms: C_9  and  C_10 
REMARK    5  A    between atoms: C_10  and  O_11 
REMARK    6  A    between atoms: C_14  and  O_19 
REMARK    7  A    between atoms: C_16  and  C_20 
REMARK    8  A    between atoms: C_20  and  O_21 
ROOT
HETATM    1  N   UNK N   1      20.588  13.646   7.193  0.00  0.00    -0.278 N 
HETATM    2  H   UNK N   1      20.149  12.979   6.617  0.00  0.00     0.179 HD
ENDROOT
BRANCH   1   3
HETATM    3  S   UNK N   1      20.445  15.346   6.767  0.00  0.00     0.264 S 
HETATM    4  O   UNK N   1      21.595  15.989   7.556  0.00  0.00    -0.200 OA
HETATM    5  O   UNK N   1      19.260  15.838   7.604  0.00  0.00    -0.200 OA
BRANCH   3   6
HETATM    6  C   UNK N   1      20.509  15.950   5.062  0.00  0.00     0.104 A 
HETATM    7  C   UNK N   1      20.132  15.087   3.995  0.00  0.00     0.034 A 
HETATM    8  C   UNK N   1      20.306  15.640   2.720  0.00  0.00     0.052 A 
HETATM    9  S   UNK N   1      20.923  17.158   2.961  0.00  0.00    -0.094 SA
HETATM   10  C   UNK N   1      20.992  17.202   4.615  0.00  0.00     0.101 A 
BRANCH  10  11
HETATM   11  C   UNK N   1      21.500  18.376   5.362  0.00  0.00     0.184 C 
HETATM   12  O   UNK N   1      21.007  19.479   5.219  0.00  0.00    -0.646 OA
BRANCH  11  13
HETATM   13  O   UNK N   1      22.541  18.227   6.204  0.00  0.00    -0.772 OA
HETATM   14  H   UNK N   1      23.403  18.077   5.868  0.00  0.00     0.167 HD
ENDBRANCH  11  13
ENDBRANCH  10  11
ENDBRANCH   3   6
ENDBRANCH   1   3
BRANCH   1  15
HETATM   15  C   UNK N   1      21.305  13.192   8.328  0.00  0.00     0.075 A 
HETATM   16  C   UNK N   1      20.741  13.339   9.605  0.00  0.00     0.093 A 
HETATM   17  C   UNK N   1      21.446  12.923  10.737  0.00  0.00     0.057 A 
HETATM   18  C   UNK N   1      22.714  12.343  10.610  0.00  0.00     0.040 A 
HETATM   19  C   UNK N   1      23.275  12.189   9.333  0.00  0.00     0.021 A 
HETATM   20  C   UNK N   1      22.578  12.620   8.199  0.00  0.00     0.034 A 
BRANCH  16  21
HETATM   21  O   UNK N   1      19.531  13.907   9.751  0.00  0.00    -0.358 OA
HETATM   22  H   UNK N   1      19.126  14.354   9.034  0.00  0.00     0.217 HD
ENDBRANCH  16  21
BRANCH  18  23
HETATM   23  C   UNK N   1      23.450  11.913  11.816  0.00  0.00     0.176 C 
HETATM   24  O   UNK N   1      24.672  11.941  11.836  0.00  0.00    -0.646 OA
BRANCH  23  25
HETATM   25  O   UNK N   1      22.779  11.491  12.907  0.00  0.00    -0.773 OA
HETATM   26  H   UNK N   1      22.996  11.833  13.752  0.00  0.00     0.167 HD
ENDBRANCH  23  25
ENDBRANCH  18  23
ENDBRANCH   1  15
TORSDOF 8
ENDMDL
MODEL 5
REMARK VINA RESULT:      -6.5     15.216     16.952
REMARK  8 active torsions:
REMARK  status: ('A' for Active; 'I' for Inactive)
REMARK    1  A    between atoms: N_1  and  S_2 
REMARK    2  A    between atoms: N_1  and  C_13 
REMARK    3  A    between atoms: S_2  and  C_5 
REMARK    4  A    between atoms: C_9  and  C_10 
REMARK    5  A    between atoms: C_10  and  O_11 
REMARK    6  A    between atoms: C_14  and  O_19 
REMARK    7  A    between atoms: C_16  and  C_20 
REMARK    8  A    between atoms: C_20  and  O_21 
ROOT
HETATM    1  N   UNK N   1      34.374  13.645  11.632  0.00  0.00    -0.278 N 
HETATM    2  H   UNK N   1      33.803  13.693  12.432  0.00  0.00     0.179 HD
ENDROOT
BRANCH   1   3
HETATM    3  S   UNK N   1      35.277  12.165  11.334  0.00  0.00     0.264 S 
HETATM    4  O   UNK N   1      36.033  12.486  10.036  0.00  0.00    -0.200 OA
HETATM    5  O   UNK N   1      34.227  11.197  10.781  0.00  0.00    -0.200 OA
BRANCH   3   6
HETATM    6  C   UNK N   1      36.447  11.461  12.522  0.00  0.00     0.104 A 
HETATM    7  C   UNK N   1      37.005  10.173  12.283  0.00  0.00     0.034 A 
HETATM    8  C   UNK N   1      37.828   9.703  13.314  0.00  0.00     0.052 A 
HETATM    9  S   UNK N   1      37.824  10.884  14.476  0.00  0.00    -0.094 SA
HETATM   10  C   UNK N   1      36.835  12.009  13.768  0.00  0.00     0.101 A 
BRANCH  10  11
HETATM   11  C   UNK N   1      36.486  13.290  14.423  0.00  0.00     0.184 C 
HETATM   12  O   UNK N   1      35.361  13.747  14.358  0.00  0.00    -0.646 OA
BRANCH  11  13
HETATM   13  O   UNK N   1      37.435  13.976  15.089  0.00  0.00    -0.772 OA
HETATM   14  H   UNK N   1      37.868  14.699  14.681  0.00  0.00     0.167 HD
ENDBRANCH  11  13
ENDBRANCH  10  11
ENDBRANCH   3   6
ENDBRANCH   1   3
BRANCH   1  15
HETATM   15  C   UNK N   1      34.431  14.770  10.772  0.00  0.00     0.075 A 
HETATM   16  C   UNK N   1      35.411  15.752  10.984  0.00  0.00     0.093 A 
HETATM   17  C   UNK N   1      35.464  16.881  10.164  0.00  0.00     0.057 A 
HETATM   18  C   UNK N   1      34.552  17.039   9.114  0.00  0.00     0.040 A 
HETATM   19  C   UNK N   1      33.577  16.054   8.896  0.00  0.00     0.021 A 
HETATM   20  C   UNK N   1      33.511  14.929   9.727  0.00  0.00     0.034 A 
BRANCH  16  21
HETATM   21  O   UNK N   1      36.288  15.628  11.997  0.00  0.00    -0.358 OA
HETATM   22  H   UNK N   1      36.973  14.989  11.957  0.00  0.00     0.217 HD
ENDBRANCH  16  21
BRANCH  18  23
HETATM   23  C   UNK N   1      34.616  18.241   8.257  0.00  0.00     0.176 C 
HETATM   24  O   UNK N   1      34.014  18.274   7.195  0.00  0.00    -0.646 OA
BRANCH  23  25
HETATM   25  O   UNK N   1      35.337  19.312   8.645  0.00  0.00    -0.773 OA
HETATM   26  H   UNK N   1      35.629  19.384   9.532  0.00  0.00     0.167 HD
ENDBRANCH  23  25
ENDBRANCH  18  23
ENDBRANCH   1  15
TORSDOF 8
ENDMDL
MODEL 6
REMARK VINA RESULT:      -6.5     13.187     15.467
REMARK  8 active torsions:
REMARK  status: ('A' for Active; 'I' for Inactive)
REMARK    1  A    between atoms: N_1  and  S_2 
REMARK    2  A    between atoms: N_1  and  C_13 
REMARK    3  A    between atoms: S_2  and  C_5 
REMARK    4  A    between atoms: C_9  and  C_10 
REMARK    5  A    between atoms: C_10  and  O_11 
REMARK    6  A    between atoms: C_14  and  O_19 
REMARK    7  A    between atoms: C_16  and  C_20 
REMARK    8  A    between atoms: C_20  and  O_21 
ROOT
HETATM    1  N   UNK N   1      33.419  16.898   8.984  0.00  0.00    -0.278 N 
HETATM    2  H   UNK N   1      32.595  17.293   9.352  0.00  0.00     0.179 HD
ENDROOT
BRANCH   1   3
HETATM    3  S   UNK N   1      33.851  17.259   7.318  0.00  0.00     0.264 S 
HETATM    4  O   UNK N   1      34.954  16.231   7.025  0.00  0.00    -0.200 OA
HETATM    5  O   UNK N   1      34.708  18.524   7.425  0.00  0.00    -0.200 OA
BRANCH   3   6
HETATM    6  C   UNK N   1      32.660  17.229   5.956  0.00  0.00     0.104 A 
HETATM    7  C   UNK N   1      33.126  17.283   4.611  0.00  0.00     0.034 A 
HETATM    8  C   UNK N   1      32.107  17.339   3.652  0.00  0.00     0.052 A 
HETATM    9  S   UNK N   1      30.683  17.331   4.498  0.00  0.00    -0.094 SA
HETATM   10  C   UNK N   1      31.249  17.249   6.052  0.00  0.00     0.101 A 
BRANCH  10  11
HETATM   11  C   UNK N   1      30.350  17.227   7.229  0.00  0.00     0.184 C 
HETATM   12  O   UNK N   1      30.609  16.557   8.211  0.00  0.00    -0.646 OA
BRANCH  11  13
HETATM   13  O   UNK N   1      29.212  17.947   7.209  0.00  0.00    -0.772 OA
HETATM   14  H   UNK N   1      28.410  17.555   6.924  0.00  0.00     0.167 HD
ENDBRANCH  11  13
ENDBRANCH  10  11
ENDBRANCH   3   6
ENDBRANCH   1   3
BRANCH   1  15
HETATM   15  C   UNK N   1      34.203  16.066   9.822  0.00  0.00     0.075 A 
HETATM   16  C   UNK N   1      35.362  16.585  10.419  0.00  0.00     0.093 A 
HETATM   17  C   UNK N   1      36.162  15.771  11.225  0.00  0.00     0.057 A 
HETATM   18  C   UNK N   1      35.809  14.436  11.457  0.00  0.00     0.040 A 
HETATM   19  C   UNK N   1      34.646  13.920  10.867  0.00  0.00     0.021 A 
HETATM   20  C   UNK N   1      33.852  14.728  10.046  0.00  0.00     0.034 A 
BRANCH  16  21
HETATM   21  O   UNK N   1      35.728  17.860  10.198  0.00  0.00    -0.358 OA
HETATM   22  H   UNK N   1      36.493  18.054   9.693  0.00  0.00     0.217 HD
ENDBRANCH  16  21
BRANCH  18  23
HETATM   23  C   UNK N   1      36.667  13.585  12.307  0.00  0.00     0.176 C 
HETATM   24  O   UNK N   1      37.104  12.527  11.880  0.00  0.00    -0.646 OA
BRANCH  23  25
HETATM   25  O   UNK N   1      36.979  13.973  13.560  0.00  0.00    -0.773 OA
HETATM   26  H   UNK N   1      36.337  14.402  14.091  0.00  0.00     0.167 HD
ENDBRANCH  23  25
ENDBRANCH  18  23
ENDBRANCH   1  15
TORSDOF 8
ENDMDL
MODEL 7
REMARK VINA RESULT:      -6.5     12.640     14.126
REMARK  8 active torsions:
REMARK  status: ('A' for Active; 'I' for Inactive)
REMARK    1  A    between atoms: N_1  and  S_2 
REMARK    2  A    between atoms: N_1  and  C_13 
REMARK    3  A    between atoms: S_2  and  C_5 
REMARK    4  A    between atoms: C_9  and  C_10 
REMARK    5  A    between atoms: C_10  and  O_11 
REMARK    6  A    between atoms: C_14  and  O_19 
REMARK    7  A    between atoms: C_16  and  C_20 
REMARK    8  A    between atoms: C_20  and  O_21 
ROOT
HETATM    1  N   UNK N   1      34.093  17.168   9.555  0.00  0.00    -0.278 N 
HETATM    2  H   UNK N   1      34.003  17.923  10.180  0.00  0.00     0.179 HD
ENDROOT
BRANCH   1   3
HETATM    3  S   UNK N   1      35.092  15.800  10.027  0.00  0.00     0.264 S 
HETATM    4  O   UNK N   1      34.381  15.282  11.286  0.00  0.00    -0.200 OA
HETATM    5  O   UNK N   1      36.318  16.447  10.679  0.00  0.00    -0.200 OA
BRANCH   3   6
HETATM    6  C   UNK N   1      35.430  14.395   8.938  0.00  0.00     0.104 A 
HETATM    7  C   UNK N   1      36.776  14.045   8.636  0.00  0.00     0.034 A 
HETATM    8  C   UNK N   1      36.906  12.997   7.716  0.00  0.00     0.052 A 
HETATM    9  S   UNK N   1      35.363  12.555   7.308  0.00  0.00    -0.094 SA
HETATM   10  C   UNK N   1      34.485  13.609   8.237  0.00  0.00     0.101 A 
BRANCH  10  11
HETATM   11  C   UNK N   1      33.004  13.638   8.230  0.00  0.00     0.184 C 
HETATM   12  O   UNK N   1      32.376  13.620   7.189  0.00  0.00    -0.646 OA
BRANCH  11  13
HETATM   13  O   UNK N   1      32.336  13.704   9.398  0.00  0.00    -0.772 OA
HETATM   14  H   UNK N   1      31.567  14.233   9.472  0.00  0.00     0.167 HD
ENDBRANCH  11  13
ENDBRANCH  10  11
ENDBRANCH   3   6
ENDBRANCH   1   3
BRANCH   1  15
HETATM   15  C   UNK N   1      33.411  17.233   8.314  0.00  0.00     0.075 A 
HETATM   16  C   UNK N   1      32.025  17.011   8.276  0.00  0.00     0.093 A 
HETATM   17  C   UNK N   1      31.341  17.043   7.058  0.00  0.00     0.057 A 
HETATM   18  C   UNK N   1      32.026  17.310   5.866  0.00  0.00     0.040 A 
HETATM   19  C   UNK N   1      33.410  17.540   5.905  0.00  0.00     0.021 A 
HETATM   20  C   UNK N   1      34.100  17.492   7.121  0.00  0.00     0.034 A 
BRANCH  16  21
HETATM   21  O   UNK N   1      31.350  16.737   9.406  0.00  0.00    -0.358 OA
HETATM   22  H   UNK N   1      30.433  16.548   9.378  0.00  0.00     0.217 HD
ENDBRANCH  16  21
BRANCH  18  23
HETATM   23  C   UNK N   1      31.291  17.336   4.585  0.00  0.00     0.176 C 
HETATM   24  O   UNK N   1      30.123  16.981   4.537  0.00  0.00    -0.646 OA
BRANCH  23  25
HETATM   25  O   UNK N   1      31.903  17.757   3.460  0.00  0.00    -0.773 OA
HETATM   26  H   UNK N   1      31.439  18.292   2.847  0.00  0.00     0.167 HD
ENDBRANCH  23  25
ENDBRANCH  18  23
ENDBRANCH   1  15
TORSDOF 8
ENDMDL
MODEL 8
REMARK VINA RESULT:      -6.4     13.587     15.048
REMARK  8 active torsions:
REMARK  status: ('A' for Active; 'I' for Inactive)
REMARK    1  A    between atoms: N_1  and  S_2 
REMARK    2  A    between atoms: N_1  and  C_13 
REMARK    3  A    between atoms: S_2  and  C_5 
REMARK    4  A    between atoms: C_9  and  C_10 
REMARK    5  A    between atoms: C_10  and  O_11 
REMARK    6  A    between atoms: C_14  and  O_19 
REMARK    7  A    between atoms: C_16  and  C_20 
REMARK    8  A    between atoms: C_20  and  O_21 
ROOT
HETATM    1  N   UNK N   1      33.920  17.036   9.724  0.00  0.00    -0.278 N 
HETATM    2  H   UNK N   1      33.580  17.642  10.421  0.00  0.00     0.179 HD
ENDROOT
BRANCH   1   3
HETATM    3  S   UNK N   1      35.144  15.852  10.166  0.00  0.00     0.264 S 
HETATM    4  O   UNK N   1      34.633  15.325  11.514  0.00  0.00    -0.200 OA
HETATM    5  O   UNK N   1      36.319  16.703  10.658  0.00  0.00    -0.200 OA
BRANCH   3   6
HETATM    6  C   UNK N   1      35.579  14.439   9.122  0.00  0.00     0.104 A 
HETATM    7  C   UNK N   1      34.634  13.941   8.181  0.00  0.00     0.034 A 
HETATM    8  C   UNK N   1      35.055  12.795   7.495  0.00  0.00     0.052 A 
HETATM    9  S   UNK N   1      36.562  12.440   8.082  0.00  0.00    -0.094 SA
HETATM   10  C   UNK N   1      36.762  13.665   9.179  0.00  0.00     0.101 A 
BRANCH  10  11
HETATM   11  C   UNK N   1      37.979  13.802  10.011  0.00  0.00     0.184 C 
HETATM   12  O   UNK N   1      38.362  12.896  10.726  0.00  0.00    -0.646 OA
BRANCH  11  13
HETATM   13  O   UNK N   1      38.669  14.959   9.993  0.00  0.00    -0.772 OA
HETATM   14  H   UNK N   1      39.551  14.978   9.677  0.00  0.00     0.167 HD
ENDBRANCH  11  13
ENDBRANCH  10  11
ENDBRANCH   3   6
ENDBRANCH   1   3
BRANCH   1  15
HETATM   15  C   UNK N   1      33.400  17.155   8.411  0.00  0.00     0.075 A 
HETATM   16  C   UNK N   1      32.034  16.927   8.186  0.00  0.00     0.093 A 
HETATM   17  C   UNK N   1      31.510  17.013   6.894  0.00  0.00     0.057 A 
HETATM   18  C   UNK N   1      32.338  17.340   5.813  0.00  0.00     0.040 A 
HETATM   19  C   UNK N   1      33.702  17.576   6.039  0.00  0.00     0.021 A 
HETATM   20  C   UNK N   1      34.233  17.475   7.329  0.00  0.00     0.034 A 
BRANCH  16  21
HETATM   21  O   UNK N   1      31.224  16.596   9.207  0.00  0.00    -0.358 OA
HETATM   22  H   UNK N   1      31.521  16.671  10.093  0.00  0.00     0.217 HD
ENDBRANCH  16  21
BRANCH  18  23
HETATM   23  C   UNK N   1      31.772  17.422   4.451  0.00  0.00     0.176 C 
HETATM   24  O   UNK N   1      32.391  16.976   3.497  0.00  0.00    -0.646 OA
BRANCH  23  25
HETATM   25  O   UNK N   1      30.563  17.985   4.251  0.00  0.00    -0.773 OA
HETATM   26  H   UNK N   1      29.982  18.117   4.975  0.00  0.00     0.167 HD
ENDBRANCH  23  25
ENDBRANCH  18  23
ENDBRANCH   1  15
TORSDOF 8
ENDMDL
MODEL 9
REMARK VINA RESULT:      -6.4     14.481     15.855
REMARK  8 active torsions:
REMARK  status: ('A' for Active; 'I' for Inactive)
REMARK    1  A    between atoms: N_1  and  S_2 
REMARK    2  A    between atoms: N_1  and  C_13 
REMARK    3  A    between atoms: S_2  and  C_5 
REMARK    4  A    between atoms: C_9  and  C_10 
REMARK    5  A    between atoms: C_10  and  O_11 
REMARK    6  A    between atoms: C_14  and  O_19 
REMARK    7  A    between atoms: C_16  and  C_20 
REMARK    8  A    between atoms: C_20  and  O_21 
ROOT
HETATM    1  N   UNK N   1      33.417  12.594   9.634  0.00  0.00    -0.278 N 
HETATM    2  H   UNK N   1      32.511  12.223   9.528  0.00  0.00     0.179 HD
ENDROOT
BRANCH   1   3
HETATM    3  S   UNK N   1      34.624  11.634  10.480  0.00  0.00     0.264 S 
HETATM    4  O   UNK N   1      35.945  12.202   9.942  0.00  0.00    -0.200 OA
HETATM    5  O   UNK N   1      34.609  10.291   9.743  0.00  0.00    -0.200 OA
BRANCH   3   6
HETATM    6  C   UNK N   1      34.730  11.540  12.284  0.00  0.00     0.104 A 
HETATM    7  C   UNK N   1      33.998  10.537  12.981  0.00  0.00     0.034 A 
HETATM    8  C   UNK N   1      34.095  10.620  14.376  0.00  0.00     0.052 A 
HETATM    9  S   UNK N   1      35.063  11.927  14.689  0.00  0.00    -0.094 SA
HETATM   10  C   UNK N   1      35.409  12.430  13.149  0.00  0.00     0.101 A 
BRANCH  10  11
HETATM   11  C   UNK N   1      36.258  13.609  12.866  0.00  0.00     0.184 C 
HETATM   12  O   UNK N   1      35.902  14.733  13.168  0.00  0.00    -0.646 OA
BRANCH  11  13
HETATM   13  O   UNK N   1      37.441  13.442  12.243  0.00  0.00    -0.772 OA
HETATM   14  H   UNK N   1      38.188  13.141  12.723  0.00  0.00     0.167 HD
ENDBRANCH  11  13
ENDBRANCH  10  11
ENDBRANCH   3   6
ENDBRANCH   1   3
BRANCH   1  15
HETATM   15  C   UNK N   1      33.689  13.878   9.099  0.00  0.00     0.075 A 
HETATM   16  C   UNK N   1      33.699  14.993   9.951  0.00  0.00     0.093 A 
HETATM   17  C   UNK N   1      33.937  16.269   9.436  0.00  0.00     0.057 A 
HETATM   18  C   UNK N   1      34.182  16.449   8.069  0.00  0.00     0.040 A 
HETATM   19  C   UNK N   1      34.179  15.333   7.218  0.00  0.00     0.021 A 
HETATM   20  C   UNK N   1      33.924  14.055   7.728  0.00  0.00     0.034 A 
BRANCH  16  21
HETATM   21  O   UNK N   1      33.452  14.846  11.265  0.00  0.00    -0.358 OA
HETATM   22  H   UNK N   1      34.047  15.190  11.902  0.00  0.00     0.217 HD
ENDBRANCH  16  21
BRANCH  18  23
HETATM   23  C   UNK N   1      34.427  17.805   7.537  0.00  0.00     0.176 C 
HETATM   24  O   UNK N   1      34.278  18.037   6.346  0.00  0.00    -0.646 OA
BRANCH  23  25
HETATM   25  O   UNK N   1      34.812  18.798   8.362  0.00  0.00    -0.773 OA
HETATM   26  H   UNK N   1      35.702  19.092   8.358  0.00  0.00     0.167 HD
ENDBRANCH  23  25
ENDBRANCH  18  23
ENDBRANCH   1  15
TORSDOF 8
ENDMDL
