MODEL 1
REMARK VINA RESULT:      -5.7      0.000      0.000
REMARK  7 active torsions:
REMARK  status: ('A' for Active; 'I' for Inactive)
REMARK    1  A    between atoms: C_2  and  C_3 
REMARK    2  A    between atoms: C_3  and  C_4 
REMARK    3  A    between atoms: C_4  and  C_5 
REMARK    4  A    between atoms: C_5  and  C_6 
REMARK    5  A    between atoms: C_6  and  C_7 
REMARK    6  A    between atoms: C_7  and  C_8 
REMARK       I    between atoms: C_8  and  N_10 
REMARK    7  A    between atoms: C_11  and  N_10 
ROOT
HETATM    1  C   UNK N   1      34.910  15.670  10.748  0.00  0.00     0.218 C 
HETATM    2  O   UNK N   1      33.775  15.247  10.913  0.00  0.00    -0.274 OA
HETATM    3  N   UNK N   1      35.171  16.589   9.784  0.00  0.00    -0.347 N 
HETATM    4  H   UNK N   1      36.103  16.878   9.651  0.00  0.00     0.163 HD
ENDROOT
BRANCH   1   5
HETATM    5  C   UNK N   1      36.031  15.225  11.647  0.00  0.00     0.103 C 
BRANCH   5   6
HETATM    6  C   UNK N   1      35.610  14.170  12.662  0.00  0.00     0.009 C 
BRANCH   6   7
HETATM    7  C   UNK N   1      36.395  14.340  13.949  0.00  0.00     0.000 C 
BRANCH   7   8
HETATM    8  C   UNK N   1      36.318  13.075  14.784  0.00  0.00     0.000 C 
BRANCH   8   9
HETATM    9  C   UNK N   1      35.065  13.071  15.643  0.00  0.00    -0.000 C 
BRANCH   9  10
HETATM   10  C   UNK N   1      35.331  12.332  16.942  0.00  0.00    -0.005 C 
HETATM   11  C   UNK N   1      35.148  13.270  18.118  0.00  0.00     0.005 C 
ENDBRANCH   9  10
ENDBRANCH   8   9
ENDBRANCH   7   8
ENDBRANCH   6   7
ENDBRANCH   5   6
ENDBRANCH   1   5
BRANCH   3  12
HETATM   12  C   UNK N   1      34.143  17.164   8.940  0.00  0.00     0.186 C 
HETATM   13  C   UNK N   1      34.694  18.261   8.121  0.00  0.00     0.281 C 
HETATM   14  O   UNK N   1      35.223  19.254   8.591  0.00  0.00    -0.263 OA
HETATM   15  O   UNK N   1      34.520  18.098   6.810  0.00  0.00    -0.320 OA
HETATM   16  C   UNK N   1      33.858  16.935   6.511  0.00  0.00     0.181 C 
HETATM   17  C   UNK N   1      33.678  16.195   7.851  0.00  0.00     0.062 C 
ENDBRANCH   3  12
TORSDOF 7
ENDMDL
MODEL 2
REMARK VINA RESULT:      -5.7     16.638     20.199
REMARK  7 active torsions:
REMARK  status: ('A' for Active; 'I' for Inactive)
REMARK    1  A    between atoms: C_2  and  C_3 
REMARK    2  A    between atoms: C_3  and  C_4 
REMARK    3  A    between atoms: C_4  and  C_5 
REMARK    4  A    between atoms: C_5  and  C_6 
REMARK    5  A    between atoms: C_6  and  C_7 
REMARK    6  A    between atoms: C_7  and  C_8 
REMARK       I    between atoms: C_8  and  N_10 
REMARK    7  A    between atoms: C_11  and  N_10 
ROOT
HETATM    1  C   UNK N   1      28.207  24.453  -3.919  0.00  0.00     0.218 C 
HETATM    2  O   UNK N   1      28.668  25.572  -3.743  0.00  0.00    -0.274 OA
HETATM    3  N   UNK N   1      29.017  23.363  -3.903  0.00  0.00    -0.347 N 
HETATM    4  H   UNK N   1      28.620  22.482  -4.089  0.00  0.00     0.163 HD
ENDROOT
BRANCH   1   5
HETATM    5  C   UNK N   1      26.728  24.254  -4.101  0.00  0.00     0.103 C 
BRANCH   5   6
HETATM    6  C   UNK N   1      26.322  24.024  -5.551  0.00  0.00     0.009 C 
BRANCH   6   7
HETATM    7  C   UNK N   1      25.501  25.196  -6.056  0.00  0.00     0.000 C 
BRANCH   7   8
HETATM    8  C   UNK N   1      26.399  26.217  -6.731  0.00  0.00     0.000 C 
BRANCH   8   9
HETATM    9  C   UNK N   1      26.416  27.520  -5.950  0.00  0.00    -0.000 C 
BRANCH   9  10
HETATM   10  C   UNK N   1      25.240  27.564  -4.992  0.00  0.00    -0.005 C 
HETATM   11  C   UNK N   1      25.720  27.905  -3.596  0.00  0.00     0.005 C 
ENDBRANCH   9  10
ENDBRANCH   8   9
ENDBRANCH   7   8
ENDBRANCH   6   7
ENDBRANCH   5   6
ENDBRANCH   1   5
BRANCH   3  12
HETATM   12  C   UNK N   1      30.437  23.437  -3.625  0.00  0.00     0.186 C 
HETATM   13  C   UNK N   1      30.749  22.801  -2.331  0.00  0.00     0.281 C 
HETATM   14  O   UNK N   1      30.263  23.156  -1.270  0.00  0.00    -0.263 OA
HETATM   15  O   UNK N   1      31.654  21.826  -2.410  0.00  0.00    -0.320 OA
HETATM   16  C   UNK N   1      32.101  21.631  -3.691  0.00  0.00     0.181 C 
HETATM   17  C   UNK N   1      31.260  22.569  -4.580  0.00  0.00     0.062 C 
ENDBRANCH   3  12
TORSDOF 7
ENDMDL
MODEL 3
REMARK VINA RESULT:      -5.5      3.315      4.407
REMARK  7 active torsions:
REMARK  status: ('A' for Active; 'I' for Inactive)
REMARK    1  A    between atoms: C_2  and  C_3 
REMARK    2  A    between atoms: C_3  and  C_4 
REMARK    3  A    between atoms: C_4  and  C_5 
REMARK    4  A    between atoms: C_5  and  C_6 
REMARK    5  A    between atoms: C_6  and  C_7 
REMARK    6  A    between atoms: C_7  and  C_8 
REMARK       I    between atoms: C_8  and  N_10 
REMARK    7  A    between atoms: C_11  and  N_10 
ROOT
HETATM    1  C   UNK N   1      36.049  13.805  13.343  0.00  0.00     0.218 C 
HETATM    2  O   UNK N   1      34.894  13.780  12.941  0.00  0.00    -0.274 OA
HETATM    3  N   UNK N   1      37.085  13.663  12.477  0.00  0.00    -0.347 N 
HETATM    4  H   UNK N   1      38.000  13.646  12.840  0.00  0.00     0.163 HD
ENDROOT
BRANCH   1   5
HETATM    5  C   UNK N   1      36.348  14.049  14.797  0.00  0.00     0.103 C 
BRANCH   5   6
HETATM    6  C   UNK N   1      36.431  12.771  15.621  0.00  0.00     0.009 C 
BRANCH   6   7
HETATM    7  C   UNK N   1      35.156  12.581  16.421  0.00  0.00     0.000 C 
BRANCH   7   8
HETATM    8  C   UNK N   1      34.983  11.120  16.796  0.00  0.00     0.000 C 
BRANCH   8   9
HETATM    9  C   UNK N   1      34.841  10.257  15.554  0.00  0.00    -0.000 C 
BRANCH   9  10
HETATM   10  C   UNK N   1      33.657  10.729  14.729  0.00  0.00    -0.005 C 
HETATM   11  C   UNK N   1      33.897  10.434  13.263  0.00  0.00     0.005 C 
ENDBRANCH   9  10
ENDBRANCH   8   9
ENDBRANCH   7   8
ENDBRANCH   6   7
ENDBRANCH   5   6
ENDBRANCH   1   5
BRANCH   3  12
HETATM   12  C   UNK N   1      36.907  13.534  11.045  0.00  0.00     0.186 C 
HETATM   13  C   UNK N   1      37.198  14.811  10.367  0.00  0.00     0.281 C 
HETATM   14  O   UNK N   1      36.608  15.851  10.604  0.00  0.00    -0.263 OA
HETATM   15  O   UNK N   1      38.138  14.723   9.426  0.00  0.00    -0.320 OA
HETATM   16  C   UNK N   1      38.629  13.450   9.294  0.00  0.00     0.181 C 
HETATM   17  C   UNK N   1      37.960  12.622  10.410  0.00  0.00     0.062 C 
ENDBRANCH   3  12
TORSDOF 7
ENDMDL
MODEL 4
REMARK VINA RESULT:      -5.5      4.275      8.720
REMARK  7 active torsions:
REMARK  status: ('A' for Active; 'I' for Inactive)
REMARK    1  A    between atoms: C_2  and  C_3 
REMARK    2  A    between atoms: C_3  and  C_4 
REMARK    3  A    between atoms: C_4  and  C_5 
REMARK    4  A    between atoms: C_5  and  C_6 
REMARK    5  A    between atoms: C_6  and  C_7 
REMARK    6  A    between atoms: C_7  and  C_8 
REMARK       I    between atoms: C_8  and  N_10 
REMARK    7  A    between atoms: C_11  and  N_10 
ROOT
HETATM    1  C   UNK N   1      31.609  16.758   7.296  0.00  0.00     0.218 C 
HETATM    2  O   UNK N   1      32.066  16.163   6.330  0.00  0.00    -0.274 OA
HETATM    3  N   UNK N   1      32.374  16.977   8.396  0.00  0.00    -0.347 N 
HETATM    4  H   UNK N   1      31.962  17.422   9.172  0.00  0.00     0.163 HD
ENDROOT
BRANCH   1   5
HETATM    5  C   UNK N   1      30.210  17.308   7.265  0.00  0.00     0.103 C 
BRANCH   5   6
HETATM    6  C   UNK N   1      29.759  17.892   8.597  0.00  0.00     0.009 C 
BRANCH   6   7
HETATM    7  C   UNK N   1      28.410  18.569   8.441  0.00  0.00     0.000 C 
BRANCH   7   8
HETATM    8  C   UNK N   1      28.188  18.973   6.995  0.00  0.00     0.000 C 
BRANCH   8   9
HETATM    9  C   UNK N   1      27.377  20.255   6.912  0.00  0.00    -0.000 C 
BRANCH   9  10
HETATM   10  C   UNK N   1      27.427  20.808   5.499  0.00  0.00    -0.005 C 
HETATM   11  C   UNK N   1      28.054  19.791   4.567  0.00  0.00     0.005 C 
ENDBRANCH   9  10
ENDBRANCH   8   9
ENDBRANCH   7   8
ENDBRANCH   6   7
ENDBRANCH   5   6
ENDBRANCH   1   5
BRANCH   3  12
HETATM   12  C   UNK N   1      33.767  16.586   8.482  0.00  0.00     0.186 C 
HETATM   13  C   UNK N   1      34.625  17.764   8.709  0.00  0.00     0.281 C 
HETATM   14  O   UNK N   1      34.675  18.719   7.952  0.00  0.00    -0.263 OA
HETATM   15  O   UNK N   1      35.389  17.676   9.798  0.00  0.00    -0.320 OA
HETATM   16  C   UNK N   1      35.206  16.496  10.471  0.00  0.00     0.181 C 
HETATM   17  C   UNK N   1      34.062  15.766   9.741  0.00  0.00     0.062 C 
ENDBRANCH   3  12
TORSDOF 7
ENDMDL
MODEL 5
REMARK VINA RESULT:      -5.4     17.171     19.476
REMARK  7 active torsions:
REMARK  status: ('A' for Active; 'I' for Inactive)
REMARK    1  A    between atoms: C_2  and  C_3 
REMARK    2  A    between atoms: C_3  and  C_4 
REMARK    3  A    between atoms: C_4  and  C_5 
REMARK    4  A    between atoms: C_5  and  C_6 
REMARK    5  A    between atoms: C_6  and  C_7 
REMARK    6  A    between atoms: C_7  and  C_8 
REMARK       I    between atoms: C_8  and  N_10 
REMARK    7  A    between atoms: C_11  and  N_10 
ROOT
HETATM    1  C   UNK N   1      27.860  24.312  -3.356  0.00  0.00     0.218 C 
HETATM    2  O   UNK N   1      27.138  23.752  -2.543  0.00  0.00    -0.274 OA
HETATM    3  N   UNK N   1      27.357  25.257  -4.190  0.00  0.00    -0.347 N 
HETATM    4  H   UNK N   1      27.956  25.658  -4.861  0.00  0.00     0.163 HD
ENDROOT
BRANCH   1   5
HETATM    5  C   UNK N   1      29.332  24.007  -3.411  0.00  0.00     0.103 C 
BRANCH   5   6
HETATM    6  C   UNK N   1      29.814  23.140  -2.255  0.00  0.00     0.009 C 
BRANCH   6   7
HETATM    7  C   UNK N   1      30.918  22.211  -2.724  0.00  0.00     0.000 C 
BRANCH   7   8
HETATM    8  C   UNK N   1      30.355  21.150  -3.652  0.00  0.00     0.000 C 
BRANCH   8   9
HETATM    9  C   UNK N   1      31.470  20.454  -4.414  0.00  0.00    -0.000 C 
BRANCH   9  10
HETATM   10  C   UNK N   1      31.160  20.455  -5.900  0.00  0.00    -0.005 C 
HETATM   11  C   UNK N   1      29.824  21.125  -6.150  0.00  0.00     0.005 C 
ENDBRANCH   9  10
ENDBRANCH   8   9
ENDBRANCH   7   8
ENDBRANCH   6   7
ENDBRANCH   5   6
ENDBRANCH   1   5
BRANCH   3  12
HETATM   12  C   UNK N   1      25.978  25.702  -4.142  0.00  0.00     0.186 C 
HETATM   13  C   UNK N   1      25.900  27.108  -3.702  0.00  0.00     0.281 C 
HETATM   14  O   UNK N   1      26.334  27.507  -2.636  0.00  0.00    -0.263 OA
HETATM   15  O   UNK N   1      25.263  27.908  -4.558  0.00  0.00    -0.320 OA
HETATM   16  C   UNK N   1      24.815  27.237  -5.666  0.00  0.00     0.181 C 
HETATM   17  C   UNK N   1      25.350  25.798  -5.534  0.00  0.00     0.062 C 
ENDBRANCH   3  12
TORSDOF 7
ENDMDL
MODEL 6
REMARK VINA RESULT:      -5.4      1.447      1.797
REMARK  7 active torsions:
REMARK  status: ('A' for Active; 'I' for Inactive)
REMARK    1  A    between atoms: C_2  and  C_3 
REMARK    2  A    between atoms: C_3  and  C_4 
REMARK    3  A    between atoms: C_4  and  C_5 
REMARK    4  A    between atoms: C_5  and  C_6 
REMARK    5  A    between atoms: C_6  and  C_7 
REMARK    6  A    between atoms: C_7  and  C_8 
REMARK       I    between atoms: C_8  and  N_10 
REMARK    7  A    between atoms: C_11  and  N_10 
ROOT
HETATM    1  C   UNK N   1      34.924  16.563   9.969  0.00  0.00     0.218 C 
HETATM    2  O   UNK N   1      35.356  17.691  10.160  0.00  0.00    -0.274 OA
HETATM    3  N   UNK N   1      33.792  16.371   9.243  0.00  0.00    -0.347 N 
HETATM    4  H   UNK N   1      33.449  15.454   9.144  0.00  0.00     0.163 HD
ENDROOT
BRANCH   1   5
HETATM    5  C   UNK N   1      35.666  15.362  10.485  0.00  0.00     0.103 C 
BRANCH   5   6
HETATM    6  C   UNK N   1      35.977  15.436  11.974  0.00  0.00     0.009 C 
BRANCH   6   7
HETATM    7  C   UNK N   1      36.072  14.038  12.558  0.00  0.00     0.000 C 
BRANCH   7   8
HETATM    8  C   UNK N   1      36.171  14.106  14.072  0.00  0.00     0.000 C 
BRANCH   8   9
HETATM    9  C   UNK N   1      35.316  13.028  14.717  0.00  0.00    -0.000 C 
BRANCH   9  10
HETATM   10  C   UNK N   1      35.855  12.699  16.097  0.00  0.00    -0.005 C 
HETATM   11  C   UNK N   1      34.962  13.304  17.160  0.00  0.00     0.005 C 
ENDBRANCH   9  10
ENDBRANCH   8   9
ENDBRANCH   7   8
ENDBRANCH   6   7
ENDBRANCH   5   6
ENDBRANCH   1   5
BRANCH   3  12
HETATM   12  C   UNK N   1      33.066  17.453   8.610  0.00  0.00     0.186 C 
HETATM   13  C   UNK N   1      33.432  17.563   7.185  0.00  0.00     0.281 C 
HETATM   14  O   UNK N   1      34.570  17.757   6.794  0.00  0.00    -0.263 OA
HETATM   15  O   UNK N   1      32.396  17.480   6.351  0.00  0.00    -0.320 OA
HETATM   16  C   UNK N   1      31.206  17.312   7.011  0.00  0.00     0.181 C 
HETATM   17  C   UNK N   1      31.567  17.160   8.502  0.00  0.00     0.062 C 
ENDBRANCH   3  12
TORSDOF 7
ENDMDL
MODEL 7
REMARK VINA RESULT:      -5.3     12.745     13.858
REMARK  7 active torsions:
REMARK  status: ('A' for Active; 'I' for Inactive)
REMARK    1  A    between atoms: C_2  and  C_3 
REMARK    2  A    between atoms: C_3  and  C_4 
REMARK    3  A    between atoms: C_4  and  C_5 
REMARK    4  A    between atoms: C_5  and  C_6 
REMARK    5  A    between atoms: C_6  and  C_7 
REMARK    6  A    between atoms: C_7  and  C_8 
REMARK       I    between atoms: C_8  and  N_10 
REMARK    7  A    between atoms: C_11  and  N_10 
ROOT
HETATM    1  C   UNK N   1      20.541  15.406   8.228  0.00  0.00     0.218 C 
HETATM    2  O   UNK N   1      19.328  15.541   8.147  0.00  0.00    -0.274 OA
HETATM    3  N   UNK N   1      21.358  15.922   7.275  0.00  0.00    -0.347 N 
HETATM    4  H   UNK N   1      22.326  15.760   7.349  0.00  0.00     0.163 HD
ENDROOT
BRANCH   1   5
HETATM    5  C   UNK N   1      21.157  14.717   9.414  0.00  0.00     0.103 C 
BRANCH   5   6
HETATM    6  C   UNK N   1      21.016  13.201   9.373  0.00  0.00     0.009 C 
BRANCH   6   7
HETATM    7  C   UNK N   1      22.022  12.609   8.403  0.00  0.00     0.000 C 
BRANCH   7   8
HETATM    8  C   UNK N   1      23.152  11.937   9.162  0.00  0.00     0.000 C 
BRANCH   8   9
HETATM    9  C   UNK N   1      22.707  11.550  10.562  0.00  0.00    -0.000 C 
BRANCH   9  10
HETATM   10  C   UNK N   1      23.771  11.943  11.570  0.00  0.00    -0.005 C 
HETATM   11  C   UNK N   1      23.190  11.929  12.970  0.00  0.00     0.005 C 
ENDBRANCH   9  10
ENDBRANCH   8   9
ENDBRANCH   7   8
ENDBRANCH   6   7
ENDBRANCH   5   6
ENDBRANCH   1   5
BRANCH   3  12
HETATM   12  C   UNK N   1      20.872  16.699   6.152  0.00  0.00     0.186 C 
HETATM   13  C   UNK N   1      21.245  18.118   6.300  0.00  0.00     0.281 C 
HETATM   14  O   UNK N   1      20.914  18.808   7.249  0.00  0.00    -0.263 OA
HETATM   15  O   UNK N   1      21.942  18.605   5.273  0.00  0.00    -0.320 OA
HETATM   16  C   UNK N   1      22.157  17.668   4.296  0.00  0.00     0.181 C 
HETATM   17  C   UNK N   1      21.591  16.345   4.848  0.00  0.00     0.062 C 
ENDBRANCH   3  12
TORSDOF 7
ENDMDL
MODEL 8
REMARK VINA RESULT:      -5.3      3.646      7.856
REMARK  7 active torsions:
REMARK  status: ('A' for Active; 'I' for Inactive)
REMARK    1  A    between atoms: C_2  and  C_3 
REMARK    2  A    between atoms: C_3  and  C_4 
REMARK    3  A    between atoms: C_4  and  C_5 
REMARK    4  A    between atoms: C_5  and  C_6 
REMARK    5  A    between atoms: C_6  and  C_7 
REMARK    6  A    between atoms: C_7  and  C_8 
REMARK       I    between atoms: C_8  and  N_10 
REMARK    7  A    between atoms: C_11  and  N_10 
ROOT
HETATM    1  C   UNK N   1      32.117  15.958   8.542  0.00  0.00     0.218 C 
HETATM    2  O   UNK N   1      32.369  14.982   7.849  0.00  0.00    -0.274 OA
HETATM    3  N   UNK N   1      32.998  16.383   9.483  0.00  0.00    -0.347 N 
HETATM    4  H   UNK N   1      32.745  17.146  10.051  0.00  0.00     0.163 HD
ENDROOT
BRANCH   1   5
HETATM    5  C   UNK N   1      30.851  16.742   8.328  0.00  0.00     0.103 C 
BRANCH   5   6
HETATM    6  C   UNK N   1      30.958  18.196   8.767  0.00  0.00     0.009 C 
BRANCH   6   7
HETATM    7  C   UNK N   1      29.741  18.586   9.584  0.00  0.00     0.000 C 
BRANCH   7   8
HETATM    8  C   UNK N   1      28.470  18.177   8.862  0.00  0.00     0.000 C 
BRANCH   8   9
HETATM    9  C   UNK N   1      28.215  19.080   7.667  0.00  0.00    -0.000 C 
BRANCH   9  10
HETATM   10  C   UNK N   1      27.722  18.254   6.492  0.00  0.00    -0.005 C 
HETATM   11  C   UNK N   1      28.796  18.178   5.426  0.00  0.00     0.005 C 
ENDBRANCH   9  10
ENDBRANCH   8   9
ENDBRANCH   7   8
ENDBRANCH   6   7
ENDBRANCH   5   6
ENDBRANCH   1   5
BRANCH   3  12
HETATM   12  C   UNK N   1      34.292  15.765   9.692  0.00  0.00     0.186 C 
HETATM   13  C   UNK N   1      35.198  16.681  10.410  0.00  0.00     0.281 C 
HETATM   14  O   UNK N   1      35.507  17.786   9.997  0.00  0.00    -0.263 OA
HETATM   15  O   UNK N   1      35.696  16.176  11.538  0.00  0.00    -0.320 OA
HETATM   16  C   UNK N   1      35.253  14.902  11.782  0.00  0.00     0.181 C 
HETATM   17  C   UNK N   1      34.223  14.594  10.676  0.00  0.00     0.062 C 
ENDBRANCH   3  12
TORSDOF 7
ENDMDL
MODEL 9
REMARK VINA RESULT:      -5.3      2.855      8.111
REMARK  7 active torsions:
REMARK  status: ('A' for Active; 'I' for Inactive)
REMARK    1  A    between atoms: C_2  and  C_3 
REMARK    2  A    between atoms: C_3  and  C_4 
REMARK    3  A    between atoms: C_4  and  C_5 
REMARK    4  A    between atoms: C_5  and  C_6 
REMARK    5  A    between atoms: C_6  and  C_7 
REMARK    6  A    between atoms: C_7  and  C_8 
REMARK       I    between atoms: C_8  and  N_10 
REMARK    7  A    between atoms: C_11  and  N_10 
ROOT
HETATM    1  C   UNK N   1      34.897  16.711   9.807  0.00  0.00     0.218 C 
HETATM    2  O   UNK N   1      35.617  17.584  10.272  0.00  0.00    -0.274 OA
HETATM    3  N   UNK N   1      35.113  15.405  10.108  0.00  0.00    -0.347 N 
HETATM    4  H   UNK N   1      34.540  14.726   9.683  0.00  0.00     0.163 HD
ENDROOT
BRANCH   1   5
HETATM    5  C   UNK N   1      33.723  17.070   8.938  0.00  0.00     0.103 C 
BRANCH   5   6
HETATM    6  C   UNK N   1      34.047  18.127   7.890  0.00  0.00     0.009 C 
BRANCH   6   7
HETATM    7  C   UNK N   1      33.659  17.629   6.510  0.00  0.00     0.000 C 
BRANCH   7   8
HETATM    8  C   UNK N   1      32.184  17.275   6.473  0.00  0.00     0.000 C 
BRANCH   8   9
HETATM    9  C   UNK N   1      31.694  17.151   5.040  0.00  0.00    -0.000 C 
BRANCH   9  10
HETATM   10  C   UNK N   1      32.799  17.551   4.080  0.00  0.00    -0.005 C 
HETATM   11  C   UNK N   1      32.918  16.526   2.971  0.00  0.00     0.005 C 
ENDBRANCH   9  10
ENDBRANCH   8   9
ENDBRANCH   7   8
ENDBRANCH   6   7
ENDBRANCH   5   6
ENDBRANCH   1   5
BRANCH   3  12
HETATM   12  C   UNK N   1      36.147  14.964  11.022  0.00  0.00     0.186 C 
HETATM   13  C   UNK N   1      35.660  13.854  11.863  0.00  0.00     0.281 C 
HETATM   14  O   UNK N   1      34.690  13.937  12.596  0.00  0.00    -0.263 OA
HETATM   15  O   UNK N   1      36.407  12.752  11.790  0.00  0.00    -0.320 OA
HETATM   16  C   UNK N   1      37.475  12.899  10.944  0.00  0.00     0.181 C 
HETATM   17  C   UNK N   1      37.313  14.289  10.297  0.00  0.00     0.062 C 
ENDBRANCH   3  12
TORSDOF 7
ENDMDL
