REMARK  7 active torsions:
REMARK  status: ('A' for Active; 'I' for Inactive)
REMARK    1  A    between atoms: C_2  and  C_3 
REMARK    2  A    between atoms: C_3  and  C_4 
REMARK    3  A    between atoms: C_4  and  C_5 
REMARK    4  A    between atoms: C_5  and  C_6 
REMARK    5  A    between atoms: C_6  and  C_7 
REMARK    6  A    between atoms: C_7  and  C_8 
REMARK       I    between atoms: C_8  and  N_10 
REMARK    7  A    between atoms: C_11  and  N_10 
ROOT
HETATM    1  C   UNK N   1       1.489   0.205  -0.235  0.00  0.00     0.218 C 
HETATM    2  O   UNK N   1       1.034  -0.799  -0.765  0.00  0.00    -0.274 OA
HETATM    3  N   UNK N   1       2.817   0.305   0.029  0.00  0.00    -0.347 N 
HETATM    4  H   UNK N   1       3.143   1.109   0.494  0.00  0.00     0.163 HD
ENDROOT
BRANCH   1   5
HETATM    5  C   UNK N   1       0.597   1.373   0.084  0.00  0.00     0.103 C 
BRANCH   5   6
HETATM    6  C   UNK N   1      -0.816   1.223  -0.464  0.00  0.00     0.009 C 
BRANCH   6   7
HETATM    7  C   UNK N   1      -1.790   0.954   0.668  0.00  0.00     0.000 C 
BRANCH   7   8
HETATM    8  C   UNK N   1      -2.340  -0.457   0.565  0.00  0.00     0.000 C 
BRANCH   8   9
HETATM    9  C   UNK N   1      -3.475  -0.521  -0.443  0.00  0.00    -0.000 C 
BRANCH   9  10
HETATM   10  C   UNK N   1      -4.803  -0.646   0.281  0.00  0.00    -0.005 C 
HETATM   11  C   UNK N   1      -5.581   0.649   0.164  0.00  0.00     0.005 C 
ENDBRANCH   9  10
ENDBRANCH   8   9
ENDBRANCH   7   8
ENDBRANCH   6   7
ENDBRANCH   5   6
ENDBRANCH   1   5
BRANCH   3  12
HETATM   12  C   UNK N   1       3.776  -0.717  -0.340  0.00  0.00     0.186 C 
HETATM   13  C   UNK N   1       5.139  -0.322   0.062  0.00  0.00     0.281 C 
HETATM   14  O   UNK N   1       5.689   0.695  -0.325  0.00  0.00    -0.263 OA
HETATM   15  O   UNK N   1       5.747  -1.204   0.855  0.00  0.00    -0.320 OA
HETATM   16  C   UNK N   1       4.962  -2.296   1.121  0.00  0.00     0.181 C 
HETATM   17  C   UNK N   1       3.595  -2.002   0.472  0.00  0.00     0.062 C 
ENDBRANCH   3  12
TORSDOF 7
