MODEL 1
REMARK VINA RESULT:      -7.8      0.000      0.000
REMARK  4 active torsions:
REMARK  status: ('A' for Active; 'I' for Inactive)
REMARK    1  A    between atoms: C_3  and  C_20 
REMARK    2  A    between atoms: C_12  and  C_21 
REMARK       I    between atoms: C_20  and  N_22 
REMARK       I    between atoms: C_21  and  N_23 
REMARK    3  A    between atoms: N_22  and  N_23 
REMARK    4  A    between atoms: N_22  and  C_26 
ROOT
HETATM    1  C   UNK N   1      34.553  10.915  13.679  0.00  0.00     0.273 C 
HETATM    2  N   UNK N   1      35.066  12.188  13.473  0.00  0.00    -0.245 N 
HETATM    3  O   UNK N   1      33.713  10.510  12.882  0.00  0.00    -0.266 OA
ENDROOT
BRANCH   2   4
HETATM    4  N   UNK N   1      34.546  12.868  12.383  0.00  0.00    -0.260 N 
HETATM    5  C   UNK N   1      35.146  13.050  11.177  0.00  0.00     0.270 C 
HETATM    6  O   UNK N   1      36.203  12.493  10.910  0.00  0.00    -0.266 OA
HETATM    7  H   UNK N   1      33.649  13.258  12.493  0.00  0.00     0.190 HD
BRANCH   5   8
HETATM    8  C   UNK N   1      34.546  14.011  10.219  0.00  0.00     0.042 A 
HETATM    9  C   UNK N   1      33.585  13.540   9.311  0.00  0.00     0.020 A 
HETATM   10  C   UNK N   1      33.085  14.372   8.306  0.00  0.00     0.040 A 
HETATM   11  C   UNK N   1      33.532  15.690   8.208  0.00  0.00     0.102 A 
HETATM   12  C   UNK N   1      34.445  16.196   9.141  0.00  0.00     0.109 A 
HETATM   13  O   UNK N   1      33.098  16.489   7.206  0.00  0.00    -0.346 OA
HETATM   14  C   UNK N   1      34.966  15.367  10.142  0.00  0.00    -0.010 A 
HETATM   15  O   UNK N   1      34.823  17.496   9.056  0.00  0.00    -0.346 OA
HETATM   16  C   UNK N   1      35.941  15.957  11.114  0.00  0.00     0.052 C 
HETATM   17  C   UNK N   1      34.181  18.390   8.217  0.00  0.00     0.202 C 
HETATM   18  C   UNK N   1      33.717  17.698   6.928  0.00  0.00     0.202 C 
ENDBRANCH   5   8
ENDBRANCH   2   4
BRANCH   2  19
HETATM   19  C   UNK N   1      35.970  12.885  14.426  0.00  0.00     0.046 C 
HETATM   20  C   UNK N   1      36.380  14.284  13.984  0.00  0.00     0.040 C 
HETATM   21  C   UNK N   1      35.261  13.166  15.744  0.00  0.00     0.040 C 
HETATM   22  C   UNK N   1      37.258  12.104  14.630  0.00  0.00     0.040 C 
ENDBRANCH   2  19
BRANCH   1  23
HETATM   23  C   UNK N   1      34.895   9.969  14.801  0.00  0.00     0.034 A 
HETATM   24  C   UNK N   1      35.691   8.849  14.496  0.00  0.00     0.024 A 
HETATM   25  C   UNK N   1      36.054   7.930  15.483  0.00  0.00    -0.061 A 
HETATM   26  C   UNK N   1      35.636   8.122  16.799  0.00  0.00     0.013 A 
HETATM   27  C   UNK N   1      36.885   6.750  15.130  0.00  0.00     0.048 C 
HETATM   28  C   UNK N   1      34.857   9.232  17.124  0.00  0.00    -0.061 A 
HETATM   29  C   UNK N   1      34.495  10.144  16.132  0.00  0.00     0.024 A 
HETATM   30  C   UNK N   1      34.414   9.450  18.524  0.00  0.00     0.048 C 
ENDBRANCH   1  23
TORSDOF 4
ENDMDL
MODEL 2
REMARK VINA RESULT:      -7.6      2.305      4.469
REMARK  4 active torsions:
REMARK  status: ('A' for Active; 'I' for Inactive)
REMARK    1  A    between atoms: C_3  and  C_20 
REMARK    2  A    between atoms: C_12  and  C_21 
REMARK       I    between atoms: C_20  and  N_22 
REMARK       I    between atoms: C_21  and  N_23 
REMARK    3  A    between atoms: N_22  and  N_23 
REMARK    4  A    between atoms: N_22  and  C_26 
ROOT
HETATM    1  C   UNK N   1      34.772  13.882  11.508  0.00  0.00     0.273 C 
HETATM    2  N   UNK N   1      35.337  13.511  10.296  0.00  0.00    -0.245 N 
HETATM    3  O   UNK N   1      33.875  14.716  11.480  0.00  0.00    -0.266 OA
ENDROOT
BRANCH   2   4
HETATM    4  N   UNK N   1      34.823  14.153   9.182  0.00  0.00    -0.260 N 
HETATM    5  C   UNK N   1      35.100  15.420   8.773  0.00  0.00     0.270 C 
HETATM    6  O   UNK N   1      35.967  16.084   9.326  0.00  0.00    -0.266 OA
HETATM    7  H   UNK N   1      34.192  13.640   8.628  0.00  0.00     0.190 HD
BRANCH   5   8
HETATM    8  C   UNK N   1      34.270  16.022   7.701  0.00  0.00     0.042 A 
HETATM    9  C   UNK N   1      33.221  16.880   8.066  0.00  0.00     0.020 A 
HETATM   10  C   UNK N   1      32.332  17.370   7.105  0.00  0.00     0.040 A 
HETATM   11  C   UNK N   1      32.493  17.018   5.766  0.00  0.00     0.102 A 
HETATM   12  C   UNK N   1      33.569  16.212   5.372  0.00  0.00     0.109 A 
HETATM   13  O   UNK N   1      31.607  17.439   4.834  0.00  0.00    -0.346 OA
HETATM   14  C   UNK N   1      34.457  15.702   6.328  0.00  0.00    -0.010 A 
HETATM   15  O   UNK N   1      33.734  15.928   4.057  0.00  0.00    -0.346 OA
HETATM   16  C   UNK N   1      35.590  14.844   5.855  0.00  0.00     0.052 C 
HETATM   17  C   UNK N   1      33.007  16.575   3.073  0.00  0.00     0.202 C 
HETATM   18  C   UNK N   1      31.587  16.895   3.559  0.00  0.00     0.202 C 
ENDBRANCH   5   8
ENDBRANCH   2   4
BRANCH   2  19
HETATM   19  C   UNK N   1      36.531  12.633  10.167  0.00  0.00     0.046 C 
HETATM   20  C   UNK N   1      36.354  11.250  10.780  0.00  0.00     0.040 C 
HETATM   21  C   UNK N   1      36.807  12.299   8.708  0.00  0.00     0.040 C 
HETATM   22  C   UNK N   1      37.741  13.253  10.846  0.00  0.00     0.040 C 
ENDBRANCH   2  19
BRANCH   1  23
HETATM   23  C   UNK N   1      35.158  13.387  12.878  0.00  0.00     0.034 A 
HETATM   24  C   UNK N   1      35.986  14.210  13.665  0.00  0.00     0.024 A 
HETATM   25  C   UNK N   1      36.382  13.823  14.947  0.00  0.00    -0.061 A 
HETATM   26  C   UNK N   1      35.946  12.607  15.472  0.00  0.00     0.013 A 
HETATM   27  C   UNK N   1      37.265  14.707  15.751  0.00  0.00     0.048 C 
HETATM   28  C   UNK N   1      35.116  11.782  14.713  0.00  0.00    -0.061 A 
HETATM   29  C   UNK N   1      34.727  12.175  13.431  0.00  0.00     0.024 A 
HETATM   30  C   UNK N   1      34.640  10.489  15.266  0.00  0.00     0.048 C 
ENDBRANCH   1  23
TORSDOF 4
ENDMDL
MODEL 3
REMARK VINA RESULT:      -7.5      9.314     13.723
REMARK  4 active torsions:
REMARK  status: ('A' for Active; 'I' for Inactive)
REMARK    1  A    between atoms: C_3  and  C_20 
REMARK    2  A    between atoms: C_12  and  C_21 
REMARK       I    between atoms: C_20  and  N_22 
REMARK       I    between atoms: C_21  and  N_23 
REMARK    3  A    between atoms: N_22  and  N_23 
REMARK    4  A    between atoms: N_22  and  C_26 
ROOT
HETATM    1  C   UNK N   1      27.880  16.901   5.610  0.00  0.00     0.273 C 
HETATM    2  N   UNK N   1      26.959  17.929   5.472  0.00  0.00    -0.245 N 
HETATM    3  O   UNK N   1      27.454  15.752   5.561  0.00  0.00    -0.266 OA
ENDROOT
BRANCH   2   4
HETATM    4  N   UNK N   1      25.642  17.528   5.312  0.00  0.00    -0.260 N 
HETATM    5  C   UNK N   1      24.977  17.372   4.137  0.00  0.00     0.270 C 
HETATM    6  O   UNK N   1      25.563  17.464   3.066  0.00  0.00    -0.266 OA
HETATM    7  H   UNK N   1      25.136  17.336   6.134  0.00  0.00     0.190 HD
BRANCH   5   8
HETATM    8  C   UNK N   1      23.507  17.176   4.169  0.00  0.00     0.042 A 
HETATM    9  C   UNK N   1      22.682  18.308   4.252  0.00  0.00     0.020 A 
HETATM   10  C   UNK N   1      21.300  18.174   4.414  0.00  0.00     0.040 A 
HETATM   11  C   UNK N   1      20.729  16.904   4.480  0.00  0.00     0.102 A 
HETATM   12  C   UNK N   1      21.527  15.762   4.338  0.00  0.00     0.109 A 
HETATM   13  O   UNK N   1      19.400  16.759   4.693  0.00  0.00    -0.346 OA
HETATM   14  C   UNK N   1      22.915  15.884   4.192  0.00  0.00    -0.010 A 
HETATM   15  O   UNK N   1      20.940  14.539   4.352  0.00  0.00    -0.346 OA
HETATM   16  C   UNK N   1      23.724  14.632   4.046  0.00  0.00     0.052 C 
HETATM   17  C   UNK N   1      19.566  14.389   4.288  0.00  0.00     0.202 C 
HETATM   18  C   UNK N   1      18.852  15.529   5.026  0.00  0.00     0.202 C 
ENDBRANCH   5   8
ENDBRANCH   2   4
BRANCH   2  19
HETATM   19  C   UNK N   1      27.283  19.368   5.660  0.00  0.00     0.046 C 
HETATM   20  C   UNK N   1      26.068  20.287   5.652  0.00  0.00     0.040 C 
HETATM   21  C   UNK N   1      27.860  19.620   7.047  0.00  0.00     0.040 C 
HETATM   22  C   UNK N   1      28.208  19.869   4.562  0.00  0.00     0.040 C 
ENDBRANCH   2  19
BRANCH   1  23
HETATM   23  C   UNK N   1      29.363  17.035   5.840  0.00  0.00     0.034 A 
HETATM   24  C   UNK N   1      30.196  17.148   4.711  0.00  0.00     0.024 A 
HETATM   25  C   UNK N   1      31.580  17.282   4.844  0.00  0.00    -0.061 A 
HETATM   26  C   UNK N   1      32.157  17.316   6.114  0.00  0.00     0.013 A 
HETATM   27  C   UNK N   1      32.437  17.386   3.635  0.00  0.00     0.048 C 
HETATM   28  C   UNK N   1      31.347  17.218   7.245  0.00  0.00    -0.061 A 
HETATM   29  C   UNK N   1      29.965  17.082   7.104  0.00  0.00     0.024 A 
HETATM   30  C   UNK N   1      31.950  17.263   8.601  0.00  0.00     0.048 C 
ENDBRANCH   1  23
TORSDOF 4
ENDMDL
MODEL 4
REMARK VINA RESULT:      -7.3      9.312     13.615
REMARK  4 active torsions:
REMARK  status: ('A' for Active; 'I' for Inactive)
REMARK    1  A    between atoms: C_3  and  C_20 
REMARK    2  A    between atoms: C_12  and  C_21 
REMARK       I    between atoms: C_20  and  N_22 
REMARK       I    between atoms: C_21  and  N_23 
REMARK    3  A    between atoms: N_22  and  N_23 
REMARK    4  A    between atoms: N_22  and  C_26 
ROOT
HETATM    1  C   UNK N   1      28.057  17.038   5.596  0.00  0.00     0.273 C 
HETATM    2  N   UNK N   1      27.221  18.146   5.580  0.00  0.00    -0.245 N 
HETATM    3  O   UNK N   1      27.551  15.946   5.357  0.00  0.00    -0.266 OA
ENDROOT
BRANCH   2   4
HETATM    4  N   UNK N   1      25.889  17.879   5.311  0.00  0.00    -0.260 N 
HETATM    5  C   UNK N   1      25.317  17.749   4.084  0.00  0.00     0.270 C 
HETATM    6  O   UNK N   1      26.001  17.739   3.070  0.00  0.00    -0.266 OA
HETATM    7  H   UNK N   1      25.294  17.772   6.088  0.00  0.00     0.190 HD
BRANCH   5   8
HETATM    8  C   UNK N   1      23.837  17.710   3.987  0.00  0.00     0.042 A 
HETATM    9  C   UNK N   1      23.177  16.507   4.284  0.00  0.00     0.020 A 
HETATM   10  C   UNK N   1      21.800  16.381   4.083  0.00  0.00     0.040 A 
HETATM   11  C   UNK N   1      21.066  17.462   3.597  0.00  0.00     0.102 A 
HETATM   12  C   UNK N   1      21.696  18.689   3.351  0.00  0.00     0.109 A 
HETATM   13  O   UNK N   1      19.743  17.336   3.345  0.00  0.00    -0.346 OA
HETATM   14  C   UNK N   1      23.078  18.823   3.533  0.00  0.00    -0.010 A 
HETATM   15  O   UNK N   1      20.951  19.740   2.929  0.00  0.00    -0.346 OA
HETATM   16  C   UNK N   1      23.703  20.155   3.255  0.00  0.00     0.052 C 
HETATM   17  C   UNK N   1      19.567  19.704   2.937  0.00  0.00     0.202 C 
HETATM   18  C   UNK N   1      19.051  18.294   2.620  0.00  0.00     0.202 C 
ENDBRANCH   5   8
ENDBRANCH   2   4
BRANCH   2  19
HETATM   19  C   UNK N   1      27.640  19.511   5.996  0.00  0.00     0.046 C 
HETATM   20  C   UNK N   1      26.483  20.473   6.227  0.00  0.00     0.040 C 
HETATM   21  C   UNK N   1      28.307  19.483   7.364  0.00  0.00     0.040 C 
HETATM   22  C   UNK N   1      28.530  20.153   4.944  0.00  0.00     0.040 C 
ENDBRANCH   2  19
BRANCH   1  23
HETATM   23  C   UNK N   1      29.533  17.018   5.900  0.00  0.00     0.034 A 
HETATM   24  C   UNK N   1      29.932  16.626   7.192  0.00  0.00     0.024 A 
HETATM   25  C   UNK N   1      31.281  16.578   7.548  0.00  0.00    -0.061 A 
HETATM   26  C   UNK N   1      32.260  16.911   6.612  0.00  0.00     0.013 A 
HETATM   27  C   UNK N   1      31.673  16.172   8.923  0.00  0.00     0.048 C 
HETATM   28  C   UNK N   1      31.886  17.290   5.323  0.00  0.00    -0.061 A 
HETATM   29  C   UNK N   1      30.535  17.339   4.976  0.00  0.00     0.024 A 
HETATM   30  C   UNK N   1      32.920  17.638   4.317  0.00  0.00     0.048 C 
ENDBRANCH   1  23
TORSDOF 4
ENDMDL
MODEL 5
REMARK VINA RESULT:      -7.3      5.876     11.852
REMARK  4 active torsions:
REMARK  status: ('A' for Active; 'I' for Inactive)
REMARK    1  A    between atoms: C_3  and  C_20 
REMARK    2  A    between atoms: C_12  and  C_21 
REMARK       I    between atoms: C_20  and  N_22 
REMARK       I    between atoms: C_21  and  N_23 
REMARK    3  A    between atoms: N_22  and  N_23 
REMARK    4  A    between atoms: N_22  and  C_26 
ROOT
HETATM    1  C   UNK N   1      28.485  17.569   5.723  0.00  0.00     0.273 C 
HETATM    2  N   UNK N   1      29.360  16.563   5.336  0.00  0.00    -0.245 N 
HETATM    3  O   UNK N   1      28.806  18.254   6.689  0.00  0.00    -0.266 OA
ENDROOT
BRANCH   2   4
HETATM    4  N   UNK N   1      30.502  16.440   6.111  0.00  0.00    -0.260 N 
HETATM    5  C   UNK N   1      31.735  16.936   5.827  0.00  0.00     0.270 C 
HETATM    6  O   UNK N   1      31.910  17.674   4.866  0.00  0.00    -0.266 OA
HETATM    7  H   UNK N   1      30.411  15.942   6.955  0.00  0.00     0.190 HD
BRANCH   5   8
HETATM    8  C   UNK N   1      32.889  16.496   6.648  0.00  0.00     0.042 A 
HETATM    9  C   UNK N   1      33.675  15.430   6.184  0.00  0.00     0.020 A 
HETATM   10  C   UNK N   1      34.692  14.895   6.979  0.00  0.00     0.040 A 
HETATM   11  C   UNK N   1      34.943  15.430   8.242  0.00  0.00     0.102 A 
HETATM   12  C   UNK N   1      34.209  16.532   8.699  0.00  0.00     0.109 A 
HETATM   13  O   UNK N   1      35.887  14.885   9.043  0.00  0.00    -0.346 OA
HETATM   14  C   UNK N   1      33.177  17.067   7.919  0.00  0.00    -0.010 A 
HETATM   15  O   UNK N   1      34.508  17.068   9.908  0.00  0.00    -0.346 OA
HETATM   16  C   UNK N   1      32.422  18.245   8.454  0.00  0.00     0.052 C 
HETATM   17  C   UNK N   1      35.644  16.701  10.609  0.00  0.00     0.202 C 
HETATM   18  C   UNK N   1      35.973  15.219  10.387  0.00  0.00     0.202 C 
ENDBRANCH   5   8
ENDBRANCH   2   4
BRANCH   2  19
HETATM   19  C   UNK N   1      29.054  15.551   4.291  0.00  0.00     0.046 C 
HETATM   20  C   UNK N   1      30.185  14.565   4.029  0.00  0.00     0.040 C 
HETATM   21  C   UNK N   1      27.929  14.628   4.739  0.00  0.00     0.040 C 
HETATM   22  C   UNK N   1      28.746  16.216   2.959  0.00  0.00     0.040 C 
ENDBRANCH   2  19
BRANCH   1  23
HETATM   23  C   UNK N   1      27.155  17.905   5.100  0.00  0.00     0.034 A 
HETATM   24  C   UNK N   1      27.090  19.028   4.255  0.00  0.00     0.024 A 
HETATM   25  C   UNK N   1      25.894  19.400   3.637  0.00  0.00    -0.061 A 
HETATM   26  C   UNK N   1      24.740  18.645   3.844  0.00  0.00     0.013 A 
HETATM   27  C   UNK N   1      25.852  20.598   2.760  0.00  0.00     0.048 C 
HETATM   28  C   UNK N   1      24.787  17.521   4.669  0.00  0.00    -0.061 A 
HETATM   29  C   UNK N   1      25.985  17.157   5.285  0.00  0.00     0.024 A 
HETATM   30  C   UNK N   1      23.566  16.705   4.889  0.00  0.00     0.048 C 
ENDBRANCH   1  23
TORSDOF 4
ENDMDL
MODEL 6
REMARK VINA RESULT:      -7.1      2.422      4.757
REMARK  4 active torsions:
REMARK  status: ('A' for Active; 'I' for Inactive)
REMARK    1  A    between atoms: C_3  and  C_20 
REMARK    2  A    between atoms: C_12  and  C_21 
REMARK       I    between atoms: C_20  and  N_22 
REMARK       I    between atoms: C_21  and  N_23 
REMARK    3  A    between atoms: N_22  and  N_23 
REMARK    4  A    between atoms: N_22  and  C_26 
ROOT
HETATM    1  C   UNK N   1      34.750  14.200  11.143  0.00  0.00     0.273 C 
HETATM    2  N   UNK N   1      35.400  14.080   9.922  0.00  0.00    -0.245 N 
HETATM    3  O   UNK N   1      33.638  14.718  11.141  0.00  0.00    -0.266 OA
ENDROOT
BRANCH   2   4
HETATM    4  N   UNK N   1      34.711  14.584   8.832  0.00  0.00    -0.260 N 
HETATM    5  C   UNK N   1      34.587  15.892   8.482  0.00  0.00     0.270 C 
HETATM    6  O   UNK N   1      35.210  16.763   9.075  0.00  0.00    -0.266 OA
HETATM    7  H   UNK N   1      34.266  13.929   8.248  0.00  0.00     0.190 HD
BRANCH   5   8
HETATM    8  C   UNK N   1      33.610  16.261   7.428  0.00  0.00     0.042 A 
HETATM    9  C   UNK N   1      34.096  16.651   6.170  0.00  0.00     0.020 A 
HETATM   10  C   UNK N   1      33.227  17.129   5.187  0.00  0.00     0.040 A 
HETATM   11  C   UNK N   1      31.860  17.208   5.446  0.00  0.00     0.102 A 
HETATM   12  C   UNK N   1      31.347  16.767   6.673  0.00  0.00     0.109 A 
HETATM   13  O   UNK N   1      31.014  17.722   4.523  0.00  0.00    -0.346 OA
HETATM   14  C   UNK N   1      32.210  16.301   7.672  0.00  0.00    -0.010 A 
HETATM   15  O   UNK N   1      30.008  16.805   6.881  0.00  0.00    -0.346 OA
HETATM   16  C   UNK N   1      31.612  15.843   8.967  0.00  0.00     0.052 C 
HETATM   17  C   UNK N   1      29.116  17.062   5.853  0.00  0.00     0.202 C 
HETATM   18  C   UNK N   1      29.708  18.058   4.847  0.00  0.00     0.202 C 
ENDBRANCH   5   8
ENDBRANCH   2   4
BRANCH   2  19
HETATM   19  C   UNK N   1      36.806  13.620   9.770  0.00  0.00     0.046 C 
HETATM   20  C   UNK N   1      37.118  12.321  10.503  0.00  0.00     0.040 C 
HETATM   21  C   UNK N   1      37.104  13.246   8.325  0.00  0.00     0.040 C 
HETATM   22  C   UNK N   1      37.781  14.658  10.301  0.00  0.00     0.040 C 
ENDBRANCH   2  19
BRANCH   1  23
HETATM   23  C   UNK N   1      35.271  13.784  12.494  0.00  0.00     0.034 A 
HETATM   24  C   UNK N   1      34.993  12.476  12.931  0.00  0.00     0.024 A 
HETATM   25  C   UNK N   1      35.446  12.015  14.169  0.00  0.00    -0.061 A 
HETATM   26  C   UNK N   1      36.199  12.855  14.990  0.00  0.00     0.013 A 
HETATM   27  C   UNK N   1      35.127  10.633  14.611  0.00  0.00     0.048 C 
HETATM   28  C   UNK N   1      36.495  14.151  14.570  0.00  0.00    -0.061 A 
HETATM   29  C   UNK N   1      36.036  14.605  13.332  0.00  0.00     0.024 A 
HETATM   30  C   UNK N   1      37.303  15.050  15.433  0.00  0.00     0.048 C 
ENDBRANCH   1  23
TORSDOF 4
ENDMDL
MODEL 7
REMARK VINA RESULT:      -7.1      6.097     10.980
REMARK  4 active torsions:
REMARK  status: ('A' for Active; 'I' for Inactive)
REMARK    1  A    between atoms: C_3  and  C_20 
REMARK    2  A    between atoms: C_12  and  C_21 
REMARK       I    between atoms: C_20  and  N_22 
REMARK       I    between atoms: C_21  and  N_23 
REMARK    3  A    between atoms: N_22  and  N_23 
REMARK    4  A    between atoms: N_22  and  C_26 
ROOT
HETATM    1  C   UNK N   1      29.485  17.429   6.411  0.00  0.00     0.273 C 
HETATM    2  N   UNK N   1      29.794  17.039   7.707  0.00  0.00    -0.245 N 
HETATM    3  O   UNK N   1      30.271  17.112   5.525  0.00  0.00    -0.266 OA
ENDROOT
BRANCH   2   4
HETATM    4  N   UNK N   1      30.982  16.342   7.849  0.00  0.00    -0.260 N 
HETATM    5  C   UNK N   1      32.218  16.874   8.049  0.00  0.00     0.270 C 
HETATM    6  O   UNK N   1      32.361  18.073   8.248  0.00  0.00    -0.266 OA
HETATM    7  H   UNK N   1      30.928  15.361   7.801  0.00  0.00     0.190 HD
BRANCH   5   8
HETATM    8  C   UNK N   1      33.403  15.990   7.931  0.00  0.00     0.042 A 
HETATM    9  C   UNK N   1      33.783  15.224   9.044  0.00  0.00     0.020 A 
HETATM   10  C   UNK N   1      34.962  14.476   9.027  0.00  0.00     0.040 A 
HETATM   11  C   UNK N   1      35.768  14.475   7.889  0.00  0.00     0.102 A 
HETATM   12  C   UNK N   1      35.377  15.184   6.747  0.00  0.00     0.109 A 
HETATM   13  O   UNK N   1      36.941  13.800   7.880  0.00  0.00    -0.346 OA
HETATM   14  C   UNK N   1      34.206  15.951   6.757  0.00  0.00    -0.010 A 
HETATM   15  O   UNK N   1      36.152  15.124   5.635  0.00  0.00    -0.346 OA
HETATM   16  C   UNK N   1      33.833  16.692   5.511  0.00  0.00     0.052 C 
HETATM   17  C   UNK N   1      37.196  14.223   5.521  0.00  0.00     0.202 C 
HETATM   18  C   UNK N   1      37.878  13.996   6.876  0.00  0.00     0.202 C 
ENDBRANCH   5   8
ENDBRANCH   2   4
BRANCH   2  19
HETATM   19  C   UNK N   1      29.032  17.471   8.910  0.00  0.00     0.046 C 
HETATM   20  C   UNK N   1      29.502  16.827  10.207  0.00  0.00     0.040 C 
HETATM   21  C   UNK N   1      29.254  18.950   9.193  0.00  0.00     0.040 C 
HETATM   22  C   UNK N   1      27.556  17.135   8.773  0.00  0.00     0.040 C 
ENDBRANCH   2  19
BRANCH   1  23
HETATM   23  C   UNK N   1      28.290  18.230   5.965  0.00  0.00     0.034 A 
HETATM   24  C   UNK N   1      28.268  19.604   6.271  0.00  0.00     0.024 A 
HETATM   25  C   UNK N   1      27.197  20.414   5.886  0.00  0.00    -0.061 A 
HETATM   26  C   UNK N   1      26.130  19.865   5.175  0.00  0.00     0.013 A 
HETATM   27  C   UNK N   1      27.195  21.858   6.234  0.00  0.00     0.048 C 
HETATM   28  C   UNK N   1      26.139  18.508   4.851  0.00  0.00    -0.061 A 
HETATM   29  C   UNK N   1      27.211  17.705   5.242  0.00  0.00     0.024 A 
HETATM   30  C   UNK N   1      25.012  17.916   4.086  0.00  0.00     0.048 C 
ENDBRANCH   1  23
TORSDOF 4
ENDMDL
MODEL 8
REMARK VINA RESULT:      -6.9      8.672     13.088
REMARK  4 active torsions:
REMARK  status: ('A' for Active; 'I' for Inactive)
REMARK    1  A    between atoms: C_3  and  C_20 
REMARK    2  A    between atoms: C_12  and  C_21 
REMARK       I    between atoms: C_20  and  N_22 
REMARK       I    between atoms: C_21  and  N_23 
REMARK    3  A    between atoms: N_22  and  N_23 
REMARK    4  A    between atoms: N_22  and  C_26 
ROOT
HETATM    1  C   UNK N   1      29.458  16.892   4.436  0.00  0.00     0.273 C 
HETATM    2  N   UNK N   1      28.276  16.358   3.941  0.00  0.00    -0.245 N 
HETATM    3  O   UNK N   1      29.514  18.110   4.570  0.00  0.00    -0.266 OA
ENDROOT
BRANCH   2   4
HETATM    4  N   UNK N   1      27.291  17.282   3.635  0.00  0.00    -0.260 N 
HETATM    5  C   UNK N   1      26.347  17.775   4.480  0.00  0.00     0.270 C 
HETATM    6  O   UNK N   1      26.375  17.512   5.676  0.00  0.00    -0.266 OA
HETATM    7  H   UNK N   1      27.272  17.618   2.710  0.00  0.00     0.190 HD
BRANCH   5   8
HETATM    8  C   UNK N   1      25.226  18.566   3.917  0.00  0.00     0.042 A 
HETATM    9  C   UNK N   1      25.497  19.844   3.404  0.00  0.00     0.020 A 
HETATM   10  C   UNK N   1      24.460  20.678   2.981  0.00  0.00     0.040 A 
HETATM   11  C   UNK N   1      23.139  20.236   3.052  0.00  0.00     0.102 A 
HETATM   12  C   UNK N   1      22.852  18.942   3.504  0.00  0.00     0.109 A 
HETATM   13  O   UNK N   1      22.121  21.054   2.698  0.00  0.00    -0.346 OA
HETATM   14  C   UNK N   1      23.882  18.103   3.946  0.00  0.00    -0.010 A 
HETATM   15  O   UNK N   1      21.564  18.517   3.514  0.00  0.00    -0.346 OA
HETATM   16  C   UNK N   1      23.521  16.729   4.422  0.00  0.00     0.052 C 
HETATM   17  C   UNK N   1      20.553  19.235   2.898  0.00  0.00     0.202 C 
HETATM   18  C   UNK N   1      20.805  20.744   3.007  0.00  0.00     0.202 C 
ENDBRANCH   5   8
ENDBRANCH   2   4
BRANCH   2  19
HETATM   19  C   UNK N   1      28.098  14.927   3.576  0.00  0.00     0.046 C 
HETATM   20  C   UNK N   1      26.708  14.587   3.055  0.00  0.00     0.040 C 
HETATM   21  C   UNK N   1      28.980  14.554   2.392  0.00  0.00     0.040 C 
HETATM   22  C   UNK N   1      28.342  14.023   4.773  0.00  0.00     0.040 C 
ENDBRANCH   2  19
BRANCH   1  23
HETATM   23  C   UNK N   1      30.708  16.138   4.810  0.00  0.00     0.034 A 
HETATM   24  C   UNK N   1      31.667  15.917   3.805  0.00  0.00     0.024 A 
HETATM   25  C   UNK N   1      32.854  15.231   4.075  0.00  0.00    -0.061 A 
HETATM   26  C   UNK N   1      33.108  14.763   5.364  0.00  0.00     0.013 A 
HETATM   27  C   UNK N   1      33.843  15.001   2.992  0.00  0.00     0.048 C 
HETATM   28  C   UNK N   1      32.175  14.984   6.378  0.00  0.00    -0.061 A 
HETATM   29  C   UNK N   1      30.991  15.667   6.099  0.00  0.00     0.024 A 
HETATM   30  C   UNK N   1      32.440  14.497   7.755  0.00  0.00     0.048 C 
ENDBRANCH   1  23
TORSDOF 4
ENDMDL
MODEL 9
REMARK VINA RESULT:      -6.9      2.907      9.242
REMARK  4 active torsions:
REMARK  status: ('A' for Active; 'I' for Inactive)
REMARK    1  A    between atoms: C_3  and  C_20 
REMARK    2  A    between atoms: C_12  and  C_21 
REMARK       I    between atoms: C_20  and  N_22 
REMARK       I    between atoms: C_21  and  N_23 
REMARK    3  A    between atoms: N_22  and  N_23 
REMARK    4  A    between atoms: N_22  and  C_26 
ROOT
HETATM    1  C   UNK N   1      32.336  15.031   8.001  0.00  0.00     0.273 C 
HETATM    2  N   UNK N   1      33.116  15.989   8.634  0.00  0.00    -0.245 N 
HETATM    3  O   UNK N   1      32.257  13.928   8.532  0.00  0.00    -0.266 OA
ENDROOT
BRANCH   2   4
HETATM    4  N   UNK N   1      33.737  15.572   9.800  0.00  0.00    -0.260 N 
HETATM    5  C   UNK N   1      34.921  14.912   9.899  0.00  0.00     0.270 C 
HETATM    6  O   UNK N   1      35.625  14.731   8.913  0.00  0.00    -0.266 OA
HETATM    7  H   UNK N   1      33.274  15.775  10.644  0.00  0.00     0.190 HD
BRANCH   5   8
HETATM    8  C   UNK N   1      35.307  14.330  11.207  0.00  0.00     0.042 A 
HETATM    9  C   UNK N   1      35.839  15.181  12.189  0.00  0.00     0.020 A 
HETATM   10  C   UNK N   1      36.336  14.665  13.388  0.00  0.00     0.040 A 
HETATM   11  C   UNK N   1      36.294  13.291  13.624  0.00  0.00     0.102 A 
HETATM   12  C   UNK N   1      35.713  12.431  12.683  0.00  0.00     0.109 A 
HETATM   13  O   UNK N   1      36.823  12.772  14.756  0.00  0.00    -0.346 OA
HETATM   14  C   UNK N   1      35.226  12.935  11.471  0.00  0.00    -0.010 A 
HETATM   15  O   UNK N   1      35.636  11.106  12.959  0.00  0.00    -0.346 OA
HETATM   16  C   UNK N   1      34.617  11.973  10.498  0.00  0.00     0.052 C 
HETATM   17  C   UNK N   1      35.916  10.605  14.219  0.00  0.00     0.202 C 
HETATM   18  C   UNK N   1      37.035  11.409  14.895  0.00  0.00     0.202 C 
ENDBRANCH   5   8
ENDBRANCH   2   4
BRANCH   2  19
HETATM   19  C   UNK N   1      33.440  17.317   8.049  0.00  0.00     0.046 C 
HETATM   20  C   UNK N   1      34.646  17.998   8.682  0.00  0.00     0.040 C 
HETATM   21  C   UNK N   1      33.879  17.181   6.598  0.00  0.00     0.040 C 
HETATM   22  C   UNK N   1      32.274  18.281   8.200  0.00  0.00     0.040 C 
ENDBRANCH   2  19
BRANCH   1  23
HETATM   23  C   UNK N   1      31.584  15.184   6.704  0.00  0.00     0.034 A 
HETATM   24  C   UNK N   1      32.041  14.457   5.590  0.00  0.00     0.024 A 
HETATM   25  C   UNK N   1      31.394  14.543   4.355  0.00  0.00    -0.061 A 
HETATM   26  C   UNK N   1      30.266  15.352   4.216  0.00  0.00     0.013 A 
HETATM   27  C   UNK N   1      31.906  13.773   3.192  0.00  0.00     0.048 C 
HETATM   28  C   UNK N   1      29.790  16.071   5.312  0.00  0.00    -0.061 A 
HETATM   29  C   UNK N   1      30.444  15.982   6.541  0.00  0.00     0.024 A 
HETATM   30  C   UNK N   1      28.585  16.928   5.176  0.00  0.00     0.048 C 
ENDBRANCH   1  23
TORSDOF 4
ENDMDL
