REMARK  8 active torsions:
REMARK  status: ('A' for Active; 'I' for Inactive)
REMARK    1  A    between atoms: C_3  and  O_4 
REMARK    2  A    between atoms: C_8  and  C_7 
REMARK    3  A    between atoms: C_12  and  C_11 
REMARK    4  A    between atoms: C_12  and  O_13 
REMARK    5  A    between atoms: C_17  and  C_16 
REMARK    6  A    between atoms: C_17  and  O_18 
REMARK    7  A    between atoms: C_22  and  C_23 
REMARK    8  A    between atoms: C_26  and  O_27 
ROOT
HETATM    1  C   UNK N   1      -0.163   0.792  -0.286  0.00  0.00    -0.004 C 
HETATM    2  C   UNK N   1       1.202   1.143  -0.852  0.00  0.00     0.197 C 
HETATM    3  O   UNK N   1       1.210   0.241  -1.943  0.00  0.00    -0.361 OA
HETATM    4  C   UNK N   1       2.293   0.502  -0.015  0.00  0.00     0.065 C 
HETATM    5  C   UNK N   1       2.148  -0.809  -0.213  0.00  0.00     0.065 C 
HETATM    6  C   UNK N   1       1.001  -0.932  -1.160  0.00  0.00     0.197 C 
HETATM    7  C   UNK N   1      -0.258  -0.543  -0.426  0.00  0.00    -0.004 C 
ENDROOT
BRANCH   1   8
HETATM    8  C   UNK N   1      -1.187   1.814   0.113  0.00  0.00    -0.026 A 
HETATM    9  C   UNK N   1      -0.835   3.174   0.135  0.00  0.00     0.015 A 
HETATM   10  C   UNK N   1      -1.805   4.162   0.351  0.00  0.00     0.037 A 
HETATM   11  C   UNK N   1      -3.143   3.801   0.530  0.00  0.00     0.065 A 
HETATM   12  C   UNK N   1      -3.505   2.456   0.514  0.00  0.00     0.037 A 
HETATM   13  C   UNK N   1      -2.534   1.477   0.300  0.00  0.00     0.015 A 
BRANCH  11  14
HETATM   14  O   UNK N   1      -4.080   4.746   0.708  0.00  0.00    -0.361 OA
HETATM   15  H   UNK N   1      -3.836   5.642   0.832  0.00  0.00     0.217 HD
ENDBRANCH  11  14
ENDBRANCH   1   8
BRANCH   7  16
HETATM   16  C   UNK N   1      -1.332  -1.541  -0.110  0.00  0.00    -0.026 A 
HETATM   17  C   UNK N   1      -1.189  -2.856  -0.583  0.00  0.00     0.015 A 
HETATM   18  C   UNK N   1      -2.142  -3.835  -0.291  0.00  0.00     0.037 A 
HETATM   19  C   UNK N   1      -3.248  -3.515   0.495  0.00  0.00     0.065 A 
HETATM   20  C   UNK N   1      -3.396  -2.219   0.992  0.00  0.00     0.037 A 
HETATM   21  C   UNK N   1      -2.438  -1.244   0.696  0.00  0.00     0.015 A 
BRANCH  19  22
HETATM   22  O   UNK N   1      -4.168  -4.452   0.773  0.00  0.00    -0.361 OA
HETATM   23  H   UNK N   1      -5.056  -4.223   0.968  0.00  0.00     0.217 HD
ENDBRANCH  19  22
ENDBRANCH   7  16
BRANCH   4  24
HETATM   24  C   UNK N   1       3.375   1.235   0.697  0.00  0.00     0.292 C 
HETATM   25  O   UNK N   1       4.233   0.630   1.326  0.00  0.00    -0.259 OA
BRANCH  24  26
HETATM   26  O   UNK N   1       3.435   2.584   0.601  0.00  0.00    -0.323 OA
HETATM   27  C   UNK N   1       4.478   3.313   1.127  0.00  0.00     0.213 C 
ENDBRANCH  24  26
ENDBRANCH   4  24
BRANCH   5  28
HETATM   28  C   UNK N   1       2.966  -1.977   0.214  0.00  0.00     0.292 C 
HETATM   29  O   UNK N   1       3.938  -1.841   0.937  0.00  0.00    -0.259 OA
BRANCH  28  30
HETATM   30  O   UNK N   1       2.614  -3.209  -0.232  0.00  0.00    -0.323 OA
HETATM   31  C   UNK N   1       3.328  -4.343   0.076  0.00  0.00     0.213 C 
ENDBRANCH  28  30
ENDBRANCH   5  28
TORSDOF 8
