MODEL 1
REMARK VINA RESULT:      -7.6      0.000      0.000
REMARK  8 active torsions:
REMARK  status: ('A' for Active; 'I' for Inactive)
REMARK    1  A    between atoms: C_3  and  O_4 
REMARK    2  A    between atoms: C_8  and  C_7 
REMARK    3  A    between atoms: C_12  and  C_11 
REMARK    4  A    between atoms: C_12  and  O_13 
REMARK    5  A    between atoms: C_17  and  C_16 
REMARK    6  A    between atoms: C_17  and  O_18 
REMARK    7  A    between atoms: C_22  and  C_23 
REMARK    8  A    between atoms: C_26  and  O_27 
ROOT
HETATM    1  C   UNK N   1      32.289  17.206   7.252  0.00  0.00    -0.004 C 
HETATM    2  C   UNK N   1      33.611  17.764   7.751  0.00  0.00     0.197 C 
HETATM    3  O   UNK N   1      34.221  18.001   6.496  0.00  0.00    -0.361 OA
HETATM    4  C   UNK N   1      34.504  16.635   8.231  0.00  0.00     0.065 C 
HETATM    5  C   UNK N   1      34.799  15.942   7.131  0.00  0.00     0.065 C 
HETATM    6  C   UNK N   1      34.102  16.661   6.024  0.00  0.00     0.197 C 
HETATM    7  C   UNK N   1      32.617  16.450   6.188  0.00  0.00    -0.004 C 
ENDROOT
BRANCH   1   8
HETATM    8  C   UNK N   1      30.951  17.644   7.772  0.00  0.00    -0.026 A 
HETATM    9  C   UNK N   1      29.783  17.242   7.102  0.00  0.00     0.015 A 
HETATM   10  C   UNK N   1      28.519  17.502   7.647  0.00  0.00     0.037 A 
HETATM   11  C   UNK N   1      28.409  18.152   8.879  0.00  0.00     0.065 A 
HETATM   12  C   UNK N   1      29.558  18.558   9.553  0.00  0.00     0.037 A 
HETATM   13  C   UNK N   1      30.814  18.298   9.004  0.00  0.00     0.015 A 
BRANCH  11  14
HETATM   14  O   UNK N   1      27.200  18.376   9.419  0.00  0.00    -0.361 OA
HETATM   15  H   UNK N   1      27.020  18.128  10.304  0.00  0.00     0.217 HD
ENDBRANCH  11  14
ENDBRANCH   1   8
BRANCH   7  16
HETATM   16  C   UNK N   1      31.818  15.639   5.211  0.00  0.00    -0.026 A 
HETATM   17  C   UNK N   1      31.394  14.355   5.591  0.00  0.00     0.015 A 
HETATM   18  C   UNK N   1      30.619  13.569   4.734  0.00  0.00     0.037 A 
HETATM   19  C   UNK N   1      30.244  14.065   3.486  0.00  0.00     0.065 A 
HETATM   20  C   UNK N   1      30.638  15.347   3.100  0.00  0.00     0.037 A 
HETATM   21  C   UNK N   1      31.413  16.129   3.963  0.00  0.00     0.015 A 
BRANCH  19  22
HETATM   22  O   UNK N   1      29.504  13.310   2.659  0.00  0.00    -0.361 OA
HETATM   23  H   UNK N   1      28.583  13.199   2.790  0.00  0.00     0.217 HD
ENDBRANCH  19  22
ENDBRANCH   7  16
BRANCH   4  24
HETATM   24  C   UNK N   1      35.050  16.496   9.609  0.00  0.00     0.292 C 
HETATM   25  O   UNK N   1      35.657  17.417  10.138  0.00  0.00    -0.259 OA
BRANCH  24  26
HETATM   26  O   UNK N   1      34.823  15.353  10.299  0.00  0.00    -0.323 OA
HETATM   27  C   UNK N   1      35.300  15.158  11.576  0.00  0.00     0.213 C 
ENDBRANCH  24  26
ENDBRANCH   4  24
BRANCH   5  28
HETATM   28  C   UNK N   1      35.723  14.801   6.891  0.00  0.00     0.292 C 
HETATM   29  O   UNK N   1      36.656  14.892   6.112  0.00  0.00    -0.259 OA
BRANCH  28  30
HETATM   30  O   UNK N   1      35.497  13.638   7.552  0.00  0.00    -0.323 OA
HETATM   31  C   UNK N   1      34.255  13.053   7.624  0.00  0.00     0.213 C 
ENDBRANCH  28  30
ENDBRANCH   5  28
TORSDOF 8
ENDMDL
MODEL 2
REMARK VINA RESULT:      -7.5      1.575      5.389
REMARK  8 active torsions:
REMARK  status: ('A' for Active; 'I' for Inactive)
REMARK    1  A    between atoms: C_3  and  O_4 
REMARK    2  A    between atoms: C_8  and  C_7 
REMARK    3  A    between atoms: C_12  and  C_11 
REMARK    4  A    between atoms: C_12  and  O_13 
REMARK    5  A    between atoms: C_17  and  C_16 
REMARK    6  A    between atoms: C_17  and  O_18 
REMARK    7  A    between atoms: C_22  and  C_23 
REMARK    8  A    between atoms: C_26  and  O_27 
ROOT
HETATM    1  C   UNK N   1      33.556  16.522   7.522  0.00  0.00    -0.004 C 
HETATM    2  C   UNK N   1      34.496  16.503   6.329  0.00  0.00     0.197 C 
HETATM    3  O   UNK N   1      34.168  17.769   5.789  0.00  0.00    -0.361 OA
HETATM    4  C   UNK N   1      33.925  15.628   5.229  0.00  0.00     0.065 C 
HETATM    5  C   UNK N   1      32.832  16.271   4.815  0.00  0.00     0.065 C 
HETATM    6  C   UNK N   1      32.773  17.508   5.649  0.00  0.00     0.197 C 
HETATM    7  C   UNK N   1      32.434  17.106   7.063  0.00  0.00    -0.004 C 
ENDROOT
BRANCH   1   8
HETATM    8  C   UNK N   1      33.969  16.145   8.914  0.00  0.00    -0.026 A 
HETATM    9  C   UNK N   1      33.619  14.883   9.423  0.00  0.00     0.015 A 
HETATM   10  C   UNK N   1      34.120  14.442  10.655  0.00  0.00     0.037 A 
HETATM   11  C   UNK N   1      34.992  15.253  11.385  0.00  0.00     0.065 A 
HETATM   12  C   UNK N   1      35.345  16.509  10.895  0.00  0.00     0.037 A 
HETATM   13  C   UNK N   1      34.841  16.942   9.668  0.00  0.00     0.015 A 
BRANCH  11  14
HETATM   14  O   UNK N   1      35.498  14.823  12.552  0.00  0.00    -0.361 OA
HETATM   15  H   UNK N   1      36.388  14.537  12.610  0.00  0.00     0.217 HD
ENDBRANCH  11  14
ENDBRANCH   1   8
BRANCH   7  16
HETATM   16  C   UNK N   1      31.124  17.469   7.697  0.00  0.00    -0.026 A 
HETATM   17  C   UNK N   1      29.940  16.965   7.133  0.00  0.00     0.015 A 
HETATM   18  C   UNK N   1      28.695  17.244   7.702  0.00  0.00     0.037 A 
HETATM   19  C   UNK N   1      28.617  18.020   8.857  0.00  0.00     0.065 A 
HETATM   20  C   UNK N   1      29.784  18.511   9.444  0.00  0.00     0.037 A 
HETATM   21  C   UNK N   1      31.028  18.228   8.870  0.00  0.00     0.015 A 
BRANCH  19  22
HETATM   22  O   UNK N   1      27.422  18.294   9.403  0.00  0.00    -0.361 OA
HETATM   23  H   UNK N   1      26.900  19.014   9.103  0.00  0.00     0.217 HD
ENDBRANCH  19  22
ENDBRANCH   7  16
BRANCH   4  24
HETATM   24  C   UNK N   1      34.587  14.425   4.654  0.00  0.00     0.292 C 
HETATM   25  O   UNK N   1      34.827  14.355   3.456  0.00  0.00    -0.259 OA
BRANCH  24  26
HETATM   26  O   UNK N   1      34.972  13.423   5.479  0.00  0.00    -0.323 OA
HETATM   27  C   UNK N   1      34.103  12.824   6.363  0.00  0.00     0.213 C 
ENDBRANCH  24  26
ENDBRANCH   4  24
BRANCH   5  28
HETATM   28  C   UNK N   1      31.893  16.016   3.689  0.00  0.00     0.292 C 
HETATM   29  O   UNK N   1      32.132  16.412   2.561  0.00  0.00    -0.259 OA
BRANCH  28  30
HETATM   30  O   UNK N   1      30.746  15.339   3.946  0.00  0.00    -0.323 OA
HETATM   31  C   UNK N   1      30.713  14.198   4.713  0.00  0.00     0.213 C 
ENDBRANCH  28  30
ENDBRANCH   5  28
TORSDOF 8
ENDMDL
MODEL 3
REMARK VINA RESULT:      -7.5     10.806     13.639
REMARK  8 active torsions:
REMARK  status: ('A' for Active; 'I' for Inactive)
REMARK    1  A    between atoms: C_3  and  O_4 
REMARK    2  A    between atoms: C_8  and  C_7 
REMARK    3  A    between atoms: C_12  and  C_11 
REMARK    4  A    between atoms: C_12  and  O_13 
REMARK    5  A    between atoms: C_17  and  C_16 
REMARK    6  A    between atoms: C_17  and  O_18 
REMARK    7  A    between atoms: C_22  and  C_23 
REMARK    8  A    between atoms: C_26  and  O_27 
ROOT
HETATM    1  C   UNK N   1      21.374  13.411   6.709  0.00  0.00    -0.004 C 
HETATM    2  C   UNK N   1      21.269  14.667   5.861  0.00  0.00     0.197 C 
HETATM    3  O   UNK N   1      22.276  15.430   6.500  0.00  0.00    -0.361 OA
HETATM    4  C   UNK N   1      20.061  15.481   6.285  0.00  0.00     0.065 C 
HETATM    5  C   UNK N   1      20.348  15.901   7.517  0.00  0.00     0.065 C 
HETATM    6  C   UNK N   1      21.707  15.354   7.805  0.00  0.00     0.197 C 
HETATM    7  C   UNK N   1      21.588  13.859   7.959  0.00  0.00    -0.004 C 
ENDROOT
BRANCH   1   8
HETATM    8  C   UNK N   1      21.430  12.024   6.138  0.00  0.00    -0.026 A 
HETATM    9  C   UNK N   1      22.620  11.283   6.236  0.00  0.00     0.015 A 
HETATM   10  C   UNK N   1      22.658   9.935   5.854  0.00  0.00     0.037 A 
HETATM   11  C   UNK N   1      21.501   9.307   5.386  0.00  0.00     0.065 A 
HETATM   12  C   UNK N   1      20.315  10.031   5.281  0.00  0.00     0.037 A 
HETATM   13  C   UNK N   1      20.284  11.374   5.661  0.00  0.00     0.015 A 
BRANCH  11  14
HETATM   14  O   UNK N   1      21.526   8.009   5.048  0.00  0.00    -0.361 OA
HETATM   15  H   UNK N   1      21.798   7.360   5.666  0.00  0.00     0.217 HD
ENDBRANCH  11  14
ENDBRANCH   1   8
BRANCH   7  16
HETATM   16  C   UNK N   1      21.812  13.177   9.276  0.00  0.00    -0.026 A 
HETATM   17  C   UNK N   1      23.124  12.838   9.644  0.00  0.00     0.015 A 
HETATM   18  C   UNK N   1      23.395  12.232  10.874  0.00  0.00     0.037 A 
HETATM   19  C   UNK N   1      22.354  11.970  11.763  0.00  0.00     0.065 A 
HETATM   20  C   UNK N   1      21.045  12.320  11.424  0.00  0.00     0.037 A 
HETATM   21  C   UNK N   1      20.782  12.927  10.192  0.00  0.00     0.015 A 
BRANCH  19  22
HETATM   22  O   UNK N   1      22.610  11.384  12.943  0.00  0.00    -0.361 OA
HETATM   23  H   UNK N   1      23.045  11.844  13.634  0.00  0.00     0.217 HD
ENDBRANCH  19  22
ENDBRANCH   7  16
BRANCH   4  24
HETATM   24  C   UNK N   1      18.920  15.851   5.403  0.00  0.00     0.292 C 
HETATM   25  O   UNK N   1      17.765  15.715   5.783  0.00  0.00    -0.259 OA
BRANCH  24  26
HETATM   26  O   UNK N   1      19.171  16.393   4.188  0.00  0.00    -0.323 OA
HETATM   27  C   UNK N   1      20.090  17.403   4.009  0.00  0.00     0.213 C 
ENDBRANCH  24  26
ENDBRANCH   4  24
BRANCH   5  28
HETATM   28  C   UNK N   1      19.647  16.835   8.440  0.00  0.00     0.292 C 
HETATM   29  O   UNK N   1      20.094  17.943   8.683  0.00  0.00    -0.259 OA
BRANCH  28  30
HETATM   30  O   UNK N   1      18.494  16.421   9.023  0.00  0.00    -0.323 OA
HETATM   31  C   UNK N   1      17.368  17.209   9.085  0.00  0.00     0.213 C 
ENDBRANCH  28  30
ENDBRANCH   5  28
TORSDOF 8
ENDMDL
MODEL 4
REMARK VINA RESULT:      -7.5     12.630     16.951
REMARK  8 active torsions:
REMARK  status: ('A' for Active; 'I' for Inactive)
REMARK    1  A    between atoms: C_3  and  O_4 
REMARK    2  A    between atoms: C_8  and  C_7 
REMARK    3  A    between atoms: C_12  and  C_11 
REMARK    4  A    between atoms: C_12  and  O_13 
REMARK    5  A    between atoms: C_17  and  C_16 
REMARK    6  A    between atoms: C_17  and  O_18 
REMARK    7  A    between atoms: C_22  and  C_23 
REMARK    8  A    between atoms: C_26  and  O_27 
ROOT
HETATM    1  C   UNK N   1      28.747  21.659  -7.464  0.00  0.00    -0.004 C 
HETATM    2  C   UNK N   1      27.776  22.592  -8.167  0.00  0.00     0.197 C 
HETATM    3  O   UNK N   1      28.445  23.813  -7.912  0.00  0.00    -0.361 OA
HETATM    4  C   UNK N   1      26.551  22.815  -7.301  0.00  0.00     0.065 C 
HETATM    5  C   UNK N   1      26.999  23.493  -6.244  0.00  0.00     0.065 C 
HETATM    6  C   UNK N   1      28.460  23.675  -6.493  0.00  0.00     0.197 C 
HETATM    7  C   UNK N   1      29.130  22.330  -6.362  0.00  0.00    -0.004 C 
ENDROOT
BRANCH   1   8
HETATM    8  C   UNK N   1      29.262  20.385  -8.068  0.00  0.00    -0.026 A 
HETATM    9  C   UNK N   1      30.249  20.442  -9.067  0.00  0.00     0.015 A 
HETATM   10  C   UNK N   1      30.860  19.272  -9.538  0.00  0.00     0.037 A 
HETATM   11  C   UNK N   1      30.503  18.032  -9.002  0.00  0.00     0.065 A 
HETATM   12  C   UNK N   1      29.523  17.961  -8.015  0.00  0.00     0.037 A 
HETATM   13  C   UNK N   1      28.918  19.129  -7.551  0.00  0.00     0.015 A 
BRANCH  11  14
HETATM   14  O   UNK N   1      31.107  16.912  -9.430  0.00  0.00    -0.361 OA
HETATM   15  H   UNK N   1      31.586  16.371  -8.834  0.00  0.00     0.217 HD
ENDBRANCH  11  14
ENDBRANCH   1   8
BRANCH   7  16
HETATM   16  C   UNK N   1      30.081  22.023  -5.245  0.00  0.00    -0.026 A 
HETATM   17  C   UNK N   1      29.911  22.682  -4.016  0.00  0.00     0.015 A 
HETATM   18  C   UNK N   1      30.747  22.411  -2.930  0.00  0.00     0.037 A 
HETATM   19  C   UNK N   1      31.760  21.461  -3.054  0.00  0.00     0.065 A 
HETATM   20  C   UNK N   1      31.931  20.780  -4.260  0.00  0.00     0.037 A 
HETATM   21  C   UNK N   1      31.090  21.057  -5.343  0.00  0.00     0.015 A 
BRANCH  19  22
HETATM   22  O   UNK N   1      32.569  21.203  -2.014  0.00  0.00    -0.361 OA
HETATM   23  H   UNK N   1      33.079  20.417  -1.975  0.00  0.00     0.217 HD
ENDBRANCH  19  22
ENDBRANCH   7  16
BRANCH   4  24
HETATM   24  C   UNK N   1      25.151  22.493  -7.691  0.00  0.00     0.292 C 
HETATM   25  O   UNK N   1      24.560  21.550  -7.181  0.00  0.00    -0.259 OA
BRANCH  24  26
HETATM   26  O   UNK N   1      24.512  23.287  -8.582  0.00  0.00    -0.323 OA
HETATM   27  C   UNK N   1      25.138  24.339  -9.210  0.00  0.00     0.213 C 
ENDBRANCH  24  26
ENDBRANCH   4  24
BRANCH   5  28
HETATM   28  C   UNK N   1      26.296  24.125  -5.094  0.00  0.00     0.292 C 
HETATM   29  O   UNK N   1      26.704  23.997  -3.952  0.00  0.00    -0.259 OA
BRANCH  28  30
HETATM   30  O   UNK N   1      25.172  24.843  -5.341  0.00  0.00    -0.323 OA
HETATM   31  C   UNK N   1      25.204  26.150  -5.768  0.00  0.00     0.213 C 
ENDBRANCH  28  30
ENDBRANCH   5  28
TORSDOF 8
ENDMDL
MODEL 5
REMARK VINA RESULT:      -7.0     10.907     13.304
REMARK  8 active torsions:
REMARK  status: ('A' for Active; 'I' for Inactive)
REMARK    1  A    between atoms: C_3  and  O_4 
REMARK    2  A    between atoms: C_8  and  C_7 
REMARK    3  A    between atoms: C_12  and  C_11 
REMARK    4  A    between atoms: C_12  and  O_13 
REMARK    5  A    between atoms: C_17  and  C_16 
REMARK    6  A    between atoms: C_17  and  O_18 
REMARK    7  A    between atoms: C_22  and  C_23 
REMARK    8  A    between atoms: C_26  and  O_27 
ROOT
HETATM    1  C   UNK N   1      20.599  14.969   4.014  0.00  0.00    -0.004 C 
HETATM    2  C   UNK N   1      19.903  14.061   5.012  0.00  0.00     0.197 C 
HETATM    3  O   UNK N   1      18.620  14.658   4.974  0.00  0.00    -0.361 OA
HETATM    4  C   UNK N   1      20.295  14.445   6.427  0.00  0.00     0.065 C 
HETATM    5  C   UNK N   1      19.763  15.655   6.610  0.00  0.00     0.065 C 
HETATM    6  C   UNK N   1      19.061  15.966   5.330  0.00  0.00     0.197 C 
HETATM    7  C   UNK N   1      20.105  16.196   4.266  0.00  0.00    -0.004 C 
ENDROOT
BRANCH   1   8
HETATM    8  C   UNK N   1      21.463  14.469   2.894  0.00  0.00    -0.026 A 
HETATM    9  C   UNK N   1      20.873  13.790   1.814  0.00  0.00     0.015 A 
HETATM   10  C   UNK N   1      21.627  13.448   0.684  0.00  0.00     0.037 A 
HETATM   11  C   UNK N   1      22.978  13.799   0.612  0.00  0.00     0.065 A 
HETATM   12  C   UNK N   1      23.577  14.469   1.677  0.00  0.00     0.037 A 
HETATM   13  C   UNK N   1      22.820  14.805   2.800  0.00  0.00     0.015 A 
BRANCH  11  14
HETATM   14  O   UNK N   1      23.697  13.500  -0.481  0.00  0.00    -0.361 OA
HETATM   15  H   UNK N   1      23.622  14.018  -1.258  0.00  0.00     0.217 HD
ENDBRANCH  11  14
ENDBRANCH   1   8
BRANCH   7  16
HETATM   16  C   UNK N   1      20.325  17.545   3.649  0.00  0.00    -0.026 A 
HETATM   17  C   UNK N   1      20.986  18.529   4.401  0.00  0.00     0.015 A 
HETATM   18  C   UNK N   1      21.247  19.793   3.865  0.00  0.00     0.037 A 
HETATM   19  C   UNK N   1      20.863  20.085   2.558  0.00  0.00     0.065 A 
HETATM   20  C   UNK N   1      20.223  19.112   1.787  0.00  0.00     0.037 A 
HETATM   21  C   UNK N   1      19.966  17.850   2.330  0.00  0.00     0.015 A 
BRANCH  19  22
HETATM   22  O   UNK N   1      21.107  21.300   2.041  0.00  0.00    -0.361 OA
HETATM   23  H   UNK N   1      21.661  21.916   2.481  0.00  0.00     0.217 HD
ENDBRANCH  19  22
ENDBRANCH   7  16
BRANCH   4  24
HETATM   24  C   UNK N   1      20.963  13.549   7.409  0.00  0.00     0.292 C 
HETATM   25  O   UNK N   1      20.780  12.339   7.380  0.00  0.00    -0.259 OA
BRANCH  24  26
HETATM   26  O   UNK N   1      21.822  14.079   8.311  0.00  0.00    -0.323 OA
HETATM   27  C   UNK N   1      21.690  13.868   9.665  0.00  0.00     0.213 C 
ENDBRANCH  24  26
ENDBRANCH   4  24
BRANCH   5  28
HETATM   28  C   UNK N   1      19.672  16.531   7.810  0.00  0.00     0.292 C 
HETATM   29  O   UNK N   1      20.518  17.376   8.044  0.00  0.00    -0.259 OA
BRANCH  28  30
HETATM   30  O   UNK N   1      18.624  16.361   8.655  0.00  0.00    -0.323 OA
HETATM   31  C   UNK N   1      18.029  17.407   9.321  0.00  0.00     0.213 C 
ENDBRANCH  28  30
ENDBRANCH   5  28
TORSDOF 8
ENDMDL
MODEL 6
REMARK VINA RESULT:      -7.0     14.580     17.830
REMARK  8 active torsions:
REMARK  status: ('A' for Active; 'I' for Inactive)
REMARK    1  A    between atoms: C_3  and  O_4 
REMARK    2  A    between atoms: C_8  and  C_7 
REMARK    3  A    between atoms: C_12  and  C_11 
REMARK    4  A    between atoms: C_12  and  O_13 
REMARK    5  A    between atoms: C_17  and  C_16 
REMARK    6  A    between atoms: C_17  and  O_18 
REMARK    7  A    between atoms: C_22  and  C_23 
REMARK    8  A    between atoms: C_26  and  O_27 
ROOT
HETATM    1  C   UNK N   1      26.444  25.431  -6.214  0.00  0.00    -0.004 C 
HETATM    2  C   UNK N   1      25.637  25.012  -7.431  0.00  0.00     0.197 C 
HETATM    3  O   UNK N   1      25.229  23.735  -6.976  0.00  0.00    -0.361 OA
HETATM    4  C   UNK N   1      26.568  24.573  -8.546  0.00  0.00     0.065 C 
HETATM    5  C   UNK N   1      27.140  23.457  -8.092  0.00  0.00     0.065 C 
HETATM    6  C   UNK N   1      26.545  23.240  -6.741  0.00  0.00     0.197 C 
HETATM    7  C   UNK N   1      27.073  24.310  -5.818  0.00  0.00    -0.004 C 
ENDROOT
BRANCH   1   8
HETATM    8  C   UNK N   1      26.320  26.774  -5.556  0.00  0.00    -0.026 A 
HETATM    9  C   UNK N   1      25.599  26.893  -4.356  0.00  0.00     0.015 A 
HETATM   10  C   UNK N   1      25.596  28.096  -3.638  0.00  0.00     0.037 A 
HETATM   11  C   UNK N   1      26.329  29.191  -4.104  0.00  0.00     0.065 A 
HETATM   12  C   UNK N   1      27.046  29.088  -5.294  0.00  0.00     0.037 A 
HETATM   13  C   UNK N   1      27.044  27.887  -6.005  0.00  0.00     0.015 A 
BRANCH  11  14
HETATM   14  O   UNK N   1      26.353  30.336  -3.404  0.00  0.00    -0.361 OA
HETATM   15  H   UNK N   1      26.119  30.345  -2.497  0.00  0.00     0.217 HD
ENDBRANCH  11  14
ENDBRANCH   1   8
BRANCH   7  16
HETATM   16  C   UNK N   1      27.997  23.991  -4.681  0.00  0.00    -0.026 A 
HETATM   17  C   UNK N   1      27.466  23.913  -3.383  0.00  0.00     0.015 A 
HETATM   18  C   UNK N   1      28.275  23.587  -2.291  0.00  0.00     0.037 A 
HETATM   19  C   UNK N   1      29.629  23.318  -2.485  0.00  0.00     0.065 A 
HETATM   20  C   UNK N   1      30.170  23.369  -3.771  0.00  0.00     0.037 A 
HETATM   21  C   UNK N   1      29.355  23.696  -4.859  0.00  0.00     0.015 A 
BRANCH  19  22
HETATM   22  O   UNK N   1      30.409  23.010  -1.438  0.00  0.00    -0.361 OA
HETATM   23  H   UNK N   1      30.063  22.583  -0.678  0.00  0.00     0.217 HD
ENDBRANCH  19  22
ENDBRANCH   7  16
BRANCH   4  24
HETATM   24  C   UNK N   1      26.639  25.187  -9.900  0.00  0.00     0.292 C 
HETATM   25  O   UNK N   1      27.590  25.888 -10.220  0.00  0.00    -0.259 OA
BRANCH  24  26
HETATM   26  O   UNK N   1      25.664  24.921 -10.800  0.00  0.00    -0.323 OA
HETATM   27  C   UNK N   1      24.616  25.786 -11.026  0.00  0.00     0.213 C 
ENDBRANCH  24  26
ENDBRANCH   4  24
BRANCH   5  28
HETATM   28  C   UNK N   1      28.050  22.471  -8.737  0.00  0.00     0.292 C 
HETATM   29  O   UNK N   1      29.164  22.251  -8.294  0.00  0.00    -0.259 OA
BRANCH  28  30
HETATM   30  O   UNK N   1      27.617  21.824  -9.849  0.00  0.00    -0.323 OA
HETATM   31  C   UNK N   1      26.367  21.259  -9.940  0.00  0.00     0.213 C 
ENDBRANCH  28  30
ENDBRANCH   5  28
TORSDOF 8
ENDMDL
MODEL 7
REMARK VINA RESULT:      -7.0      6.336     10.984
REMARK  8 active torsions:
REMARK  status: ('A' for Active; 'I' for Inactive)
REMARK    1  A    between atoms: C_3  and  O_4 
REMARK    2  A    between atoms: C_8  and  C_7 
REMARK    3  A    between atoms: C_12  and  C_11 
REMARK    4  A    between atoms: C_12  and  O_13 
REMARK    5  A    between atoms: C_17  and  C_16 
REMARK    6  A    between atoms: C_17  and  O_18 
REMARK    7  A    between atoms: C_22  and  C_23 
REMARK    8  A    between atoms: C_26  and  O_27 
ROOT
HETATM    1  C   UNK N   1      35.677  11.639  15.137  0.00  0.00    -0.004 C 
HETATM    2  C   UNK N   1      34.707  12.144  14.083  0.00  0.00     0.197 C 
HETATM    3  O   UNK N   1      34.408  10.904  13.468  0.00  0.00    -0.361 OA
HETATM    4  C   UNK N   1      35.469  12.789  12.941  0.00  0.00     0.065 C 
HETATM    5  C   UNK N   1      36.135  11.786  12.366  0.00  0.00     0.065 C 
HETATM    6  C   UNK N   1      35.757  10.573  13.150  0.00  0.00     0.197 C 
HETATM    7  C   UNK N   1      36.389  10.681  14.515  0.00  0.00    -0.004 C 
ENDROOT
BRANCH   1   8
HETATM    8  C   UNK N   1      35.618  12.037  16.583  0.00  0.00    -0.026 A 
HETATM    9  C   UNK N   1      35.426  13.388  16.920  0.00  0.00     0.015 A 
HETATM   10  C   UNK N   1      35.212  13.770  18.251  0.00  0.00     0.037 A 
HETATM   11  C   UNK N   1      35.169  12.803  19.259  0.00  0.00     0.065 A 
HETATM   12  C   UNK N   1      35.361  11.461  18.938  0.00  0.00     0.037 A 
HETATM   13  C   UNK N   1      35.575  11.087  17.611  0.00  0.00     0.015 A 
BRANCH  11  14
HETATM   14  O   UNK N   1      34.934  13.161  20.531  0.00  0.00    -0.361 OA
HETATM   15  H   UNK N   1      34.693  14.042  20.741  0.00  0.00     0.217 HD
ENDBRANCH  11  14
ENDBRANCH   1   8
BRANCH   7  16
HETATM   16  C   UNK N   1      37.483   9.756  14.958  0.00  0.00    -0.026 A 
HETATM   17  C   UNK N   1      37.145   8.635  15.733  0.00  0.00     0.015 A 
HETATM   18  C   UNK N   1      38.119   7.722  16.145  0.00  0.00     0.037 A 
HETATM   19  C   UNK N   1      39.449   7.910  15.772  0.00  0.00     0.065 A 
HETATM   20  C   UNK N   1      39.801   9.006  14.983  0.00  0.00     0.037 A 
HETATM   21  C   UNK N   1      38.821   9.916  14.574  0.00  0.00     0.015 A 
BRANCH  19  22
HETATM   22  O   UNK N   1      40.388   7.038  16.171  0.00  0.00    -0.361 OA
HETATM   23  H   UNK N   1      40.160   6.239  16.606  0.00  0.00     0.217 HD
ENDBRANCH  19  22
ENDBRANCH   7  16
BRANCH   4  24
HETATM   24  C   UNK N   1      35.318  14.201  12.494  0.00  0.00     0.292 C 
HETATM   25  O   UNK N   1      36.154  15.044  12.789  0.00  0.00    -0.259 OA
BRANCH  24  26
HETATM   26  O   UNK N   1      34.269  14.537  11.708  0.00  0.00    -0.323 OA
HETATM   27  C   UNK N   1      34.432  15.163  10.492  0.00  0.00     0.213 C 
ENDBRANCH  24  26
ENDBRANCH   4  24
BRANCH   5  28
HETATM   28  C   UNK N   1      36.963  11.719  11.131  0.00  0.00     0.292 C 
HETATM   29  O   UNK N   1      36.640  11.018  10.188  0.00  0.00    -0.259 OA
BRANCH  28  30
HETATM   30  O   UNK N   1      38.104  12.452  11.079  0.00  0.00    -0.323 OA
HETATM   31  C   UNK N   1      38.274  13.501  10.207  0.00  0.00     0.213 C 
ENDBRANCH  28  30
ENDBRANCH   5  28
TORSDOF 8
ENDMDL
MODEL 8
REMARK VINA RESULT:      -7.0     13.405     16.563
REMARK  8 active torsions:
REMARK  status: ('A' for Active; 'I' for Inactive)
REMARK    1  A    between atoms: C_3  and  O_4 
REMARK    2  A    between atoms: C_8  and  C_7 
REMARK    3  A    between atoms: C_12  and  C_11 
REMARK    4  A    between atoms: C_12  and  O_13 
REMARK    5  A    between atoms: C_17  and  C_16 
REMARK    6  A    between atoms: C_17  and  O_18 
REMARK    7  A    between atoms: C_22  and  C_23 
REMARK    8  A    between atoms: C_26  and  O_27 
ROOT
HETATM    1  C   UNK N   1      28.195  23.993  -4.324  0.00  0.00    -0.004 C 
HETATM    2  C   UNK N   1      27.388  24.855  -3.370  0.00  0.00     0.197 C 
HETATM    3  O   UNK N   1      26.148  24.182  -3.483  0.00  0.00    -0.361 OA
HETATM    4  C   UNK N   1      27.004  26.160  -4.044  0.00  0.00     0.065 C 
HETATM    5  C   UNK N   1      26.158  25.806  -5.012  0.00  0.00     0.065 C 
HETATM    6  C   UNK N   1      26.038  24.323  -4.898  0.00  0.00     0.197 C 
HETATM    7  C   UNK N   1      27.347  23.711  -5.330  0.00  0.00    -0.004 C 
ENDROOT
BRANCH   1   8
HETATM    8  C   UNK N   1      29.560  23.454  -4.008  0.00  0.00    -0.026 A 
HETATM    9  C   UNK N   1      29.681  22.287  -3.236  0.00  0.00     0.015 A 
HETATM   10  C   UNK N   1      30.928  21.673  -3.055  0.00  0.00     0.037 A 
HETATM   11  C   UNK N   1      32.066  22.212  -3.660  0.00  0.00     0.065 A 
HETATM   12  C   UNK N   1      31.961  23.371  -4.425  0.00  0.00     0.037 A 
HETATM   13  C   UNK N   1      30.716  23.978  -4.600  0.00  0.00     0.015 A 
BRANCH  11  14
HETATM   14  O   UNK N   1      33.258  21.611  -3.513  0.00  0.00    -0.361 OA
HETATM   15  H   UNK N   1      33.821  21.483  -4.250  0.00  0.00     0.217 HD
ENDBRANCH  11  14
ENDBRANCH   1   8
BRANCH   7  16
HETATM   16  C   UNK N   1      27.465  22.893  -6.582  0.00  0.00    -0.026 A 
HETATM   17  C   UNK N   1      26.498  23.059  -7.588  0.00  0.00     0.015 A 
HETATM   18  C   UNK N   1      26.577  22.348  -8.788  0.00  0.00     0.037 A 
HETATM   19  C   UNK N   1      27.637  21.469  -9.006  0.00  0.00     0.065 A 
HETATM   20  C   UNK N   1      28.619  21.308  -8.027  0.00  0.00     0.037 A 
HETATM   21  C   UNK N   1      28.534  22.023  -6.828  0.00  0.00     0.015 A 
BRANCH  19  22
HETATM   22  O   UNK N   1      27.712  20.781 -10.156  0.00  0.00    -0.361 OA
HETATM   23  H   UNK N   1      27.928  19.869 -10.167  0.00  0.00     0.217 HD
ENDBRANCH  19  22
ENDBRANCH   7  16
BRANCH   4  24
HETATM   24  C   UNK N   1      27.375  27.519  -3.563  0.00  0.00     0.292 C 
HETATM   25  O   UNK N   1      28.534  27.909  -3.620  0.00  0.00    -0.259 OA
BRANCH  24  26
HETATM   26  O   UNK N   1      26.406  28.347  -3.107  0.00  0.00    -0.323 OA
HETATM   27  C   UNK N   1      26.278  29.644  -3.552  0.00  0.00     0.213 C 
ENDBRANCH  24  26
ENDBRANCH   4  24
BRANCH   5  28
HETATM   28  C   UNK N   1      25.329  26.609  -5.952  0.00  0.00     0.292 C 
HETATM   29  O   UNK N   1      24.374  27.257  -5.561  0.00  0.00    -0.259 OA
BRANCH  28  30
HETATM   30  O   UNK N   1      25.652  26.597  -7.270  0.00  0.00    -0.323 OA
HETATM   31  C   UNK N   1      26.937  26.786  -7.722  0.00  0.00     0.213 C 
ENDBRANCH  28  30
ENDBRANCH   5  28
TORSDOF 8
ENDMDL
MODEL 9
REMARK VINA RESULT:      -6.5      2.722      6.469
REMARK  8 active torsions:
REMARK  status: ('A' for Active; 'I' for Inactive)
REMARK    1  A    between atoms: C_3  and  O_4 
REMARK    2  A    between atoms: C_8  and  C_7 
REMARK    3  A    between atoms: C_12  and  C_11 
REMARK    4  A    between atoms: C_12  and  O_13 
REMARK    5  A    between atoms: C_17  and  C_16 
REMARK    6  A    between atoms: C_17  and  O_18 
REMARK    7  A    between atoms: C_22  and  C_23 
REMARK    8  A    between atoms: C_26  and  O_27 
ROOT
HETATM    1  C   UNK N   1      28.900  16.600   5.268  0.00  0.00    -0.004 C 
HETATM    2  C   UNK N   1      28.113  15.372   4.846  0.00  0.00     0.197 C 
HETATM    3  O   UNK N   1      28.620  14.463   5.805  0.00  0.00    -0.361 OA
HETATM    4  C   UNK N   1      28.729  14.762   3.601  0.00  0.00     0.065 C 
HETATM    5  C   UNK N   1      29.918  14.308   3.997  0.00  0.00     0.065 C 
HETATM    6  C   UNK N   1      29.991  14.634   5.452  0.00  0.00     0.197 C 
HETATM    7  C   UNK N   1      30.119  16.130   5.592  0.00  0.00    -0.004 C 
ENDROOT
BRANCH   1   8
HETATM    8  C   UNK N   1      28.288  17.958   5.456  0.00  0.00    -0.026 A 
HETATM    9  C   UNK N   1      28.114  18.465   6.754  0.00  0.00     0.015 A 
HETATM   10  C   UNK N   1      27.692  19.785   6.957  0.00  0.00     0.037 A 
HETATM   11  C   UNK N   1      27.455  20.620   5.862  0.00  0.00     0.065 A 
HETATM   12  C   UNK N   1      27.620  20.129   4.569  0.00  0.00     0.037 A 
HETATM   13  C   UNK N   1      28.040  18.812   4.374  0.00  0.00     0.015 A 
BRANCH  11  14
HETATM   14  O   UNK N   1      27.079  21.895   6.053  0.00  0.00    -0.361 OA
HETATM   15  H   UNK N   1      26.222  22.096   6.375  0.00  0.00     0.217 HD
ENDBRANCH  11  14
ENDBRANCH   1   8
BRANCH   7  16
HETATM   16  C   UNK N   1      31.370  16.775   6.110  0.00  0.00    -0.026 A 
HETATM   17  C   UNK N   1      31.426  17.142   7.465  0.00  0.00     0.015 A 
HETATM   18  C   UNK N   1      32.578  17.715   8.009  0.00  0.00     0.037 A 
HETATM   19  C   UNK N   1      33.700  17.915   7.207  0.00  0.00     0.065 A 
HETATM   20  C   UNK N   1      33.670  17.537   5.863  0.00  0.00     0.037 A 
HETATM   21  C   UNK N   1      32.514  16.963   5.325  0.00  0.00     0.015 A 
BRANCH  19  22
HETATM   22  O   UNK N   1      34.807  18.471   7.725  0.00  0.00    -0.361 OA
HETATM   23  H   UNK N   1      34.879  18.653   8.642  0.00  0.00     0.217 HD
ENDBRANCH  19  22
ENDBRANCH   7  16
BRANCH   4  24
HETATM   24  C   UNK N   1      28.032  14.572   2.300  0.00  0.00     0.292 C 
HETATM   25  O   UNK N   1      28.461  15.090   1.277  0.00  0.00    -0.259 OA
BRANCH  24  26
HETATM   26  O   UNK N   1      26.940  13.774   2.243  0.00  0.00    -0.323 OA
HETATM   27  C   UNK N   1      26.927  12.507   2.781  0.00  0.00     0.213 C 
ENDBRANCH  24  26
ENDBRANCH   4  24
BRANCH   5  28
HETATM   28  C   UNK N   1      30.959  13.502   3.302  0.00  0.00     0.292 C 
HETATM   29  O   UNK N   1      30.658  12.620   2.515  0.00  0.00    -0.259 OA
BRANCH  28  30
HETATM   30  O   UNK N   1      32.263  13.760   3.572  0.00  0.00    -0.323 OA
HETATM   31  C   UNK N   1      33.047  14.549   2.764  0.00  0.00     0.213 C 
ENDBRANCH  28  30
ENDBRANCH   5  28
TORSDOF 8
ENDMDL
