MODEL 1
REMARK VINA RESULT:      -7.1      0.000      0.000
REMARK  3 active torsions:
REMARK  status: ('A' for Active; 'I' for Inactive)
REMARK    1  A    between atoms: C_4  and  O_12 
REMARK    2  A    between atoms: C_16  and  C_17 
REMARK    3  A    between atoms: C_19  and  O_20 
ROOT
HETATM    1  C   UNK N   1      26.796  22.309  -8.317  0.00  0.00     0.028 C 
HETATM    2  C   UNK N   1      28.016  21.685  -7.657  0.00  0.00    -0.018 A 
HETATM    3  C   UNK N   1      28.679  20.610  -8.264  0.00  0.00     0.046 A 
HETATM    4  C   UNK N   1      29.814  20.054  -7.665  0.00  0.00     0.066 A 
HETATM    5  C   UNK N   1      30.285  20.559  -6.450  0.00  0.00     0.039 A 
HETATM    6  C   UNK N   1      24.779  21.333  -7.343  0.00  0.00     0.001 C 
HETATM    7  C   UNK N   1      25.253  22.498  -6.488  0.00  0.00     0.008 C 
HETATM    8  C   UNK N   1      26.113  23.343  -7.415  0.00  0.00     0.028 C 
HETATM    9  C   UNK N   1      29.641  21.641  -5.844  0.00  0.00     0.040 A 
HETATM   10  C   UNK N   1      28.523  22.220  -6.451  0.00  0.00     0.076 A 
HETATM   11  O   UNK N   1      27.954  23.318  -5.898  0.00  0.00    -0.340 OA
HETATM   12  C   UNK N   1      27.164  24.175  -6.651  0.00  0.00     0.166 C 
HETATM   13  C   UNK N   1      25.694  21.287  -8.563  0.00  0.00     0.010 C 
ENDROOT
BRANCH  12  14
HETATM   14  C   UNK N   1      26.624  25.279  -5.773  0.00  0.00    -0.028 A 
HETATM   15  C   UNK N   1      25.709  26.232  -6.252  0.00  0.00     0.012 A 
HETATM   16  C   UNK N   1      25.268  27.266  -5.420  0.00  0.00     0.037 A 
HETATM   17  C   UNK N   1      25.735  27.355  -4.106  0.00  0.00     0.065 A 
HETATM   18  C   UNK N   1      26.642  26.409  -3.621  0.00  0.00     0.037 A 
HETATM   19  C   UNK N   1      27.088  25.380  -4.453  0.00  0.00     0.012 A 
BRANCH  17  20
HETATM   20  O   UNK N   1      25.316  28.351  -3.309  0.00  0.00    -0.361 OA
HETATM   21  H   UNK N   1      25.917  28.990  -2.981  0.00  0.00     0.217 HD
ENDBRANCH  17  20
ENDBRANCH  12  14
BRANCH   4  22
HETATM   22  O   UNK N   1      30.453  19.034  -8.258  0.00  0.00    -0.361 OA
HETATM   23  H   UNK N   1      31.086  19.197  -8.931  0.00  0.00     0.217 HD
ENDBRANCH   4  22
TORSDOF 3
ENDMDL
MODEL 2
REMARK VINA RESULT:      -7.1     15.440     17.683
REMARK  3 active torsions:
REMARK  status: ('A' for Active; 'I' for Inactive)
REMARK    1  A    between atoms: C_4  and  O_12 
REMARK    2  A    between atoms: C_16  and  C_17 
REMARK    3  A    between atoms: C_19  and  O_20 
ROOT
HETATM    1  C   UNK N   1      31.455  16.270   6.050  0.00  0.00     0.028 C 
HETATM    2  C   UNK N   1      30.598  17.147   6.950  0.00  0.00    -0.018 A 
HETATM    3  C   UNK N   1      29.343  17.597   6.516  0.00  0.00     0.046 A 
HETATM    4  C   UNK N   1      28.549  18.384   7.355  0.00  0.00     0.066 A 
HETATM    5  C   UNK N   1      29.008  18.737   8.627  0.00  0.00     0.039 A 
HETATM    6  C   UNK N   1      33.068  17.678   4.872  0.00  0.00     0.001 C 
HETATM    7  C   UNK N   1      33.620  17.291   6.236  0.00  0.00     0.008 C 
HETATM    8  C   UNK N   1      32.855  16.037   6.629  0.00  0.00     0.028 C 
HETATM    9  C   UNK N   1      30.249  18.281   9.076  0.00  0.00     0.040 A 
HETATM   10  C   UNK N   1      31.037  17.471   8.254  0.00  0.00     0.076 A 
HETATM   11  O   UNK N   1      32.203  16.968   8.727  0.00  0.00    -0.340 OA
HETATM   12  C   UNK N   1      32.784  15.843   8.158  0.00  0.00     0.166 C 
HETATM   13  C   UNK N   1      31.745  16.936   4.711  0.00  0.00     0.010 C 
ENDROOT
BRANCH  12  14
HETATM   14  C   UNK N   1      34.092  15.537   8.848  0.00  0.00    -0.028 A 
HETATM   15  C   UNK N   1      34.574  16.318   9.912  0.00  0.00     0.012 A 
HETATM   16  C   UNK N   1      35.813  16.029  10.494  0.00  0.00     0.037 A 
HETATM   17  C   UNK N   1      36.576  14.958  10.020  0.00  0.00     0.065 A 
HETATM   18  C   UNK N   1      36.101  14.174   8.967  0.00  0.00     0.037 A 
HETATM   19  C   UNK N   1      34.868  14.467   8.380  0.00  0.00     0.012 A 
BRANCH  17  20
HETATM   20  O   UNK N   1      37.767  14.684  10.576  0.00  0.00    -0.361 OA
HETATM   21  H   UNK N   1      38.232  15.337  11.061  0.00  0.00     0.217 HD
ENDBRANCH  17  20
ENDBRANCH  12  14
BRANCH   4  22
HETATM   22  O   UNK N   1      27.342  18.799   6.940  0.00  0.00    -0.361 OA
HETATM   23  H   UNK N   1      26.633  18.191   6.854  0.00  0.00     0.217 HD
ENDBRANCH   4  22
TORSDOF 3
ENDMDL
MODEL 3
REMARK VINA RESULT:      -7.0     23.709     25.705
REMARK  3 active torsions:
REMARK  status: ('A' for Active; 'I' for Inactive)
REMARK    1  A    between atoms: C_4  and  O_12 
REMARK    2  A    between atoms: C_16  and  C_17 
REMARK    3  A    between atoms: C_19  and  O_20 
ROOT
HETATM    1  C   UNK N   1      35.823  10.870  15.776  0.00  0.00     0.028 C 
HETATM    2  C   UNK N   1      35.603  11.879  16.894  0.00  0.00    -0.018 A 
HETATM    3  C   UNK N   1      35.473  11.450  18.221  0.00  0.00     0.046 A 
HETATM    4  C   UNK N   1      35.293  12.382  19.248  0.00  0.00     0.066 A 
HETATM    5  C   UNK N   1      35.229  13.747  18.953  0.00  0.00     0.039 A 
HETATM    6  C   UNK N   1      33.672  10.354  14.738  0.00  0.00     0.001 C 
HETATM    7  C   UNK N   1      34.267  11.601  14.100  0.00  0.00     0.008 C 
HETATM    8  C   UNK N   1      35.757  11.518  14.389  0.00  0.00     0.028 C 
HETATM    9  C   UNK N   1      35.373  14.187  17.635  0.00  0.00     0.040 A 
HETATM   10  C   UNK N   1      35.581  13.263  16.607  0.00  0.00     0.076 A 
HETATM   11  O   UNK N   1      35.799  13.703  15.345  0.00  0.00    -0.340 OA
HETATM   12  C   UNK N   1      36.435  12.904  14.405  0.00  0.00     0.166 C 
HETATM   13  C   UNK N   1      34.713   9.828  15.721  0.00  0.00     0.010 C 
ENDROOT
BRANCH  12  14
HETATM   14  C   UNK N   1      36.499  13.624  13.079  0.00  0.00    -0.028 A 
HETATM   15  C   UNK N   1      35.928  14.895  12.892  0.00  0.00     0.012 A 
HETATM   16  C   UNK N   1      35.970  15.509  11.636  0.00  0.00     0.037 A 
HETATM   17  C   UNK N   1      36.582  14.860  10.560  0.00  0.00     0.065 A 
HETATM   18  C   UNK N   1      37.156  13.599  10.739  0.00  0.00     0.037 A 
HETATM   19  C   UNK N   1      37.109  12.982  11.991  0.00  0.00     0.012 A 
BRANCH  17  20
HETATM   20  O   UNK N   1      36.617  15.447   9.353  0.00  0.00    -0.361 OA
HETATM   21  H   UNK N   1      37.127  16.219   9.209  0.00  0.00     0.217 HD
ENDBRANCH  17  20
ENDBRANCH  12  14
BRANCH   4  22
HETATM   22  O   UNK N   1      35.184  11.966  20.520  0.00  0.00    -0.361 OA
HETATM   23  H   UNK N   1      35.827  12.212  21.157  0.00  0.00     0.217 HD
ENDBRANCH   4  22
TORSDOF 3
ENDMDL
MODEL 4
REMARK VINA RESULT:      -7.0     12.234     13.463
REMARK  3 active torsions:
REMARK  status: ('A' for Active; 'I' for Inactive)
REMARK    1  A    between atoms: C_4  and  O_12 
REMARK    2  A    between atoms: C_16  and  C_17 
REMARK    3  A    between atoms: C_19  and  O_20 
ROOT
HETATM    1  C   UNK N   1      28.816  16.869   7.149  0.00  0.00     0.028 C 
HETATM    2  C   UNK N   1      30.117  16.928   6.362  0.00  0.00    -0.018 A 
HETATM    3  C   UNK N   1      31.251  16.239   6.814  0.00  0.00     0.046 A 
HETATM    4  C   UNK N   1      32.438  16.277   6.076  0.00  0.00     0.066 A 
HETATM    5  C   UNK N   1      32.503  17.014   4.889  0.00  0.00     0.039 A 
HETATM    6  C   UNK N   1      28.667  18.840   8.585  0.00  0.00     0.001 C 
HETATM    7  C   UNK N   1      28.132  19.170   7.199  0.00  0.00     0.008 C 
HETATM    8  C   UNK N   1      27.757  17.827   6.593  0.00  0.00     0.028 C 
HETATM    9  C   UNK N   1      31.373  17.691   4.422  0.00  0.00     0.040 A 
HETATM   10  C   UNK N   1      30.175  17.634   5.140  0.00  0.00     0.076 A 
HETATM   11  O   UNK N   1      29.065  18.227   4.639  0.00  0.00    -0.340 OA
HETATM   12  C   UNK N   1      27.797  17.843   5.051  0.00  0.00     0.166 C 
HETATM   13  C   UNK N   1      28.994  17.350   8.584  0.00  0.00     0.010 C 
ENDROOT
BRANCH  12  14
HETATM   14  C   UNK N   1      26.756  18.699   4.370  0.00  0.00    -0.028 A 
HETATM   15  C   UNK N   1      25.398  18.338   4.340  0.00  0.00     0.012 A 
HETATM   16  C   UNK N   1      24.472  19.135   3.659  0.00  0.00     0.037 A 
HETATM   17  C   UNK N   1      24.894  20.297   3.007  0.00  0.00     0.065 A 
HETATM   18  C   UNK N   1      26.241  20.665   3.037  0.00  0.00     0.037 A 
HETATM   19  C   UNK N   1      27.167  19.866   3.710  0.00  0.00     0.012 A 
BRANCH  17  20
HETATM   20  O   UNK N   1      24.005  21.059   2.350  0.00  0.00    -0.361 OA
HETATM   21  H   UNK N   1      24.290  21.747   1.781  0.00  0.00     0.217 HD
ENDBRANCH  17  20
ENDBRANCH  12  14
BRANCH   4  22
HETATM   22  O   UNK N   1      33.517  15.604   6.505  0.00  0.00    -0.361 OA
HETATM   23  H   UNK N   1      34.364  16.005   6.489  0.00  0.00     0.217 HD
ENDBRANCH   4  22
TORSDOF 3
ENDMDL
MODEL 5
REMARK VINA RESULT:      -6.8     23.105     25.024
REMARK  3 active torsions:
REMARK  status: ('A' for Active; 'I' for Inactive)
REMARK    1  A    between atoms: C_4  and  O_12 
REMARK    2  A    between atoms: C_16  and  C_17 
REMARK    3  A    between atoms: C_19  and  O_20 
ROOT
HETATM    1  C   UNK N   1      35.622  11.492  12.486  0.00  0.00     0.028 C 
HETATM    2  C   UNK N   1      35.714  12.921  11.972  0.00  0.00    -0.018 A 
HETATM    3  C   UNK N   1      35.700  13.182  10.595  0.00  0.00     0.046 A 
HETATM    4  C   UNK N   1      35.762  14.498  10.128  0.00  0.00     0.066 A 
HETATM    5  C   UNK N   1      35.853  15.560  11.032  0.00  0.00     0.039 A 
HETATM    6  C   UNK N   1      37.875  10.664  12.943  0.00  0.00     0.001 C 
HETATM    7  C   UNK N   1      37.349  11.423  14.152  0.00  0.00     0.008 C 
HETATM    8  C   UNK N   1      35.836  11.405  14.001  0.00  0.00     0.028 C 
HETATM    9  C   UNK N   1      35.852  15.312  12.407  0.00  0.00     0.040 A 
HETATM   10  C   UNK N   1      35.762  14.001  12.882  0.00  0.00     0.076 A 
HETATM   11  O   UNK N   1      35.681  13.775  14.216  0.00  0.00    -0.340 OA
HETATM   12  C   UNK N   1      35.156  12.592  14.714  0.00  0.00     0.166 C 
HETATM   13  C   UNK N   1      36.734  10.612  11.931  0.00  0.00     0.010 C 
ENDROOT
BRANCH  12  14
HETATM   14  C   UNK N   1      35.234  12.591  16.222  0.00  0.00    -0.028 A 
HETATM   15  C   UNK N   1      35.222  11.401  16.969  0.00  0.00     0.012 A 
HETATM   16  C   UNK N   1      35.250  11.445  18.367  0.00  0.00     0.037 A 
HETATM   17  C   UNK N   1      35.291  12.676  19.027  0.00  0.00     0.065 A 
HETATM   18  C   UNK N   1      35.307  13.863  18.292  0.00  0.00     0.037 A 
HETATM   19  C   UNK N   1      35.272  13.821  16.897  0.00  0.00     0.012 A 
BRANCH  17  20
HETATM   20  O   UNK N   1      35.312  12.718  20.369  0.00  0.00    -0.361 OA
HETATM   21  H   UNK N   1      36.017  12.333  20.851  0.00  0.00     0.217 HD
ENDBRANCH  17  20
ENDBRANCH  12  14
BRANCH   4  22
HETATM   22  O   UNK N   1      35.733  14.743   8.808  0.00  0.00    -0.361 OA
HETATM   23  H   UNK N   1      36.397  15.270   8.408  0.00  0.00     0.217 HD
ENDBRANCH   4  22
TORSDOF 3
ENDMDL
MODEL 6
REMARK VINA RESULT:      -6.8     12.284     13.491
REMARK  3 active torsions:
REMARK  status: ('A' for Active; 'I' for Inactive)
REMARK    1  A    between atoms: C_4  and  O_12 
REMARK    2  A    between atoms: C_16  and  C_17 
REMARK    3  A    between atoms: C_19  and  O_20 
ROOT
HETATM    1  C   UNK N   1      29.872  17.269   4.823  0.00  0.00     0.028 C 
HETATM    2  C   UNK N   1      29.860  17.439   6.335  0.00  0.00    -0.018 A 
HETATM    3  C   UNK N   1      30.950  17.012   7.106  0.00  0.00     0.046 A 
HETATM    4  C   UNK N   1      30.945  17.191   8.493  0.00  0.00     0.066 A 
HETATM    5  C   UNK N   1      29.846  17.786   9.119  0.00  0.00     0.039 A 
HETATM    6  C   UNK N   1      28.671  15.221   4.246  0.00  0.00     0.001 C 
HETATM    7  C   UNK N   1      27.689  16.374   4.382  0.00  0.00     0.008 C 
HETATM    8  C   UNK N   1      28.525  17.629   4.188  0.00  0.00     0.028 C 
HETATM    9  C   UNK N   1      28.761  18.231   8.358  0.00  0.00     0.040 A 
HETATM   10  C   UNK N   1      28.772  18.080   6.968  0.00  0.00     0.076 A 
HETATM   11  O   UNK N   1      27.753  18.585   6.232  0.00  0.00    -0.340 OA
HETATM   12  C   UNK N   1      27.911  18.863   4.882  0.00  0.00     0.166 C 
HETATM   13  C   UNK N   1      30.066  15.814   4.414  0.00  0.00     0.010 C 
ENDROOT
BRANCH  12  14
HETATM   14  C   UNK N   1      26.609  19.366   4.306  0.00  0.00    -0.028 A 
HETATM   15  C   UNK N   1      25.364  18.880   4.741  0.00  0.00     0.012 A 
HETATM   16  C   UNK N   1      24.182  19.340   4.150  0.00  0.00     0.037 A 
HETATM   17  C   UNK N   1      24.235  20.287   3.123  0.00  0.00     0.065 A 
HETATM   18  C   UNK N   1      25.468  20.777   2.689  0.00  0.00     0.037 A 
HETATM   19  C   UNK N   1      26.649  20.314   3.273  0.00  0.00     0.012 A 
BRANCH  17  20
HETATM   20  O   UNK N   1      23.101  20.723   2.552  0.00  0.00    -0.361 OA
HETATM   21  H   UNK N   1      22.738  21.555   2.781  0.00  0.00     0.217 HD
ENDBRANCH  17  20
ENDBRANCH  12  14
BRANCH   4  22
HETATM   22  O   UNK N   1      31.997  16.793   9.224  0.00  0.00    -0.361 OA
HETATM   23  H   UNK N   1      32.863  17.075   9.003  0.00  0.00     0.217 HD
ENDBRANCH   4  22
TORSDOF 3
ENDMDL
MODEL 7
REMARK VINA RESULT:      -6.6     15.717     17.863
REMARK  3 active torsions:
REMARK  status: ('A' for Active; 'I' for Inactive)
REMARK    1  A    between atoms: C_4  and  O_12 
REMARK    2  A    between atoms: C_16  and  C_17 
REMARK    3  A    between atoms: C_19  and  O_20 
ROOT
HETATM    1  C   UNK N   1      32.556  17.702   7.210  0.00  0.00     0.028 C 
HETATM    2  C   UNK N   1      32.858  17.008   5.890  0.00  0.00    -0.018 A 
HETATM    3  C   UNK N   1      32.271  17.458   4.700  0.00  0.00     0.046 A 
HETATM    4  C   UNK N   1      32.570  16.832   3.486  0.00  0.00     0.066 A 
HETATM    5  C   UNK N   1      33.446  15.743   3.456  0.00  0.00     0.039 A 
HETATM    6  C   UNK N   1      30.780  16.480   8.361  0.00  0.00     0.001 C 
HETATM    7  C   UNK N   1      32.130  15.856   8.684  0.00  0.00     0.008 C 
HETATM    8  C   UNK N   1      33.147  16.952   8.409  0.00  0.00     0.028 C 
HETATM    9  C   UNK N   1      34.050  15.295   4.634  0.00  0.00     0.040 A 
HETATM   10  C   UNK N   1      33.777  15.935   5.847  0.00  0.00     0.076 A 
HETATM   11  O   UNK N   1      34.427  15.545   6.970  0.00  0.00    -0.340 OA
HETATM   12  C   UNK N   1      34.542  16.391   8.064  0.00  0.00     0.166 C 
HETATM   13  C   UNK N   1      31.064  17.719   7.517  0.00  0.00     0.010 C 
ENDROOT
BRANCH  12  14
HETATM   14  C   UNK N   1      35.267  15.685   9.185  0.00  0.00    -0.028 A 
HETATM   15  C   UNK N   1      35.861  14.424   9.010  0.00  0.00     0.012 A 
HETATM   16  C   UNK N   1      36.484  13.783  10.086  0.00  0.00     0.037 A 
HETATM   17  C   UNK N   1      36.519  14.396  11.341  0.00  0.00     0.065 A 
HETATM   18  C   UNK N   1      35.935  15.652  11.521  0.00  0.00     0.037 A 
HETATM   19  C   UNK N   1      35.307  16.290  10.450  0.00  0.00     0.012 A 
BRANCH  17  20
HETATM   20  O   UNK N   1      37.112  13.778  12.375  0.00  0.00    -0.361 OA
HETATM   21  H   UNK N   1      37.177  12.844  12.403  0.00  0.00     0.217 HD
ENDBRANCH  17  20
ENDBRANCH  12  14
BRANCH   4  22
HETATM   22  O   UNK N   1      32.016  17.277   2.348  0.00  0.00    -0.361 OA
HETATM   23  H   UNK N   1      32.389  17.050   1.518  0.00  0.00     0.217 HD
ENDBRANCH   4  22
TORSDOF 3
ENDMDL
MODEL 8
REMARK VINA RESULT:      -6.6     12.691     14.349
REMARK  3 active torsions:
REMARK  status: ('A' for Active; 'I' for Inactive)
REMARK    1  A    between atoms: C_4  and  O_12 
REMARK    2  A    between atoms: C_16  and  C_17 
REMARK    3  A    between atoms: C_19  and  O_20 
ROOT
HETATM    1  C   UNK N   1      26.924  17.947   3.855  0.00  0.00     0.028 C 
HETATM    2  C   UNK N   1      26.238  17.030   4.856  0.00  0.00    -0.018 A 
HETATM    3  C   UNK N   1      24.873  16.737   4.731  0.00  0.00     0.046 A 
HETATM    4  C   UNK N   1      24.252  15.876   5.640  0.00  0.00     0.066 A 
HETATM    5  C   UNK N   1      24.986  15.312   6.687  0.00  0.00     0.039 A 
HETATM    6  C   UNK N   1      26.998  20.211   4.772  0.00  0.00     0.001 C 
HETATM    7  C   UNK N   1      28.192  19.412   5.273  0.00  0.00     0.008 C 
HETATM    8  C   UNK N   1      28.362  18.284   4.267  0.00  0.00     0.028 C 
HETATM    9  C   UNK N   1      26.351  15.585   6.813  0.00  0.00     0.040 A 
HETATM   10  C   UNK N   1      26.985  16.423   5.891  0.00  0.00     0.076 A 
HETATM   11  O   UNK N   1      28.323  16.618   5.973  0.00  0.00    -0.340 OA
HETATM   12  C   UNK N   1      29.055  17.048   4.876  0.00  0.00     0.166 C 
HETATM   13  C   UNK N   1      26.258  19.315   3.783  0.00  0.00     0.010 C 
ENDROOT
BRANCH  12  14
HETATM   14  C   UNK N   1      30.504  17.227   5.264  0.00  0.00    -0.028 A 
HETATM   15  C   UNK N   1      31.510  17.448   4.309  0.00  0.00     0.012 A 
HETATM   16  C   UNK N   1      32.847  17.563   4.706  0.00  0.00     0.037 A 
HETATM   17  C   UNK N   1      33.187  17.458   6.058  0.00  0.00     0.065 A 
HETATM   18  C   UNK N   1      32.192  17.243   7.013  0.00  0.00     0.037 A 
HETATM   19  C   UNK N   1      30.858  17.121   6.618  0.00  0.00     0.012 A 
BRANCH  17  20
HETATM   20  O   UNK N   1      34.470  17.563   6.437  0.00  0.00    -0.361 OA
HETATM   21  H   UNK N   1      34.769  18.306   6.922  0.00  0.00     0.217 HD
ENDBRANCH  17  20
ENDBRANCH  12  14
BRANCH   4  22
HETATM   22  O   UNK N   1      22.948  15.587   5.506  0.00  0.00    -0.361 OA
HETATM   23  H   UNK N   1      22.626  14.732   5.718  0.00  0.00     0.217 HD
ENDBRANCH   4  22
TORSDOF 3
ENDMDL
MODEL 9
REMARK VINA RESULT:      -6.6      2.795      7.030
REMARK  3 active torsions:
REMARK  status: ('A' for Active; 'I' for Inactive)
REMARK    1  A    between atoms: C_4  and  O_12 
REMARK    2  A    between atoms: C_16  and  C_17 
REMARK    3  A    between atoms: C_19  and  O_20 
ROOT
HETATM    1  C   UNK N   1      26.644  24.944  -3.789  0.00  0.00     0.028 C 
HETATM    2  C   UNK N   1      27.135  26.382  -3.866  0.00  0.00    -0.018 A 
HETATM    3  C   UNK N   1      26.231  27.447  -3.762  0.00  0.00     0.046 A 
HETATM    4  C   UNK N   1      26.690  28.768  -3.811  0.00  0.00     0.066 A 
HETATM    5  C   UNK N   1      28.052  29.031  -3.977  0.00  0.00     0.039 A 
HETATM    6  C   UNK N   1      26.343  24.085  -6.057  0.00  0.00     0.001 C 
HETATM    7  C   UNK N   1      27.790  23.902  -5.624  0.00  0.00     0.008 C 
HETATM    8  C   UNK N   1      27.753  23.934  -4.104  0.00  0.00     0.028 C 
HETATM    9  C   UNK N   1      28.965  27.976  -4.065  0.00  0.00     0.040 A 
HETATM   10  C   UNK N   1      28.517  26.654  -3.989  0.00  0.00     0.076 A 
HETATM   11  O   UNK N   1      29.415  25.641  -3.996  0.00  0.00    -0.340 OA
HETATM   12  C   UNK N   1      29.092  24.390  -3.489  0.00  0.00     0.166 C 
HETATM   13  C   UNK N   1      25.594  24.642  -4.850  0.00  0.00     0.010 C 
ENDROOT
BRANCH  12  14
HETATM   14  C   UNK N   1      30.258  23.447  -3.669  0.00  0.00    -0.028 A 
HETATM   15  C   UNK N   1      31.466  23.858  -4.259  0.00  0.00     0.012 A 
HETATM   16  C   UNK N   1      32.505  22.942  -4.449  0.00  0.00     0.037 A 
HETATM   17  C   UNK N   1      32.347  21.612  -4.050  0.00  0.00     0.065 A 
HETATM   18  C   UNK N   1      31.152  21.197  -3.458  0.00  0.00     0.037 A 
HETATM   19  C   UNK N   1      30.111  22.109  -3.275  0.00  0.00     0.012 A 
BRANCH  17  20
HETATM   20  O   UNK N   1      33.344  20.731  -4.237  0.00  0.00    -0.361 OA
HETATM   21  H   UNK N   1      33.511  20.055  -3.611  0.00  0.00     0.217 HD
ENDBRANCH  17  20
ENDBRANCH  12  14
BRANCH   4  22
HETATM   22  O   UNK N   1      25.821  29.784  -3.696  0.00  0.00    -0.361 OA
HETATM   23  H   UNK N   1      25.122  29.744  -3.072  0.00  0.00     0.217 HD
ENDBRANCH   4  22
TORSDOF 3
ENDMDL
