MODEL 1
REMARK VINA RESULT:      -7.9      0.000      0.000
REMARK  10 active torsions:
REMARK  status: ('A' for Active; 'I' for Inactive)
REMARK    1  A    between atoms: C_3  and  S_7 
REMARK    2  A    between atoms: S_7  and  N_10 
REMARK    3  A    between atoms: N_10  and  C_11 
REMARK    4  A    between atoms: C_11  and  C_12 
REMARK       I    between atoms: C_12  and  N_14 
REMARK    5  A    between atoms: C_15  and  N_14 
REMARK    6  A    between atoms: C_15  and  C_16 
REMARK    7  A    between atoms: C_15  and  C_25 
REMARK    8  A    between atoms: C_16  and  C_17 
REMARK    9  A    between atoms: C_17  and  N_18 
REMARK   10  A    between atoms: N_18  and  C_19 
REMARK       I    between atoms: C_25  and  N_27 
ROOT
HETATM    1  C   UNK N   1      26.186  26.437  -4.654  0.00  0.00     0.178 C 
ENDROOT
BRANCH   1   2
HETATM    2  N   UNK N   1      26.241  25.415  -3.615  0.00  0.00    -0.346 N 
HETATM    3  C   UNK N   1      27.211  24.498  -3.352  0.00  0.00     0.236 C 
HETATM    4  O   UNK N   1      27.124  23.852  -2.321  0.00  0.00    -0.272 OA
HETATM    5  H   UNK N   1      25.459  25.384  -3.016  0.00  0.00     0.163 HD
BRANCH   3   6
HETATM    6  C   UNK N   1      28.410  24.271  -4.261  0.00  0.00     0.234 C 
BRANCH   6   7
HETATM    7  N   UNK N   1      29.694  24.765  -3.704  0.00  0.00    -0.310 N 
HETATM    8  H   UNK N   1      29.780  25.728  -3.377  0.00  0.00     0.172 HD
BRANCH   7   9
HETATM    9  S   UNK N   1      31.106  23.634  -3.612  0.00  0.00     0.231 S 
HETATM   10  O   UNK N   1      30.798  23.553  -2.108  0.00  0.00    -0.206 OA
HETATM   11  O   UNK N   1      29.923  22.890  -4.242  0.00  0.00    -0.206 OA
BRANCH   9  12
HETATM   12  C   UNK N   1      31.101  21.763  -3.446  0.00  0.00     0.129 C 
HETATM   13  C   UNK N   1      30.764  21.026  -4.772  0.00  0.00     0.022 C 
HETATM   14  C   UNK N   1      31.844  20.047  -5.219  0.00  0.00     0.001 C 
HETATM   15  C   UNK N   1      33.213  20.709  -5.111  0.00  0.00     0.000 C 
HETATM   16  C   UNK N   1      33.546  21.136  -3.673  0.00  0.00     0.001 C 
HETATM   17  C   UNK N   1      32.327  21.121  -2.751  0.00  0.00     0.022 C 
ENDBRANCH   9  12
ENDBRANCH   7   9
ENDBRANCH   6   7
ENDBRANCH   3   6
ENDBRANCH   1   2
BRANCH   1  18
HETATM   18  C   UNK N   1      25.157  26.167  -5.752  0.00  0.00     0.054 C 
BRANCH  18  19
HETATM   19  C   UNK N   1      25.725  25.159  -6.741  0.00  0.00     0.122 C 
BRANCH  19  20
HETATM   20  N   UNK N   1      25.254  23.853  -6.401  0.00  0.00    -0.390 N 
HETATM   21  H   UNK N   1      24.535  23.731  -5.740  0.00  0.00     0.159 HD
BRANCH  20  22
HETATM   22  C   UNK N   1      25.845  22.751  -7.036  0.00  0.00     0.030 A 
HETATM   23  C   UNK N   1      25.031  21.788  -7.626  0.00  0.00     0.046 A 
HETATM   24  C   UNK N   1      25.619  20.735  -8.323  0.00  0.00     0.089 A 
HETATM   25  N   UNK N   1      26.973  20.657  -8.425  0.00  0.00    -0.375 N 
HETATM   26  C   UNK N   1      27.784  21.591  -7.859  0.00  0.00     0.089 A 
HETATM   27  H   UNK N   1      27.375  19.906  -8.919  0.00  0.00     0.164 HD
HETATM   28  C   UNK N   1      27.233  22.665  -7.160  0.00  0.00     0.046 A 
ENDBRANCH  20  22
ENDBRANCH  19  20
ENDBRANCH  18  19
ENDBRANCH   1  18
BRANCH   1  29
HETATM   29  C   UNK N   1      26.053  27.831  -4.076  0.00  0.00     0.242 C 
HETATM   30  O   UNK N   1      25.417  27.997  -3.038  0.00  0.00    -0.271 OA
HETATM   31  N   UNK N   1      26.694  28.893  -4.654  0.00  0.00    -0.350 N 
HETATM   32  C   UNK N   1      26.699  30.189  -4.008  0.00  0.00     0.126 C 
HETATM   33  C   UNK N   1      27.463  28.711  -5.882  0.00  0.00     0.126 C 
HETATM   34  C   UNK N   1      28.148  30.630  -3.743  0.00  0.00     0.020 C 
HETATM   35  C   UNK N   1      29.112  30.267  -4.888  0.00  0.00     0.003 C 
HETATM   36  C   UNK N   1      28.368  29.904  -6.168  0.00  0.00     0.020 C 
ENDBRANCH   1  29
TORSDOF 10
ENDMDL
MODEL 2
REMARK VINA RESULT:      -7.8     16.521     20.467
REMARK  10 active torsions:
REMARK  status: ('A' for Active; 'I' for Inactive)
REMARK    1  A    between atoms: C_3  and  S_7 
REMARK    2  A    between atoms: S_7  and  N_10 
REMARK    3  A    between atoms: N_10  and  C_11 
REMARK    4  A    between atoms: C_11  and  C_12 
REMARK       I    between atoms: C_12  and  N_14 
REMARK    5  A    between atoms: C_15  and  N_14 
REMARK    6  A    between atoms: C_15  and  C_16 
REMARK    7  A    between atoms: C_15  and  C_25 
REMARK    8  A    between atoms: C_16  and  C_17 
REMARK    9  A    between atoms: C_17  and  N_18 
REMARK   10  A    between atoms: N_18  and  C_19 
REMARK       I    between atoms: C_25  and  N_27 
ROOT
HETATM    1  C   UNK N   1      34.038  14.831   8.790  0.00  0.00     0.178 C 
ENDROOT
BRANCH   1   2
HETATM    2  N   UNK N   1      34.766  15.987   9.297  0.00  0.00    -0.346 N 
HETATM    3  C   UNK N   1      35.311  16.196  10.527  0.00  0.00     0.236 C 
HETATM    4  O   UNK N   1      36.029  17.171  10.677  0.00  0.00    -0.272 OA
HETATM    5  H   UNK N   1      34.878  16.726   8.656  0.00  0.00     0.163 HD
BRANCH   3   6
HETATM    6  C   UNK N   1      35.100  15.254  11.703  0.00  0.00     0.234 C 
BRANCH   6   7
HETATM    7  N   UNK N   1      36.330  14.976  12.485  0.00  0.00    -0.310 N 
HETATM    8  H   UNK N   1      37.131  15.606  12.432  0.00  0.00     0.172 HD
BRANCH   7   9
HETATM    9  S   UNK N   1      36.388  13.503  13.537  0.00  0.00     0.231 S 
HETATM   10  O   UNK N   1      36.650  14.479  14.695  0.00  0.00    -0.206 OA
HETATM   11  O   UNK N   1      34.926  13.788  13.176  0.00  0.00    -0.206 OA
BRANCH   9  12
HETATM   12  C   UNK N   1      35.084  12.857  14.725  0.00  0.00     0.129 C 
HETATM   13  C   UNK N   1      34.229  11.702  14.135  0.00  0.00     0.022 C 
HETATM   14  C   UNK N   1      34.274  10.423  14.964  0.00  0.00     0.001 C 
HETATM   15  C   UNK N   1      35.716  10.108  15.345  0.00  0.00     0.000 C 
HETATM   16  C   UNK N   1      36.359  11.224  16.182  0.00  0.00     0.001 C 
HETATM   17  C   UNK N   1      35.553  12.522  16.161  0.00  0.00     0.022 C 
ENDBRANCH   9  12
ENDBRANCH   7   9
ENDBRANCH   6   7
ENDBRANCH   3   6
ENDBRANCH   1   2
BRANCH   1  18
HETATM   18  C   UNK N   1      32.857  15.176   7.883  0.00  0.00     0.054 C 
BRANCH  18  19
HETATM   19  C   UNK N   1      32.524  16.655   8.026  0.00  0.00     0.122 C 
BRANCH  19  20
HETATM   20  N   UNK N   1      31.522  16.814   9.033  0.00  0.00    -0.390 N 
HETATM   21  H   UNK N   1      31.703  16.568   9.969  0.00  0.00     0.159 HD
BRANCH  20  22
HETATM   22  C   UNK N   1      30.275  17.328   8.649  0.00  0.00     0.030 A 
HETATM   23  C   UNK N   1      29.903  17.281   7.308  0.00  0.00     0.046 A 
HETATM   24  C   UNK N   1      28.633  17.721   6.939  0.00  0.00     0.089 A 
HETATM   25  N   UNK N   1      27.772  18.187   7.884  0.00  0.00    -0.375 N 
HETATM   26  C   UNK N   1      28.117  18.235   9.199  0.00  0.00     0.089 A 
HETATM   27  H   UNK N   1      26.879  18.496   7.609  0.00  0.00     0.164 HD
HETATM   28  C   UNK N   1      29.376  17.796   9.610  0.00  0.00     0.046 A 
ENDBRANCH  20  22
ENDBRANCH  19  20
ENDBRANCH  18  19
ENDBRANCH   1  18
BRANCH   1  29
HETATM   29  C   UNK N   1      34.960  13.807   8.161  0.00  0.00     0.242 C 
HETATM   30  O   UNK N   1      35.611  14.111   7.163  0.00  0.00    -0.271 OA
HETATM   31  N   UNK N   1      35.135  12.577   8.732  0.00  0.00    -0.350 N 
HETATM   32  C   UNK N   1      36.139  11.665   8.224  0.00  0.00     0.126 C 
HETATM   33  C   UNK N   1      34.378  12.202   9.924  0.00  0.00     0.126 C 
HETATM   34  C   UNK N   1      37.134  11.314   9.341  0.00  0.00     0.020 C 
HETATM   35  C   UNK N   1      36.465  11.132  10.716  0.00  0.00     0.003 C 
HETATM   36  C   UNK N   1      34.954  10.963  10.599  0.00  0.00     0.020 C 
ENDBRANCH   1  29
TORSDOF 10
ENDMDL
MODEL 3
REMARK VINA RESULT:      -7.8     14.680     18.310
REMARK  10 active torsions:
REMARK  status: ('A' for Active; 'I' for Inactive)
REMARK    1  A    between atoms: C_3  and  S_7 
REMARK    2  A    between atoms: S_7  and  N_10 
REMARK    3  A    between atoms: N_10  and  C_11 
REMARK    4  A    between atoms: C_11  and  C_12 
REMARK       I    between atoms: C_12  and  N_14 
REMARK    5  A    between atoms: C_15  and  N_14 
REMARK    6  A    between atoms: C_15  and  C_16 
REMARK    7  A    between atoms: C_15  and  C_25 
REMARK    8  A    between atoms: C_16  and  C_17 
REMARK    9  A    between atoms: C_17  and  N_18 
REMARK   10  A    between atoms: N_18  and  C_19 
REMARK       I    between atoms: C_25  and  N_27 
ROOT
HETATM    1  C   UNK N   1      33.205  16.973   8.409  0.00  0.00     0.178 C 
ENDROOT
BRANCH   1   2
HETATM    2  N   UNK N   1      34.203  17.471   9.347  0.00  0.00    -0.346 N 
HETATM    3  C   UNK N   1      35.079  16.781  10.128  0.00  0.00     0.236 C 
HETATM    4  O   UNK N   1      35.947  17.410  10.710  0.00  0.00    -0.272 OA
HETATM    5  H   UNK N   1      34.251  18.451   9.428  0.00  0.00     0.163 HD
BRANCH   3   6
HETATM    6  C   UNK N   1      35.048  15.267  10.276  0.00  0.00     0.234 C 
BRANCH   6   7
HETATM    7  N   UNK N   1      36.225  14.702  10.982  0.00  0.00    -0.310 N 
HETATM    8  H   UNK N   1      37.132  14.652  10.516  0.00  0.00     0.172 HD
BRANCH   7   9
HETATM    9  S   UNK N   1      36.030  14.105  12.680  0.00  0.00     0.231 S 
HETATM   10  O   UNK N   1      34.547  13.912  12.321  0.00  0.00    -0.206 OA
HETATM   11  O   UNK N   1      36.724  13.015  11.855  0.00  0.00    -0.206 OA
BRANCH   9  12
HETATM   12  C   UNK N   1      35.840  12.337  13.288  0.00  0.00     0.129 C 
HETATM   13  C   UNK N   1      37.092  11.806  14.039  0.00  0.00     0.022 C 
HETATM   14  C   UNK N   1      36.797  11.333  15.459  0.00  0.00     0.001 C 
HETATM   15  C   UNK N   1      35.933  12.366  16.174  0.00  0.00     0.000 C 
HETATM   16  C   UNK N   1      34.584  12.588  15.473  0.00  0.00     0.001 C 
HETATM   17  C   UNK N   1      34.543  12.002  14.062  0.00  0.00     0.022 C 
ENDBRANCH   9  12
ENDBRANCH   7   9
ENDBRANCH   6   7
ENDBRANCH   3   6
ENDBRANCH   1   2
BRANCH   1  18
HETATM   18  C   UNK N   1      31.889  17.751   8.415  0.00  0.00     0.054 C 
BRANCH  18  19
HETATM   19  C   UNK N   1      30.766  16.850   7.923  0.00  0.00     0.122 C 
BRANCH  19  20
HETATM   20  N   UNK N   1      29.768  17.650   7.288  0.00  0.00    -0.390 N 
HETATM   21  H   UNK N   1      29.224  18.288   7.806  0.00  0.00     0.159 HD
BRANCH  20  22
HETATM   22  C   UNK N   1      29.583  17.503   5.905  0.00  0.00     0.030 A 
HETATM   23  C   UNK N   1      30.567  16.869   5.151  0.00  0.00     0.046 A 
HETATM   24  C   UNK N   1      30.350  16.653   3.792  0.00  0.00     0.089 A 
HETATM   25  N   UNK N   1      29.184  17.057   3.216  0.00  0.00    -0.375 N 
HETATM   26  C   UNK N   1      28.210  17.674   3.938  0.00  0.00     0.089 A 
HETATM   27  H   UNK N   1      29.044  16.900   2.254  0.00  0.00     0.164 HD
HETATM   28  C   UNK N   1      28.387  17.900   5.303  0.00  0.00     0.046 A 
ENDBRANCH  20  22
ENDBRANCH  19  20
ENDBRANCH  18  19
ENDBRANCH   1  18
BRANCH   1  29
HETATM   29  C   UNK N   1      33.766  16.811   7.012  0.00  0.00     0.242 C 
HETATM   30  O   UNK N   1      34.228  17.789   6.428  0.00  0.00    -0.271 OA
HETATM   31  N   UNK N   1      33.833  15.578   6.422  0.00  0.00    -0.350 N 
HETATM   32  C   UNK N   1      34.519  15.402   5.159  0.00  0.00     0.126 C 
HETATM   33  C   UNK N   1      33.299  14.403   7.106  0.00  0.00     0.126 C 
HETATM   34  C   UNK N   1      35.653  14.378   5.321  0.00  0.00     0.020 C 
HETATM   35  C   UNK N   1      35.277  13.197   6.234  0.00  0.00     0.003 C 
HETATM   36  C   UNK N   1      33.772  13.105   6.462  0.00  0.00     0.020 C 
ENDBRANCH   1  29
TORSDOF 10
ENDMDL
MODEL 4
REMARK VINA RESULT:      -7.8     13.347     14.863
REMARK  10 active torsions:
REMARK  status: ('A' for Active; 'I' for Inactive)
REMARK    1  A    between atoms: C_3  and  S_7 
REMARK    2  A    between atoms: S_7  and  N_10 
REMARK    3  A    between atoms: N_10  and  C_11 
REMARK    4  A    between atoms: C_11  and  C_12 
REMARK       I    between atoms: C_12  and  N_14 
REMARK    5  A    between atoms: C_15  and  N_14 
REMARK    6  A    between atoms: C_15  and  C_16 
REMARK    7  A    between atoms: C_15  and  C_25 
REMARK    8  A    between atoms: C_16  and  C_17 
REMARK    9  A    between atoms: C_17  and  N_18 
REMARK   10  A    between atoms: N_18  and  C_19 
REMARK       I    between atoms: C_25  and  N_27 
ROOT
HETATM    1  C   UNK N   1      21.933  18.835   3.670  0.00  0.00     0.178 C 
ENDROOT
BRANCH   1   2
HETATM    2  N   UNK N   1      21.388  19.100   4.995  0.00  0.00    -0.346 N 
HETATM    3  C   UNK N   1      21.336  18.290   6.088  0.00  0.00     0.236 C 
HETATM    4  O   UNK N   1      20.989  18.782   7.149  0.00  0.00    -0.272 OA
HETATM    5  H   UNK N   1      20.999  19.996   5.117  0.00  0.00     0.163 HD
BRANCH   3   6
HETATM    6  C   UNK N   1      21.726  16.820   6.055  0.00  0.00     0.234 C 
BRANCH   6   7
HETATM    7  N   UNK N   1      20.793  15.928   6.787  0.00  0.00    -0.310 N 
HETATM    8  H   UNK N   1      19.798  15.920   6.557  0.00  0.00     0.172 HD
BRANCH   7   9
HETATM    9  S   UNK N   1      21.443  14.853   8.090  0.00  0.00     0.231 S 
HETATM   10  O   UNK N   1      20.325  13.878   7.688  0.00  0.00    -0.206 OA
HETATM   11  O   UNK N   1      22.394  14.796   6.889  0.00  0.00    -0.206 OA
BRANCH   9  12
HETATM   12  C   UNK N   1      22.494  13.305   7.919  0.00  0.00     0.129 C 
HETATM   13  C   UNK N   1      23.991  13.534   8.265  0.00  0.00     0.022 C 
HETATM   14  C   UNK N   1      24.507  12.629   9.378  0.00  0.00     0.001 C 
HETATM   15  C   UNK N   1      23.512  12.617  10.533  0.00  0.00     0.000 C 
HETATM   16  C   UNK N   1      22.132  12.091  10.113  0.00  0.00     0.001 C 
HETATM   17  C   UNK N   1      21.958  12.020   8.596  0.00  0.00     0.022 C 
ENDBRANCH   9  12
ENDBRANCH   7   9
ENDBRANCH   6   7
ENDBRANCH   3   6
ENDBRANCH   1   2
BRANCH   1  18
HETATM   18  C   UNK N   1      20.885  18.758   2.559  0.00  0.00     0.054 C 
BRANCH  18  19
HETATM   19  C   UNK N   1      19.960  17.577   2.818  0.00  0.00     0.122 C 
BRANCH  19  20
HETATM   20  N   UNK N   1      20.400  16.459   2.046  0.00  0.00    -0.390 N 
HETATM   21  H   UNK N   1      20.329  16.463   1.064  0.00  0.00     0.159 HD
BRANCH  20  22
HETATM   22  C   UNK N   1      20.936  15.355   2.726  0.00  0.00     0.030 A 
HETATM   23  C   UNK N   1      22.317  15.184   2.764  0.00  0.00     0.046 A 
HETATM   24  C   UNK N   1      22.852  14.132   3.505  0.00  0.00     0.089 A 
HETATM   25  N   UNK N   1      22.028  13.289   4.183  0.00  0.00    -0.375 N 
HETATM   26  C   UNK N   1      20.676  13.443   4.162  0.00  0.00     0.089 A 
HETATM   27  H   UNK N   1      22.419  12.548   4.701  0.00  0.00     0.164 HD
HETATM   28  C   UNK N   1      20.103  14.490   3.438  0.00  0.00     0.046 A 
ENDBRANCH  20  22
ENDBRANCH  19  20
ENDBRANCH  18  19
ENDBRANCH   1  18
BRANCH   1  29
HETATM   29  C   UNK N   1      23.066  19.778   3.320  0.00  0.00     0.242 C 
HETATM   30  O   UNK N   1      22.811  20.928   2.973  0.00  0.00    -0.271 OA
HETATM   31  N   UNK N   1      24.371  19.388   3.461  0.00  0.00    -0.350 N 
HETATM   32  C   UNK N   1      25.447  20.341   3.286  0.00  0.00     0.126 C 
HETATM   33  C   UNK N   1      24.693  18.028   3.884  0.00  0.00     0.126 C 
HETATM   34  C   UNK N   1      26.285  20.419   4.571  0.00  0.00     0.020 C 
HETATM   35  C   UNK N   1      26.489  19.050   5.247  0.00  0.00     0.003 C 
HETATM   36  C   UNK N   1      26.150  17.894   4.312  0.00  0.00     0.020 C 
ENDBRANCH   1  29
TORSDOF 10
ENDMDL
MODEL 5
REMARK VINA RESULT:      -7.8     18.122     22.289
REMARK  10 active torsions:
REMARK  status: ('A' for Active; 'I' for Inactive)
REMARK    1  A    between atoms: C_3  and  S_7 
REMARK    2  A    between atoms: S_7  and  N_10 
REMARK    3  A    between atoms: N_10  and  C_11 
REMARK    4  A    between atoms: C_11  and  C_12 
REMARK       I    between atoms: C_12  and  N_14 
REMARK    5  A    between atoms: C_15  and  N_14 
REMARK    6  A    between atoms: C_15  and  C_16 
REMARK    7  A    between atoms: C_15  and  C_25 
REMARK    8  A    between atoms: C_16  and  C_17 
REMARK    9  A    between atoms: C_17  and  N_18 
REMARK   10  A    between atoms: N_18  and  C_19 
REMARK       I    between atoms: C_25  and  N_27 
ROOT
HETATM    1  C   UNK N   1      35.934  15.077  11.161  0.00  0.00     0.178 C 
ENDROOT
BRANCH   1   2
HETATM    2  N   UNK N   1      37.254  14.708  10.667  0.00  0.00    -0.346 N 
HETATM    3  C   UNK N   1      37.595  13.928   9.604  0.00  0.00     0.236 C 
HETATM    4  O   UNK N   1      38.767  13.895   9.270  0.00  0.00    -0.272 OA
HETATM    5  H   UNK N   1      38.012  15.075  11.178  0.00  0.00     0.163 HD
BRANCH   3   6
HETATM    6  C   UNK N   1      36.580  13.133   8.796  0.00  0.00     0.234 C 
BRANCH   6   7
HETATM    7  N   UNK N   1      36.484  11.703   9.182  0.00  0.00    -0.310 N 
HETATM    8  H   UNK N   1      36.666  10.969   8.496  0.00  0.00     0.172 HD
BRANCH   7   9
HETATM    9  S   UNK N   1      36.041  11.280  10.886  0.00  0.00     0.231 S 
HETATM   10  O   UNK N   1      34.612  11.695  10.497  0.00  0.00    -0.206 OA
HETATM   11  O   UNK N   1      36.245   9.982  10.097  0.00  0.00    -0.206 OA
BRANCH   9  12
HETATM   12  C   UNK N   1      35.143   9.757  11.521  0.00  0.00     0.129 C 
HETATM   13  C   UNK N   1      36.039   8.830  12.388  0.00  0.00     0.022 C 
HETATM   14  C   UNK N   1      35.490   8.587  13.790  0.00  0.00     0.001 C 
HETATM   15  C   UNK N   1      35.044   9.910  14.403  0.00  0.00     0.000 C 
HETATM   16  C   UNK N   1      33.937  10.591  13.586  0.00  0.00     0.001 C 
HETATM   17  C   UNK N   1      33.768   9.987  12.193  0.00  0.00     0.022 C 
ENDBRANCH   9  12
ENDBRANCH   7   9
ENDBRANCH   6   7
ENDBRANCH   3   6
ENDBRANCH   1   2
BRANCH   1  18
HETATM   18  C   UNK N   1      35.847  15.223  12.681  0.00  0.00     0.054 C 
BRANCH  18  19
HETATM   19  C   UNK N   1      35.972  13.851  13.329  0.00  0.00     0.122 C 
BRANCH  19  20
HETATM   20  N   UNK N   1      36.989  13.898  14.332  0.00  0.00    -0.390 N 
HETATM   21  H   UNK N   1      37.935  13.758  14.099  0.00  0.00     0.159 HD
BRANCH  20  22
HETATM   22  C   UNK N   1      36.600  14.150  15.655  0.00  0.00     0.030 A 
HETATM   23  C   UNK N   1      37.101  15.273  16.310  0.00  0.00     0.046 A 
HETATM   24  C   UNK N   1      36.655  15.565  17.597  0.00  0.00     0.089 A 
HETATM   25  N   UNK N   1      35.737  14.761  18.199  0.00  0.00    -0.375 N 
HETATM   26  C   UNK N   1      35.233  13.663  17.573  0.00  0.00     0.089 A 
HETATM   27  H   UNK N   1      35.432  14.978  19.110  0.00  0.00     0.164 HD
HETATM   28  C   UNK N   1      35.649  13.341  16.281  0.00  0.00     0.046 A 
ENDBRANCH  20  22
ENDBRANCH  19  20
ENDBRANCH  18  19
ENDBRANCH   1  18
BRANCH   1  29
HETATM   29  C   UNK N   1      35.372  16.284  10.439  0.00  0.00     0.242 C 
HETATM   30  O   UNK N   1      35.967  17.358  10.501  0.00  0.00    -0.271 OA
HETATM   31  N   UNK N   1      34.254  16.175   9.658  0.00  0.00    -0.350 N 
HETATM   32  C   UNK N   1      33.816  17.287   8.840  0.00  0.00     0.126 C 
HETATM   33  C   UNK N   1      33.541  14.904   9.564  0.00  0.00     0.126 C 
HETATM   34  C   UNK N   1      33.777  16.861   7.364  0.00  0.00     0.020 C 
HETATM   35  C   UNK N   1      33.260  15.425   7.160  0.00  0.00     0.003 C 
HETATM   36  C   UNK N   1      32.555  14.889   8.401  0.00  0.00     0.020 C 
ENDBRANCH   1  29
TORSDOF 10
ENDMDL
MODEL 6
REMARK VINA RESULT:      -7.8     14.781     18.366
REMARK  10 active torsions:
REMARK  status: ('A' for Active; 'I' for Inactive)
REMARK    1  A    between atoms: C_3  and  S_7 
REMARK    2  A    between atoms: S_7  and  N_10 
REMARK    3  A    between atoms: N_10  and  C_11 
REMARK    4  A    between atoms: C_11  and  C_12 
REMARK       I    between atoms: C_12  and  N_14 
REMARK    5  A    between atoms: C_15  and  N_14 
REMARK    6  A    between atoms: C_15  and  C_16 
REMARK    7  A    between atoms: C_15  and  C_25 
REMARK    8  A    between atoms: C_16  and  C_17 
REMARK    9  A    between atoms: C_17  and  N_18 
REMARK   10  A    between atoms: N_18  and  C_19 
REMARK       I    between atoms: C_25  and  N_27 
ROOT
HETATM    1  C   UNK N   1      33.073  17.207   8.384  0.00  0.00     0.178 C 
ENDROOT
BRANCH   1   2
HETATM    2  N   UNK N   1      34.100  17.494   9.376  0.00  0.00    -0.346 N 
HETATM    3  C   UNK N   1      34.984  16.651   9.978  0.00  0.00     0.236 C 
HETATM    4  O   UNK N   1      35.874  17.141  10.653  0.00  0.00    -0.272 OA
HETATM    5  H   UNK N   1      34.164  18.437   9.654  0.00  0.00     0.163 HD
BRANCH   3   6
HETATM    6  C   UNK N   1      34.935  15.139   9.815  0.00  0.00     0.234 C 
BRANCH   6   7
HETATM    7  N   UNK N   1      35.846  14.401  10.725  0.00  0.00    -0.310 N 
HETATM    8  H   UNK N   1      36.821  14.243  10.465  0.00  0.00     0.172 HD
BRANCH   7   9
HETATM    9  S   UNK N   1      35.205  13.788  12.303  0.00  0.00     0.231 S 
HETATM   10  O   UNK N   1      35.220  12.400  11.641  0.00  0.00    -0.206 OA
HETATM   11  O   UNK N   1      36.696  14.102  12.470  0.00  0.00    -0.206 OA
BRANCH   9  12
HETATM   12  C   UNK N   1      36.116  12.860  13.659  0.00  0.00     0.129 C 
HETATM   13  C   UNK N   1      36.497  13.754  14.871  0.00  0.00     0.022 C 
HETATM   14  C   UNK N   1      35.937  13.256  16.199  0.00  0.00     0.001 C 
HETATM   15  C   UNK N   1      34.467  12.887  16.030  0.00  0.00     0.000 C 
HETATM   16  C   UNK N   1      34.257  11.773  14.994  0.00  0.00     0.001 C 
HETATM   17  C   UNK N   1      35.493  11.523  14.130  0.00  0.00     0.022 C 
ENDBRANCH   9  12
ENDBRANCH   7   9
ENDBRANCH   6   7
ENDBRANCH   3   6
ENDBRANCH   1   2
BRANCH   1  18
HETATM   18  C   UNK N   1      31.866  18.144   8.434  0.00  0.00     0.054 C 
BRANCH  18  19
HETATM   19  C   UNK N   1      30.613  17.340   8.748  0.00  0.00     0.122 C 
BRANCH  19  20
HETATM   20  N   UNK N   1      29.969  16.979   7.524  0.00  0.00    -0.390 N 
HETATM   21  H   UNK N   1      30.224  16.161   7.040  0.00  0.00     0.159 HD
BRANCH  20  22
HETATM   22  C   UNK N   1      28.963  17.824   7.033  0.00  0.00     0.030 A 
HETATM   23  C   UNK N   1      28.300  17.481   5.857  0.00  0.00     0.046 A 
HETATM   24  C   UNK N   1      27.249  18.280   5.411  0.00  0.00     0.089 A 
HETATM   25  N   UNK N   1      26.878  19.378   6.124  0.00  0.00    -0.375 N 
HETATM   26  C   UNK N   1      27.511  19.726   7.277  0.00  0.00     0.089 A 
HETATM   27  H   UNK N   1      26.135  19.935   5.796  0.00  0.00     0.164 HD
HETATM   28  C   UNK N   1      28.563  18.947   7.760  0.00  0.00     0.046 A 
ENDBRANCH  20  22
ENDBRANCH  19  20
ENDBRANCH  18  19
ENDBRANCH   1  18
BRANCH   1  29
HETATM   29  C   UNK N   1      33.646  17.089   6.987  0.00  0.00     0.242 C 
HETATM   30  O   UNK N   1      34.301  18.019   6.520  0.00  0.00    -0.271 OA
HETATM   31  N   UNK N   1      33.510  15.932   6.268  0.00  0.00    -0.350 N 
HETATM   32  C   UNK N   1      34.199  15.764   5.006  0.00  0.00     0.126 C 
HETATM   33  C   UNK N   1      32.746  14.812   6.811  0.00  0.00     0.126 C 
HETATM   34  C   UNK N   1      35.120  14.536   5.076  0.00  0.00     0.020 C 
HETATM   35  C   UNK N   1      34.502  13.357   5.849  0.00  0.00     0.003 C 
HETATM   36  C   UNK N   1      32.998  13.523   6.039  0.00  0.00     0.020 C 
ENDBRANCH   1  29
TORSDOF 10
ENDMDL
MODEL 7
REMARK VINA RESULT:      -7.7     13.509     17.099
REMARK  10 active torsions:
REMARK  status: ('A' for Active; 'I' for Inactive)
REMARK    1  A    between atoms: C_3  and  S_7 
REMARK    2  A    between atoms: S_7  and  N_10 
REMARK    3  A    between atoms: N_10  and  C_11 
REMARK    4  A    between atoms: C_11  and  C_12 
REMARK       I    between atoms: C_12  and  N_14 
REMARK    5  A    between atoms: C_15  and  N_14 
REMARK    6  A    between atoms: C_15  and  C_16 
REMARK    7  A    between atoms: C_15  and  C_25 
REMARK    8  A    between atoms: C_16  and  C_17 
REMARK    9  A    between atoms: C_17  and  N_18 
REMARK   10  A    between atoms: N_18  and  C_19 
REMARK       I    between atoms: C_25  and  N_27 
ROOT
HETATM    1  C   UNK N   1      32.033  17.547   8.018  0.00  0.00     0.178 C 
ENDROOT
BRANCH   1   2
HETATM    2  N   UNK N   1      33.169  18.454   8.129  0.00  0.00    -0.346 N 
HETATM    3  C   UNK N   1      34.433  18.209   8.572  0.00  0.00     0.236 C 
HETATM    4  O   UNK N   1      35.273  19.079   8.414  0.00  0.00    -0.272 OA
HETATM    5  H   UNK N   1      32.996  19.380   7.843  0.00  0.00     0.163 HD
BRANCH   3   6
HETATM    6  C   UNK N   1      34.850  16.894   9.213  0.00  0.00     0.234 C 
BRANCH   6   7
HETATM    7  N   UNK N   1      35.066  16.976  10.679  0.00  0.00    -0.310 N 
HETATM    8  H   UNK N   1      34.947  17.863  11.171  0.00  0.00     0.172 HD
BRANCH   7   9
HETATM    9  S   UNK N   1      35.541  15.481  11.583  0.00  0.00     0.231 S 
HETATM   10  O   UNK N   1      34.107  14.997  11.309  0.00  0.00    -0.206 OA
HETATM   11  O   UNK N   1      36.186  15.438  10.193  0.00  0.00    -0.206 OA
BRANCH   9  12
HETATM   12  C   UNK N   1      35.963  13.782  10.901  0.00  0.00     0.129 C 
HETATM   13  C   UNK N   1      37.446  13.377  11.127  0.00  0.00     0.022 C 
HETATM   14  C   UNK N   1      37.613  12.075  11.903  0.00  0.00     0.001 C 
HETATM   15  C   UNK N   1      36.691  12.080  13.118  0.00  0.00     0.000 C 
HETATM   16  C   UNK N   1      35.210  12.199  12.730  0.00  0.00     0.001 C 
HETATM   17  C   UNK N   1      35.008  12.623  11.276  0.00  0.00     0.022 C 
ENDBRANCH   9  12
ENDBRANCH   7   9
ENDBRANCH   6   7
ENDBRANCH   3   6
ENDBRANCH   1   2
BRANCH   1  18
HETATM   18  C   UNK N   1      30.683  18.183   8.348  0.00  0.00     0.054 C 
BRANCH  18  19
HETATM   19  C   UNK N   1      29.581  17.144   8.187  0.00  0.00     0.122 C 
BRANCH  19  20
HETATM   20  N   UNK N   1      28.352  17.808   7.888  0.00  0.00    -0.390 N 
HETATM   21  H   UNK N   1      27.659  17.924   8.579  0.00  0.00     0.159 HD
BRANCH  20  22
HETATM   22  C   UNK N   1      28.160  18.289   6.585  0.00  0.00     0.030 A 
HETATM   23  C   UNK N   1      27.833  19.629   6.395  0.00  0.00     0.046 A 
HETATM   24  C   UNK N   1      27.718  20.124   5.097  0.00  0.00     0.089 A 
HETATM   25  N   UNK N   1      27.929  19.301   4.034  0.00  0.00    -0.375 N 
HETATM   26  C   UNK N   1      28.254  17.991   4.200  0.00  0.00     0.089 A 
HETATM   27  H   UNK N   1      27.843  19.664   3.122  0.00  0.00     0.164 HD
HETATM   28  C   UNK N   1      28.386  17.460   5.484  0.00  0.00     0.046 A 
ENDBRANCH  20  22
ENDBRANCH  19  20
ENDBRANCH  18  19
ENDBRANCH   1  18
BRANCH   1  29
HETATM   29  C   UNK N   1      32.012  16.821   6.689  0.00  0.00     0.242 C 
HETATM   30  O   UNK N   1      31.827  17.457   5.654  0.00  0.00    -0.271 OA
HETATM   31  N   UNK N   1      32.272  15.479   6.620  0.00  0.00    -0.350 N 
HETATM   32  C   UNK N   1      32.414  14.822   5.337  0.00  0.00     0.126 C 
HETATM   33  C   UNK N   1      32.505  14.709   7.838  0.00  0.00     0.126 C 
HETATM   34  C   UNK N   1      33.801  14.169   5.240  0.00  0.00     0.020 C 
HETATM   35  C   UNK N   1      34.263  13.524   6.560  0.00  0.00     0.003 C 
HETATM   36  C   UNK N   1      33.110  13.341   7.541  0.00  0.00     0.020 C 
ENDBRANCH   1  29
TORSDOF 10
ENDMDL
MODEL 8
REMARK VINA RESULT:      -7.7     16.249     20.167
REMARK  10 active torsions:
REMARK  status: ('A' for Active; 'I' for Inactive)
REMARK    1  A    between atoms: C_3  and  S_7 
REMARK    2  A    between atoms: S_7  and  N_10 
REMARK    3  A    between atoms: N_10  and  C_11 
REMARK    4  A    between atoms: C_11  and  C_12 
REMARK       I    between atoms: C_12  and  N_14 
REMARK    5  A    between atoms: C_15  and  N_14 
REMARK    6  A    between atoms: C_15  and  C_16 
REMARK    7  A    between atoms: C_15  and  C_25 
REMARK    8  A    between atoms: C_16  and  C_17 
REMARK    9  A    between atoms: C_17  and  N_18 
REMARK   10  A    between atoms: N_18  and  C_19 
REMARK       I    between atoms: C_25  and  N_27 
ROOT
HETATM    1  C   UNK N   1      33.659  15.192   9.231  0.00  0.00     0.178 C 
ENDROOT
BRANCH   1   2
HETATM    2  N   UNK N   1      34.407  16.274   9.858  0.00  0.00    -0.346 N 
HETATM    3  C   UNK N   1      35.509  16.217  10.655  0.00  0.00     0.236 C 
HETATM    4  O   UNK N   1      36.074  17.263  10.928  0.00  0.00    -0.272 OA
HETATM    5  H   UNK N   1      34.064  17.180   9.680  0.00  0.00     0.163 HD
BRANCH   3   6
HETATM    6  C   UNK N   1      36.086  14.912  11.185  0.00  0.00     0.234 C 
BRANCH   6   7
HETATM    7  N   UNK N   1      36.387  14.928  12.638  0.00  0.00    -0.310 N 
HETATM    8  H   UNK N   1      36.957  15.673  13.040  0.00  0.00     0.172 HD
BRANCH   7   9
HETATM    9  S   UNK N   1      35.726  13.609  13.687  0.00  0.00     0.231 S 
HETATM   10  O   UNK N   1      34.550  13.566  12.697  0.00  0.00    -0.206 OA
HETATM   11  O   UNK N   1      36.887  13.043  12.862  0.00  0.00    -0.206 OA
BRANCH   9  12
HETATM   12  C   UNK N   1      35.714  11.756  13.375  0.00  0.00     0.129 C 
HETATM   13  C   UNK N   1      36.665  10.966  14.315  0.00  0.00     0.022 C 
HETATM   14  C   UNK N   1      35.961   9.887  15.130  0.00  0.00     0.001 C 
HETATM   15  C   UNK N   1      34.683  10.454  15.738  0.00  0.00     0.000 C 
HETATM   16  C   UNK N   1      33.694  10.945  14.671  0.00  0.00     0.001 C 
HETATM   17  C   UNK N   1      34.328  11.073  13.286  0.00  0.00     0.022 C 
ENDBRANCH   9  12
ENDBRANCH   7   9
ENDBRANCH   6   7
ENDBRANCH   3   6
ENDBRANCH   1   2
BRANCH   1  18
HETATM   18  C   UNK N   1      32.312  15.614   8.642  0.00  0.00     0.054 C 
BRANCH  18  19
HETATM   19  C   UNK N   1      32.403  17.052   8.151  0.00  0.00     0.122 C 
BRANCH  19  20
HETATM   20  N   UNK N   1      31.426  17.842   8.831  0.00  0.00    -0.390 N 
HETATM   21  H   UNK N   1      31.696  18.535   9.477  0.00  0.00     0.159 HD
BRANCH  20  22
HETATM   22  C   UNK N   1      30.072  17.602   8.555  0.00  0.00     0.030 A 
HETATM   23  C   UNK N   1      29.173  17.477   9.611  0.00  0.00     0.046 A 
HETATM   24  C   UNK N   1      27.817  17.316   9.334  0.00  0.00     0.089 A 
HETATM   25  N   UNK N   1      27.384  17.287   8.044  0.00  0.00    -0.375 N 
HETATM   26  C   UNK N   1      28.247  17.412   7.000  0.00  0.00     0.089 A 
HETATM   27  H   UNK N   1      26.423  17.171   7.863  0.00  0.00     0.164 HD
HETATM   28  C   UNK N   1      29.611  17.583   7.237  0.00  0.00     0.046 A 
ENDBRANCH  20  22
ENDBRANCH  19  20
ENDBRANCH  18  19
ENDBRANCH   1  18
BRANCH   1  29
HETATM   29  C   UNK N   1      34.499  14.420   8.235  0.00  0.00     0.242 C 
HETATM   30  O   UNK N   1      35.079  15.023   7.335  0.00  0.00    -0.271 OA
HETATM   31  N   UNK N   1      34.682  13.070   8.370  0.00  0.00    -0.350 N 
HETATM   32  C   UNK N   1      35.616  12.365   7.518  0.00  0.00     0.126 C 
HETATM   33  C   UNK N   1      34.009  12.338   9.440  0.00  0.00     0.126 C 
HETATM   34  C   UNK N   1      36.685  11.674   8.379  0.00  0.00     0.020 C 
HETATM   35  C   UNK N   1      36.119  11.065   9.676  0.00  0.00     0.003 C 
HETATM   36  C   UNK N   1      34.600  10.947   9.637  0.00  0.00     0.020 C 
ENDBRANCH   1  29
TORSDOF 10
ENDMDL
MODEL 9
REMARK VINA RESULT:      -7.5      1.439      2.049
REMARK  10 active torsions:
REMARK  status: ('A' for Active; 'I' for Inactive)
REMARK    1  A    between atoms: C_3  and  S_7 
REMARK    2  A    between atoms: S_7  and  N_10 
REMARK    3  A    between atoms: N_10  and  C_11 
REMARK    4  A    between atoms: C_11  and  C_12 
REMARK       I    between atoms: C_12  and  N_14 
REMARK    5  A    between atoms: C_15  and  N_14 
REMARK    6  A    between atoms: C_15  and  C_16 
REMARK    7  A    between atoms: C_15  and  C_25 
REMARK    8  A    between atoms: C_16  and  C_17 
REMARK    9  A    between atoms: C_17  and  N_18 
REMARK   10  A    between atoms: N_18  and  C_19 
REMARK       I    between atoms: C_25  and  N_27 
ROOT
HETATM    1  C   UNK N   1      26.228  26.495  -4.567  0.00  0.00     0.178 C 
ENDROOT
BRANCH   1   2
HETATM    2  N   UNK N   1      26.174  25.292  -3.745  0.00  0.00    -0.346 N 
HETATM    3  C   UNK N   1      27.177  24.451  -3.373  0.00  0.00     0.236 C 
HETATM    4  O   UNK N   1      26.930  23.600  -2.535  0.00  0.00    -0.272 OA
HETATM    5  H   UNK N   1      25.279  25.052  -3.411  0.00  0.00     0.163 HD
BRANCH   3   6
HETATM    6  C   UNK N   1      28.593  24.550  -3.921  0.00  0.00     0.234 C 
BRANCH   6   7
HETATM    7  N   UNK N   1      29.611  23.844  -3.102  0.00  0.00    -0.310 N 
HETATM    8  H   UNK N   1      29.732  24.076  -2.116  0.00  0.00     0.172 HD
BRANCH   7   9
HETATM    9  S   UNK N   1      30.631  22.566  -3.879  0.00  0.00     0.231 S 
HETATM   10  O   UNK N   1      30.998  23.646  -4.910  0.00  0.00    -0.206 OA
HETATM   11  O   UNK N   1      31.339  23.053  -2.610  0.00  0.00    -0.206 OA
BRANCH   9  12
HETATM   12  C   UNK N   1      32.497  22.359  -3.822  0.00  0.00     0.129 C 
HETATM   13  C   UNK N   1      32.961  21.195  -2.904  0.00  0.00     0.022 C 
HETATM   14  C   UNK N   1      33.807  20.150  -3.623  0.00  0.00     0.001 C 
HETATM   15  C   UNK N   1      33.150  19.781  -4.949  0.00  0.00     0.000 C 
HETATM   16  C   UNK N   1      33.011  20.987  -5.889  0.00  0.00     0.001 C 
HETATM   17  C   UNK N   1      33.237  22.323  -5.182  0.00  0.00     0.022 C 
ENDBRANCH   9  12
ENDBRANCH   7   9
ENDBRANCH   6   7
ENDBRANCH   3   6
ENDBRANCH   1   2
BRANCH   1  18
HETATM   18  C   UNK N   1      25.126  26.589  -5.622  0.00  0.00     0.054 C 
BRANCH  18  19
HETATM   19  C   UNK N   1      25.698  26.228  -6.985  0.00  0.00     0.122 C 
BRANCH  19  20
HETATM   20  N   UNK N   1      25.655  24.810  -7.151  0.00  0.00    -0.390 N 
HETATM   21  H   UNK N   1      24.796  24.329  -7.172  0.00  0.00     0.159 HD
BRANCH  20  22
HETATM   22  C   UNK N   1      26.870  24.122  -7.281  0.00  0.00     0.030 A 
HETATM   23  C   UNK N   1      27.985  24.796  -7.773  0.00  0.00     0.046 A 
HETATM   24  C   UNK N   1      29.210  24.135  -7.830  0.00  0.00     0.089 A 
HETATM   25  N   UNK N   1      29.308  22.846  -7.403  0.00  0.00    -0.375 N 
HETATM   26  C   UNK N   1      28.231  22.173  -6.915  0.00  0.00     0.089 A 
HETATM   27  H   UNK N   1      30.180  22.390  -7.451  0.00  0.00     0.164 HD
HETATM   28  C   UNK N   1      26.989  22.804  -6.835  0.00  0.00     0.046 A 
ENDBRANCH  20  22
ENDBRANCH  19  20
ENDBRANCH  18  19
ENDBRANCH   1  18
BRANCH   1  29
HETATM   29  C   UNK N   1      26.326  27.753  -3.729  0.00  0.00     0.242 C 
HETATM   30  O   UNK N   1      25.412  28.041  -2.960  0.00  0.00    -0.271 OA
HETATM   31  N   UNK N   1      27.451  28.531  -3.763  0.00  0.00    -0.350 N 
HETATM   32  C   UNK N   1      27.609  29.638  -2.842  0.00  0.00     0.126 C 
HETATM   33  C   UNK N   1      28.552  28.198  -4.664  0.00  0.00     0.126 C 
HETATM   34  C   UNK N   1      28.879  29.436  -2.002  0.00  0.00     0.020 C 
HETATM   35  C   UNK N   1      30.054  28.851  -2.807  0.00  0.00     0.003 C 
HETATM   36  C   UNK N   1      29.826  28.958  -4.311  0.00  0.00     0.020 C 
ENDBRANCH   1  29
TORSDOF 10
ENDMDL
