MODEL 1
REMARK VINA RESULT:      -7.7      0.000      0.000
REMARK  2 active torsions:
REMARK  status: ('A' for Active; 'I' for Inactive)
REMARK    1  A    between atoms: C_2  and  O_5 
REMARK    2  A    between atoms: O_5  and  C_12 
ROOT
HETATM    1  C   UNK N   1      31.639  16.073   6.895  0.00  0.00     0.079 C 
HETATM    2  C   UNK N   1      32.115  14.830   7.253  0.00  0.00     0.060 C 
HETATM    3  C   UNK N   1      32.434  17.207   7.176  0.00  0.00     0.060 C 
HETATM    4  C   UNK N   1      33.249  14.689   8.042  0.00  0.00     0.048 C 
HETATM    5  C   UNK N   1      33.650  17.059   7.884  0.00  0.00     0.048 C 
HETATM    6  C   UNK N   1      34.021  15.800   8.363  0.00  0.00     0.045 C 
HETATM    7  C   UNK N   1      33.446  13.436   8.710  0.00  0.00     0.099 C 
HETATM    8  C   UNK N   1      34.482  18.198   8.197  0.00  0.00     0.099 C 
HETATM    9  N   UNK N   1      35.163  19.105   8.455  0.00  0.00    -0.191 NA
HETATM   10  N   UNK N   1      33.597  12.419   9.243  0.00  0.00    -0.191 NA
ENDROOT
BRANCH   1  11
HETATM   11  O   UNK N   1      30.377  16.216   6.395  0.00  0.00    -0.307 OA
BRANCH  11  12
HETATM   12  C   UNK N   1      29.597  17.347   6.253  0.00  0.00     0.129 C 
HETATM   13  C   UNK N   1      28.832  18.025   7.277  0.00  0.00     0.053 A 
HETATM   14  C   UNK N   1      27.901  18.977   6.901  0.00  0.00     0.063 A 
HETATM   15  C   UNK N   1      28.755  18.068   8.686  0.00  0.00     0.037 A 
HETATM   16  N   UNK N   1      27.227  19.437   7.966  0.00  0.00    -0.300 N 
HETATM   17  C   UNK N   1      27.772  19.452   5.604  0.00  0.00     0.035 C 
HETATM   18  N   UNK N   1      27.754  18.892   9.052  0.00  0.00    -0.304 N 
HETATM   19  H   UNK N   1      26.473  20.069   7.944  0.00  0.00     0.187 HD
ATOM     20  HN  UNK N   1      27.451  19.068  10.010  1.00  0.00     0.186 HD
HETATM   21  C   UNK N   1      28.626  18.932   4.632  0.00  0.00     0.047 C 
HETATM   22  C   UNK N   1      29.505  17.877   4.943  0.00  0.00     0.151 C 
HETATM   23  F   UNK N   1      30.268  17.354   3.953  0.00  0.00    -0.203 F 
HETATM   24  C   UNK N   1      29.733  17.579   9.709  0.00  0.00     0.070 C 
ENDBRANCH  11  12
ENDBRANCH   1  11
TORSDOF 2
ENDMDL
MODEL 2
REMARK VINA RESULT:      -7.6      2.737      4.030
REMARK  2 active torsions:
REMARK  status: ('A' for Active; 'I' for Inactive)
REMARK    1  A    between atoms: C_2  and  O_5 
REMARK    2  A    between atoms: O_5  and  C_12 
ROOT
HETATM    1  C   UNK N   1      31.126  16.802   6.518  0.00  0.00     0.079 C 
HETATM    2  C   UNK N   1      32.108  17.246   7.377  0.00  0.00     0.060 C 
HETATM    3  C   UNK N   1      31.502  16.381   5.222  0.00  0.00     0.060 C 
HETATM    4  C   UNK N   1      33.406  17.468   6.939  0.00  0.00     0.048 C 
HETATM    5  C   UNK N   1      32.848  16.499   4.805  0.00  0.00     0.048 C 
HETATM    6  C   UNK N   1      33.784  17.098   5.653  0.00  0.00     0.045 C 
HETATM    7  C   UNK N   1      34.249  18.303   7.744  0.00  0.00     0.099 C 
HETATM    8  C   UNK N   1      33.266  16.088   3.484  0.00  0.00     0.099 C 
HETATM    9  N   UNK N   1      33.617  15.761   2.425  0.00  0.00    -0.191 NA
HETATM   10  N   UNK N   1      34.923  18.977   8.402  0.00  0.00    -0.191 NA
ENDROOT
BRANCH   1  11
HETATM   11  O   UNK N   1      29.809  16.883   6.867  0.00  0.00    -0.307 OA
BRANCH  11  12
HETATM   12  C   UNK N   1      28.917  17.931   6.744  0.00  0.00     0.129 C 
HETATM   13  C   UNK N   1      28.347  18.467   5.527  0.00  0.00     0.053 A 
HETATM   14  C   UNK N   1      27.686  19.682   5.571  0.00  0.00     0.063 A 
HETATM   15  C   UNK N   1      28.189  18.086   4.176  0.00  0.00     0.037 A 
HETATM   16  N   UNK N   1      27.301  20.065   4.345  0.00  0.00    -0.300 N 
HETATM   17  C   UNK N   1      27.383  20.346   6.752  0.00  0.00     0.035 C 
HETATM   18  N   UNK N   1      27.597  19.089   3.498  0.00  0.00    -0.304 N 
HETATM   19  H   UNK N   1      26.873  20.920   4.114  0.00  0.00     0.187 HD
ATOM     20  HN  UNK N   1      27.408  19.097   2.496  1.00  0.00     0.186 HD
HETATM   21  C   UNK N   1      27.774  19.753   7.952  0.00  0.00     0.047 C 
HETATM   22  C   UNK N   1      28.553  18.580   7.949  0.00  0.00     0.151 C 
HETATM   23  F   UNK N   1      28.970  18.075   9.136  0.00  0.00    -0.203 F 
HETATM   24  C   UNK N   1      28.328  16.737   3.544  0.00  0.00     0.070 C 
ENDBRANCH  11  12
ENDBRANCH   1  11
TORSDOF 2
ENDMDL
MODEL 3
REMARK VINA RESULT:      -7.6      8.662     11.489
REMARK  2 active torsions:
REMARK  status: ('A' for Active; 'I' for Inactive)
REMARK    1  A    between atoms: C_2  and  O_5 
REMARK    2  A    between atoms: O_5  and  C_12 
ROOT
HETATM    1  C   UNK N   1      20.649  13.911   8.140  0.00  0.00     0.079 C 
HETATM    2  C   UNK N   1      20.716  13.939   6.763  0.00  0.00     0.060 C 
HETATM    3  C   UNK N   1      20.357  15.112   8.826  0.00  0.00     0.060 C 
HETATM    4  C   UNK N   1      20.697  15.137   6.062  0.00  0.00     0.048 C 
HETATM    5  C   UNK N   1      20.224  16.322   8.106  0.00  0.00     0.048 C 
HETATM    6  C   UNK N   1      20.452  16.334   6.727  0.00  0.00     0.045 C 
HETATM    7  C   UNK N   1      21.179  15.129   4.712  0.00  0.00     0.099 C 
HETATM    8  C   UNK N   1      19.936  17.569   8.776  0.00  0.00     0.099 C 
HETATM    9  N   UNK N   1      19.704  18.580   9.302  0.00  0.00    -0.191 NA
HETATM   10  N   UNK N   1      21.569  15.111   3.621  0.00  0.00    -0.191 NA
ENDROOT
BRANCH   1  11
HETATM   11  O   UNK N   1      20.979  12.780   8.828  0.00  0.00    -0.307 OA
BRANCH  11  12
HETATM   12  C   UNK N   1      21.759  12.617   9.957  0.00  0.00     0.129 C 
HETATM   13  C   UNK N   1      23.202  12.676  10.046  0.00  0.00     0.053 A 
HETATM   14  C   UNK N   1      23.823  12.225  11.198  0.00  0.00     0.063 A 
HETATM   15  C   UNK N   1      24.292  13.138   9.277  0.00  0.00     0.037 A 
HETATM   16  N   UNK N   1      25.157  12.272  11.074  0.00  0.00    -0.300 N 
HETATM   17  C   UNK N   1      23.136  11.876  12.352  0.00  0.00     0.035 C 
HETATM   18  N   UNK N   1      25.443  12.838   9.911  0.00  0.00    -0.304 N 
HETATM   19  H   UNK N   1      25.812  11.945  11.733  0.00  0.00     0.187 HD
ATOM     20  HN  UNK N   1      26.381  13.015   9.552  1.00  0.00     0.186 HD
HETATM   21  C   UNK N   1      21.746  11.981  12.339  0.00  0.00     0.047 C 
HETATM   22  C   UNK N   1      21.065  12.318  11.154  0.00  0.00     0.151 C 
HETATM   23  F   UNK N   1      19.710  12.342  11.167  0.00  0.00    -0.203 F 
HETATM   24  C   UNK N   1      24.305  14.073   8.108  0.00  0.00     0.070 C 
ENDBRANCH  11  12
ENDBRANCH   1  11
TORSDOF 2
ENDMDL
MODEL 4
REMARK VINA RESULT:      -7.4      1.655      2.833
REMARK  2 active torsions:
REMARK  status: ('A' for Active; 'I' for Inactive)
REMARK    1  A    between atoms: C_2  and  O_5 
REMARK    2  A    between atoms: O_5  and  C_12 
ROOT
HETATM    1  C   UNK N   1      31.713  16.098   6.464  0.00  0.00     0.079 C 
HETATM    2  C   UNK N   1      32.440  16.882   7.334  0.00  0.00     0.060 C 
HETATM    3  C   UNK N   1      32.412  15.255   5.570  0.00  0.00     0.060 C 
HETATM    4  C   UNK N   1      33.818  17.004   7.220  0.00  0.00     0.048 C 
HETATM    5  C   UNK N   1      33.826  15.292   5.525  0.00  0.00     0.048 C 
HETATM    6  C   UNK N   1      34.519  16.213   6.316  0.00  0.00     0.045 C 
HETATM    7  C   UNK N   1      34.445  18.123   7.861  0.00  0.00     0.099 C 
HETATM    8  C   UNK N   1      34.572  14.452   4.616  0.00  0.00     0.099 C 
HETATM    9  N   UNK N   1      35.186  13.782   3.891  0.00  0.00    -0.191 NA
HETATM   10  N   UNK N   1      34.942  19.029   8.384  0.00  0.00    -0.191 NA
ENDROOT
BRANCH   1  11
HETATM   11  O   UNK N   1      30.357  16.224   6.383  0.00  0.00    -0.307 OA
BRANCH  11  12
HETATM   12  C   UNK N   1      29.573  17.352   6.231  0.00  0.00     0.129 C 
HETATM   13  C   UNK N   1      28.812  18.040   7.252  0.00  0.00     0.053 A 
HETATM   14  C   UNK N   1      27.877  18.986   6.870  0.00  0.00     0.063 A 
HETATM   15  C   UNK N   1      28.743  18.098   8.661  0.00  0.00     0.037 A 
HETATM   16  N   UNK N   1      27.208  19.456   7.932  0.00  0.00    -0.300 N 
HETATM   17  C   UNK N   1      27.741  19.446   5.567  0.00  0.00     0.035 C 
HETATM   18  N   UNK N   1      27.742  18.925   9.022  0.00  0.00    -0.304 N 
HETATM   19  H   UNK N   1      26.453  20.087   7.908  0.00  0.00     0.187 HD
ATOM     20  HN  UNK N   1      27.443  19.111   9.980  1.00  0.00     0.186 HD
HETATM   21  C   UNK N   1      28.591  18.916   4.597  0.00  0.00     0.047 C 
HETATM   22  C   UNK N   1      29.474  17.867   4.916  0.00  0.00     0.151 C 
HETATM   23  F   UNK N   1      30.233  17.334   3.928  0.00  0.00    -0.203 F 
HETATM   24  C   UNK N   1      29.727  17.624   9.684  0.00  0.00     0.070 C 
ENDBRANCH  11  12
ENDBRANCH   1  11
TORSDOF 2
ENDMDL
MODEL 5
REMARK VINA RESULT:      -7.1      9.848     10.460
REMARK  2 active torsions:
REMARK  status: ('A' for Active; 'I' for Inactive)
REMARK    1  A    between atoms: C_2  and  O_5 
REMARK    2  A    between atoms: O_5  and  C_12 
ROOT
HETATM    1  C   UNK N   1      21.548  13.012   8.926  0.00  0.00     0.079 C 
HETATM    2  C   UNK N   1      22.319  12.243   8.081  0.00  0.00     0.060 C 
HETATM    3  C   UNK N   1      21.828  12.981  10.311  0.00  0.00     0.060 C 
HETATM    4  C   UNK N   1      23.218  11.306   8.573  0.00  0.00     0.048 C 
HETATM    5  C   UNK N   1      22.823  12.108  10.810  0.00  0.00     0.048 C 
HETATM    6  C   UNK N   1      23.475  11.232   9.937  0.00  0.00     0.045 C 
HETATM    7  C   UNK N   1      23.665  10.276   7.681  0.00  0.00     0.099 C 
HETATM    8  C   UNK N   1      23.128  12.042  12.221  0.00  0.00     0.099 C 
HETATM    9  N   UNK N   1      23.384  11.979  13.354  0.00  0.00    -0.191 NA
HETATM   10  N   UNK N   1      24.021   9.450   6.952  0.00  0.00    -0.191 NA
ENDROOT
BRANCH   1  11
HETATM   11  O   UNK N   1      20.464  13.692   8.451  0.00  0.00    -0.307 OA
BRANCH  11  12
HETATM   12  C   UNK N   1      20.311  15.034   8.158  0.00  0.00     0.129 C 
HETATM   13  C   UNK N   1      20.969  15.789   7.113  0.00  0.00     0.053 A 
HETATM   14  C   UNK N   1      20.900  17.171   7.137  0.00  0.00     0.063 A 
HETATM   15  C   UNK N   1      21.693  15.543   5.927  0.00  0.00     0.037 A 
HETATM   16  N   UNK N   1      21.634  17.705   6.151  0.00  0.00    -0.300 N 
HETATM   17  C   UNK N   1      20.089  17.881   8.011  0.00  0.00     0.035 C 
HETATM   18  N   UNK N   1      22.107  16.716   5.408  0.00  0.00    -0.304 N 
HETATM   19  H   UNK N   1      21.793  18.665   6.003  0.00  0.00     0.187 HD
ATOM     20  HN  UNK N   1      22.691  16.824   4.578  1.00  0.00     0.186 HD
HETATM   21  C   UNK N   1      19.311  17.158   8.913  0.00  0.00     0.047 C 
HETATM   22  C   UNK N   1      19.439  15.759   9.007  0.00  0.00     0.151 C 
HETATM   23  F   UNK N   1      18.715  15.101   9.945  0.00  0.00    -0.203 F 
HETATM   24  C   UNK N   1      21.798  14.289   5.117  0.00  0.00     0.070 C 
ENDBRANCH  11  12
ENDBRANCH   1  11
TORSDOF 2
ENDMDL
MODEL 6
REMARK VINA RESULT:      -6.9     12.776     15.359
REMARK  2 active torsions:
REMARK  status: ('A' for Active; 'I' for Inactive)
REMARK    1  A    between atoms: C_2  and  O_5 
REMARK    2  A    between atoms: O_5  and  C_12 
ROOT
HETATM    1  C   UNK N   1      29.209  24.863  -5.735  0.00  0.00     0.079 C 
HETATM    2  C   UNK N   1      29.286  23.796  -6.605  0.00  0.00     0.060 C 
HETATM    3  C   UNK N   1      29.565  24.657  -4.383  0.00  0.00     0.060 C 
HETATM    4  C   UNK N   1      29.512  22.505  -6.149  0.00  0.00     0.048 C 
HETATM    5  C   UNK N   1      29.906  23.361  -3.932  0.00  0.00     0.048 C 
HETATM    6  C   UNK N   1      29.822  22.279  -4.812  0.00  0.00     0.045 C 
HETATM    7  C   UNK N   1      29.172  21.419  -7.021  0.00  0.00     0.099 C 
HETATM    8  C   UNK N   1      30.265  23.113  -2.554  0.00  0.00     0.099 C 
HETATM    9  N   UNK N   1      30.556  22.899  -1.449  0.00  0.00    -0.191 NA
HETATM   10  N   UNK N   1      28.895  20.549  -7.733  0.00  0.00    -0.191 NA
ENDROOT
BRANCH   1  11
HETATM   11  O   UNK N   1      28.686  26.055  -6.143  0.00  0.00    -0.307 OA
BRANCH  11  12
HETATM   12  C   UNK N   1      27.459  26.630  -5.872  0.00  0.00     0.129 C 
HETATM   13  C   UNK N   1      27.084  27.395  -4.702  0.00  0.00     0.053 A 
HETATM   14  C   UNK N   1      25.745  27.663  -4.475  0.00  0.00     0.063 A 
HETATM   15  C   UNK N   1      27.712  28.068  -3.631  0.00  0.00     0.037 A 
HETATM   16  N   UNK N   1      25.574  28.301  -3.308  0.00  0.00    -0.300 N 
HETATM   17  C   UNK N   1      24.743  27.390  -5.395  0.00  0.00     0.035 C 
HETATM   18  N   UNK N   1      26.771  28.558  -2.800  0.00  0.00    -0.304 N 
HETATM   19  H   UNK N   1      24.711  28.540  -2.900  0.00  0.00     0.187 HD
ATOM     20  HN  UNK N   1      26.950  29.046  -1.923  1.00  0.00     0.186 HD
HETATM   21  C   UNK N   1      25.113  26.809  -6.608  0.00  0.00     0.047 C 
HETATM   22  C   UNK N   1      26.443  26.409  -6.833  0.00  0.00     0.151 C 
HETATM   23  F   UNK N   1      26.746  25.786  -7.998  0.00  0.00    -0.203 F 
HETATM   24  C   UNK N   1      29.138  28.497  -3.481  0.00  0.00     0.070 C 
ENDBRANCH  11  12
ENDBRANCH   1  11
TORSDOF 2
ENDMDL
MODEL 7
REMARK VINA RESULT:      -6.9      2.518      3.967
REMARK  2 active torsions:
REMARK  status: ('A' for Active; 'I' for Inactive)
REMARK    1  A    between atoms: C_2  and  O_5 
REMARK    2  A    between atoms: O_5  and  C_12 
ROOT
HETATM    1  C   UNK N   1      29.815  17.123   5.280  0.00  0.00     0.079 C 
HETATM    2  C   UNK N   1      29.166  16.951   6.483  0.00  0.00     0.060 C 
HETATM    3  C   UNK N   1      31.218  17.294   5.287  0.00  0.00     0.060 C 
HETATM    4  C   UNK N   1      29.823  17.135   7.693  0.00  0.00     0.048 C 
HETATM    5  C   UNK N   1      31.913  17.370   6.517  0.00  0.00     0.048 C 
HETATM    6  C   UNK N   1      31.198  17.346   7.717  0.00  0.00     0.045 C 
HETATM    7  C   UNK N   1      29.023  17.350   8.862  0.00  0.00     0.099 C 
HETATM    8  C   UNK N   1      33.345  17.554   6.562  0.00  0.00     0.099 C 
HETATM    9  N   UNK N   1      34.498  17.702   6.613  0.00  0.00    -0.191 NA
HETATM   10  N   UNK N   1      28.367  17.522   9.801  0.00  0.00    -0.191 NA
ENDROOT
BRANCH   1  11
HETATM   11  O   UNK N   1      29.106  17.248   4.120  0.00  0.00    -0.307 OA
BRANCH  11  12
HETATM   12  C   UNK N   1      27.742  17.219   3.901  0.00  0.00     0.129 C 
HETATM   13  C   UNK N   1      26.735  18.071   4.498  0.00  0.00     0.053 A 
HETATM   14  C   UNK N   1      25.401  17.725   4.369  0.00  0.00     0.063 A 
HETATM   15  C   UNK N   1      26.664  19.293   5.200  0.00  0.00     0.037 A 
HETATM   16  N   UNK N   1      24.618  18.572   5.053  0.00  0.00    -0.300 N 
HETATM   17  C   UNK N   1      24.951  16.697   3.553  0.00  0.00     0.035 C 
HETATM   18  N   UNK N   1      25.384  19.532   5.548  0.00  0.00    -0.304 N 
HETATM   19  H   UNK N   1      23.643  18.496   5.166  0.00  0.00     0.187 HD
ATOM     20  HN  UNK N   1      25.059  20.323   6.105  1.00  0.00     0.186 HD
HETATM   21  C   UNK N   1      25.901  15.975   2.831  0.00  0.00     0.047 C 
HETATM   22  C   UNK N   1      27.275  16.211   3.022  0.00  0.00     0.151 C 
HETATM   23  F   UNK N   1      28.167  15.441   2.353  0.00  0.00    -0.203 F 
HETATM   24  C   UNK N   1      27.690  20.374   5.337  0.00  0.00     0.070 C 
ENDBRANCH  11  12
ENDBRANCH   1  11
TORSDOF 2
ENDMDL
MODEL 8
REMARK VINA RESULT:      -6.9      9.415     10.806
REMARK  2 active torsions:
REMARK  status: ('A' for Active; 'I' for Inactive)
REMARK    1  A    between atoms: C_2  and  O_5 
REMARK    2  A    between atoms: O_5  and  C_12 
ROOT
HETATM    1  C   UNK N   1      22.092  16.445   6.067  0.00  0.00     0.079 C 
HETATM    2  C   UNK N   1      22.554  15.274   6.628  0.00  0.00     0.060 C 
HETATM    3  C   UNK N   1      21.117  17.190   6.768  0.00  0.00     0.060 C 
HETATM    4  C   UNK N   1      21.952  14.722   7.751  0.00  0.00     0.048 C 
HETATM    5  C   UNK N   1      20.577  16.687   7.975  0.00  0.00     0.048 C 
HETATM    6  C   UNK N   1      20.961  15.422   8.430  0.00  0.00     0.045 C 
HETATM    7  C   UNK N   1      22.197  13.336   8.027  0.00  0.00     0.099 C 
HETATM    8  C   UNK N   1      19.571  17.417   8.712  0.00  0.00     0.099 C 
HETATM    9  N   UNK N   1      18.762  17.994   9.317  0.00  0.00    -0.191 NA
HETATM   10  N   UNK N   1      22.402  12.217   8.242  0.00  0.00    -0.191 NA
ENDROOT
BRANCH   1  11
HETATM   11  O   UNK N   1      22.475  16.812   4.810  0.00  0.00    -0.307 OA
BRANCH  11  12
HETATM   12  C   UNK N   1      21.892  16.545   3.586  0.00  0.00     0.129 C 
HETATM   13  C   UNK N   1      20.811  17.267   2.949  0.00  0.00     0.053 A 
HETATM   14  C   UNK N   1      20.178  16.701   1.856  0.00  0.00     0.063 A 
HETATM   15  C   UNK N   1      20.158  18.513   3.064  0.00  0.00     0.037 A 
HETATM   16  N   UNK N   1      19.151  17.461   1.449  0.00  0.00    -0.300 N 
HETATM   17  C   UNK N   1      20.629  15.553   1.220  0.00  0.00     0.035 C 
HETATM   18  N   UNK N   1      19.146  18.568   2.177  0.00  0.00    -0.304 N 
HETATM   19  H   UNK N   1      18.512  17.237   0.735  0.00  0.00     0.187 HD
ATOM     20  HN  UNK N   1      18.482  19.337   2.081  1.00  0.00     0.186 HD
HETATM   21  C   UNK N   1      21.777  14.940   1.718  0.00  0.00     0.047 C 
HETATM   22  C   UNK N   1      22.384  15.409   2.898  0.00  0.00     0.151 C 
HETATM   23  F   UNK N   1      23.458  14.743   3.387  0.00  0.00    -0.203 F 
HETATM   24  C   UNK N   1      20.592  19.753   3.781  0.00  0.00     0.070 C 
ENDBRANCH  11  12
ENDBRANCH   1  11
TORSDOF 2
ENDMDL
MODEL 9
REMARK VINA RESULT:      -6.8      8.753     10.998
REMARK  2 active torsions:
REMARK  status: ('A' for Active; 'I' for Inactive)
REMARK    1  A    between atoms: C_2  and  O_5 
REMARK    2  A    between atoms: O_5  and  C_12 
ROOT
HETATM    1  C   UNK N   1      34.324  11.818  15.335  0.00  0.00     0.079 C 
HETATM    2  C   UNK N   1      34.406  12.935  16.137  0.00  0.00     0.060 C 
HETATM    3  C   UNK N   1      34.679  10.565  15.883  0.00  0.00     0.060 C 
HETATM    4  C   UNK N   1      35.006  12.885  17.388  0.00  0.00     0.048 C 
HETATM    5  C   UNK N   1      35.188  10.490  17.201  0.00  0.00     0.048 C 
HETATM    6  C   UNK N   1      35.401  11.665  17.927  0.00  0.00     0.045 C 
HETATM    7  C   UNK N   1      35.427  14.122  17.978  0.00  0.00     0.099 C 
HETATM    8  C   UNK N   1      35.571   9.227  17.789  0.00  0.00     0.099 C 
HETATM    9  N   UNK N   1      35.883   8.218  18.276  0.00  0.00    -0.191 NA
HETATM   10  N   UNK N   1      35.762  15.127  18.446  0.00  0.00    -0.191 NA
ENDROOT
BRANCH   1  11
HETATM   11  O   UNK N   1      34.024  11.936  14.009  0.00  0.00    -0.307 OA
BRANCH  11  12
HETATM   12  C   UNK N   1      34.825  11.772  12.895  0.00  0.00     0.129 C 
HETATM   13  C   UNK N   1      35.704  12.750  12.289  0.00  0.00     0.053 A 
HETATM   14  C   UNK N   1      36.221  12.500  11.030  0.00  0.00     0.063 A 
HETATM   15  C   UNK N   1      36.305  13.983  12.623  0.00  0.00     0.037 A 
HETATM   16  N   UNK N   1      36.939  13.544  10.590  0.00  0.00    -0.300 N 
HETATM   17  C   UNK N   1      36.088  11.284  10.375  0.00  0.00     0.035 C 
HETATM   18  N   UNK N   1      36.999  14.441  11.563  0.00  0.00    -0.304 N 
HETATM   19  H   UNK N   1      37.350  13.629   9.700  0.00  0.00     0.187 HD
ATOM     20  HN  UNK N   1      37.491  15.334  11.517  1.00  0.00     0.186 HD
HETATM   21  C   UNK N   1      35.389  10.267  11.024  0.00  0.00     0.047 C 
HETATM   22  C   UNK N   1      34.743  10.513  12.251  0.00  0.00     0.151 C 
HETATM   23  F   UNK N   1      34.017   9.518  12.814  0.00  0.00    -0.203 F 
HETATM   24  C   UNK N   1      36.476  14.627  13.963  0.00  0.00     0.070 C 
ENDBRANCH  11  12
ENDBRANCH   1  11
TORSDOF 2
ENDMDL
