MODEL 1
REMARK VINA RESULT:      -8.3      0.000      0.000
REMARK  5 active torsions:
REMARK  status: ('A' for Active; 'I' for Inactive)
REMARK    1  A    between atoms: C_2  and  N_4 
REMARK    2  A    between atoms: C_10  and  C_11 
REMARK       I    between atoms: C_14  and  N_15 
REMARK    3  A    between atoms: N_15  and  C_16 
REMARK    4  A    between atoms: C_19  and  C_22 
REMARK       I    between atoms: C_22  and  N_24 
REMARK    5  A    between atoms: C_27  and  N_29 
ROOT
HETATM    1  C   UNK N   1      36.485  14.100  12.560  0.00  0.00     0.117 A 
HETATM    2  N   UNK N   1      35.753  15.119  12.112  0.00  0.00    -0.186 N 
ATOM      3  HN  UNK N   1      35.225  15.666  12.791  1.00  0.00     0.184 HD
HETATM    4  C   UNK N   1      35.673  15.458  10.842  0.00  0.00     0.683 A 
HETATM    5  N   UNK N   1      34.689  16.404  10.528  0.00  0.00    -0.192 N 
HETATM    6  N   UNK N   1      36.401  14.791   9.907  0.00  0.00    -0.199 N 
ATOM      7  HN  UNK N   1      36.335  15.053   8.923  1.00  0.00     0.183 HD
HETATM    8  C   UNK N   1      37.220  13.768  10.290  0.00  0.00     0.150 A 
HETATM    9  C   UNK N   1      37.268  13.382  11.639  0.00  0.00     0.161 A 
HETATM   10  F   UNK N   1      38.018  12.317  12.013  0.00  0.00    -0.202 F 
HETATM   11  H   UNK N   1      34.450  17.067  11.215  0.00  0.00     0.184 HD
ENDROOT
BRANCH   5  12
HETATM   12  C   UNK N   1      34.031  16.466   9.308  0.00  0.00     0.049 A 
HETATM   13  C   UNK N   1      33.158  15.440   9.001  0.00  0.00     0.031 A 
HETATM   14  C   UNK N   1      32.342  15.569   7.905  0.00  0.00     0.019 A 
HETATM   15  C   UNK N   1      32.396  16.718   7.108  0.00  0.00     0.032 A 
HETATM   16  C   UNK N   1      33.365  17.690   7.354  0.00  0.00     0.019 A 
HETATM   17  C   UNK N   1      34.190  17.558   8.451  0.00  0.00     0.031 A 
BRANCH  15  18
HETATM   18  C   UNK N   1      31.309  17.030   6.173  0.00  0.00     0.253 C 
HETATM   19  O   UNK N   1      31.531  16.939   4.971  0.00  0.00    -0.267 OA
HETATM   20  N   UNK N   1      30.099  17.488   6.596  0.00  0.00    -0.346 N 
HETATM   21  C   UNK N   1      29.659  17.504   7.961  0.00  0.00     0.128 C 
HETATM   22  C   UNK N   1      29.081  17.832   5.663  0.00  0.00     0.161 C 
HETATM   23  C   UNK N   1      28.183  17.270   7.832  0.00  0.00     0.057 C 
HETATM   24  C   UNK N   1      27.830  17.962   6.514  0.00  0.00     0.241 C 
BRANCH  24  25
HETATM   25  N   UNK N   1      26.722  17.293   5.829  0.00  0.00     0.086 N 
HETATM   26  C   UNK N   1      26.917  17.335   4.389  0.00  0.00     0.310 C 
HETATM   27  C   UNK N   1      26.694  15.888   6.217  0.00  0.00     0.310 C 
ENDBRANCH  24  25
ENDBRANCH  15  18
ENDBRANCH   5  12
BRANCH   1  28
HETATM   28  C   UNK N   1      36.318  13.813  13.987  0.00  0.00     0.082 A 
HETATM   29  N   UNK N   1      35.705  12.700  14.472  0.00  0.00    -0.330 N 
HETATM   30  C   UNK N   1      35.767  12.822  15.812  0.00  0.00     0.080 A 
HETATM   31  C   UNK N   1      35.243  11.837  16.795  0.00  0.00     0.089 C 
HETATM   32  N   UNK N   1      36.403  13.955  16.185  0.00  0.00    -0.354 N 
HETATM   33  C   UNK N   1      36.754  14.582  15.044  0.00  0.00     0.121 A 
ATOM     34  HN  UNK N   1      36.580  14.273  17.138  1.00  0.00     0.166 HD
BRANCH  29  35
HETATM   35  C   UNK N   1      35.115  11.585  13.674  0.00  0.00     0.083 C 
HETATM   36  C   UNK N   1      33.747  11.102  14.113  0.00  0.00     0.032 C 
HETATM   37  C   UNK N   1      36.069  10.400  13.580  0.00  0.00     0.032 C 
ENDBRANCH  29  35
ENDBRANCH   1  28
TORSDOF 5
ENDMDL
MODEL 2
REMARK VINA RESULT:      -8.2      1.437      2.251
REMARK  5 active torsions:
REMARK  status: ('A' for Active; 'I' for Inactive)
REMARK    1  A    between atoms: C_2  and  N_4 
REMARK    2  A    between atoms: C_10  and  C_11 
REMARK       I    between atoms: C_14  and  N_15 
REMARK    3  A    between atoms: N_15  and  C_16 
REMARK    4  A    between atoms: C_19  and  C_22 
REMARK       I    between atoms: C_22  and  N_24 
REMARK    5  A    between atoms: C_27  and  N_29 
ROOT
HETATM    1  C   UNK N   1      35.313  13.095  11.844  0.00  0.00     0.117 A 
HETATM    2  N   UNK N   1      34.192  13.718  11.490  0.00  0.00    -0.186 N 
ATOM      3  HN  UNK N   1      33.314  13.400  11.898  1.00  0.00     0.184 HD
HETATM    4  C   UNK N   1      34.153  14.724  10.639  0.00  0.00     0.683 A 
HETATM    5  N   UNK N   1      32.875  15.108  10.213  0.00  0.00    -0.192 N 
HETATM    6  N   UNK N   1      35.303  15.218  10.109  0.00  0.00    -0.199 N 
ATOM      7  HN  UNK N   1      35.271  15.994   9.448  1.00  0.00     0.183 HD
HETATM    8  C   UNK N   1      36.502  14.670  10.464  0.00  0.00     0.150 A 
HETATM    9  C   UNK N   1      36.534  13.571  11.337  0.00  0.00     0.161 A 
HETATM   10  F   UNK N   1      37.714  12.973  11.631  0.00  0.00    -0.202 F 
HETATM   11  H   UNK N   1      32.123  14.979  10.834  0.00  0.00     0.184 HD
ENDROOT
BRANCH   5  12
HETATM   12  C   UNK N   1      32.604  15.660   8.969  0.00  0.00     0.049 A 
HETATM   13  C   UNK N   1      32.262  14.795   7.947  0.00  0.00     0.031 A 
HETATM   14  C   UNK N   1      31.791  15.316   6.767  0.00  0.00     0.019 A 
HETATM   15  C   UNK N   1      31.666  16.699   6.599  0.00  0.00     0.032 A 
HETATM   16  C   UNK N   1      32.129  17.565   7.588  0.00  0.00     0.019 A 
HETATM   17  C   UNK N   1      32.608  17.043   8.771  0.00  0.00     0.031 A 
BRANCH  15  18
HETATM   18  C   UNK N   1      30.844  17.247   5.513  0.00  0.00     0.253 C 
HETATM   19  O   UNK N   1      31.396  17.547   4.460  0.00  0.00    -0.267 OA
HETATM   20  N   UNK N   1      29.517  17.502   5.667  0.00  0.00    -0.346 N 
HETATM   21  C   UNK N   1      28.722  17.071   6.781  0.00  0.00     0.128 C 
HETATM   22  C   UNK N   1      28.756  18.083   4.614  0.00  0.00     0.161 C 
HETATM   23  C   UNK N   1      27.380  16.833   6.154  0.00  0.00     0.057 C 
HETATM   24  C   UNK N   1      27.315  17.890   5.050  0.00  0.00     0.241 C 
BRANCH  24  25
HETATM   25  N   UNK N   1      26.532  17.428   3.901  0.00  0.00     0.086 N 
HETATM   26  C   UNK N   1      27.170  16.278   3.284  0.00  0.00     0.310 C 
HETATM   27  C   UNK N   1      25.217  16.997   4.357  0.00  0.00     0.310 C 
ENDBRANCH  24  25
ENDBRANCH  15  18
ENDBRANCH   5  12
BRANCH   1  28
HETATM   28  C   UNK N   1      35.111  11.915  12.691  0.00  0.00     0.082 A 
HETATM   29  N   UNK N   1      35.172  11.935  14.050  0.00  0.00    -0.330 N 
HETATM   30  C   UNK N   1      34.929  10.666  14.430  0.00  0.00     0.080 A 
HETATM   31  C   UNK N   1      34.870  10.181  15.834  0.00  0.00     0.089 C 
HETATM   32  N   UNK N   1      34.706   9.858  13.369  0.00  0.00    -0.354 N 
HETATM   33  C   UNK N   1      34.816  10.636  12.274  0.00  0.00     0.121 A 
ATOM     34  HN  UNK N   1      34.498   8.859  13.393  1.00  0.00     0.166 HD
BRANCH  29  35
HETATM   35  C   UNK N   1      35.432  13.124  14.915  0.00  0.00     0.083 C 
HETATM   36  C   UNK N   1      36.876  13.350  15.318  0.00  0.00     0.032 C 
HETATM   37  C   UNK N   1      34.551  13.113  16.159  0.00  0.00     0.032 C 
ENDBRANCH  29  35
ENDBRANCH   1  28
TORSDOF 5
ENDMDL
MODEL 3
REMARK VINA RESULT:      -8.1      1.609      2.069
REMARK  5 active torsions:
REMARK  status: ('A' for Active; 'I' for Inactive)
REMARK    1  A    between atoms: C_2  and  N_4 
REMARK    2  A    between atoms: C_10  and  C_11 
REMARK       I    between atoms: C_14  and  N_15 
REMARK    3  A    between atoms: N_15  and  C_16 
REMARK    4  A    between atoms: C_19  and  C_22 
REMARK       I    between atoms: C_22  and  N_24 
REMARK    5  A    between atoms: C_27  and  N_29 
ROOT
HETATM    1  C   UNK N   1      36.482  14.165  12.496  0.00  0.00     0.117 A 
HETATM    2  N   UNK N   1      35.754  15.195  12.071  0.00  0.00    -0.186 N 
ATOM      3  HN  UNK N   1      35.261  15.755  12.765  1.00  0.00     0.184 HD
HETATM    4  C   UNK N   1      35.634  15.530  10.802  0.00  0.00     0.683 A 
HETATM    5  N   UNK N   1      34.657  16.493  10.519  0.00  0.00    -0.192 N 
HETATM    6  N   UNK N   1      36.315  14.846   9.845  0.00  0.00    -0.199 N 
ATOM      7  HN  UNK N   1      36.218  15.105   8.863  1.00  0.00     0.183 HD
HETATM    8  C   UNK N   1      37.129  13.809  10.203  0.00  0.00     0.150 A 
HETATM    9  C   UNK N   1      37.218  13.429  11.552  0.00  0.00     0.161 A 
HETATM   10  F   UNK N   1      37.962  12.352  11.904  0.00  0.00    -0.202 F 
HETATM   11  H   UNK N   1      34.455  17.163  11.211  0.00  0.00     0.184 HD
ENDROOT
BRANCH   5  12
HETATM   12  C   UNK N   1      33.956  16.562   9.324  0.00  0.00     0.049 A 
HETATM   13  C   UNK N   1      34.297  17.566   8.440  0.00  0.00     0.031 A 
HETATM   14  C   UNK N   1      33.771  17.541   7.172  0.00  0.00     0.019 A 
HETATM   15  C   UNK N   1      32.899  16.519   6.783  0.00  0.00     0.032 A 
HETATM   16  C   UNK N   1      32.465  15.581   7.719  0.00  0.00     0.019 A 
HETATM   17  C   UNK N   1      32.988  15.610   8.994  0.00  0.00     0.031 A 
BRANCH  15  18
HETATM   18  C   UNK N   1      32.621  16.275   5.362  0.00  0.00     0.253 C 
HETATM   19  O   UNK N   1      33.519  15.820   4.664  0.00  0.00    -0.267 OA
HETATM   20  N   UNK N   1      31.432  16.607   4.790  0.00  0.00    -0.346 N 
HETATM   21  C   UNK N   1      30.257  17.006   5.509  0.00  0.00     0.128 C 
HETATM   22  C   UNK N   1      31.210  16.407   3.398  0.00  0.00     0.161 C 
HETATM   23  C   UNK N   1      29.150  16.462   4.656  0.00  0.00     0.057 C 
HETATM   24  C   UNK N   1      29.710  16.577   3.236  0.00  0.00     0.241 C 
BRANCH  24  25
HETATM   25  N   UNK N   1      29.206  15.512   2.366  0.00  0.00     0.086 N 
HETATM   26  C   UNK N   1      29.807  14.238   2.723  0.00  0.00     0.310 C 
HETATM   27  C   UNK N   1      27.768  15.376   2.554  0.00  0.00     0.310 C 
ENDBRANCH  24  25
ENDBRANCH  15  18
ENDBRANCH   5  12
BRANCH   1  28
HETATM   28  C   UNK N   1      36.362  13.886  13.930  0.00  0.00     0.082 A 
HETATM   29  N   UNK N   1      35.786  12.766  14.442  0.00  0.00    -0.330 N 
HETATM   30  C   UNK N   1      35.883  12.900  15.778  0.00  0.00     0.080 A 
HETATM   31  C   UNK N   1      35.408  11.912  16.783  0.00  0.00     0.089 C 
HETATM   32  N   UNK N   1      36.505  14.050  16.124  0.00  0.00    -0.354 N 
HETATM   33  C   UNK N   1      36.811  14.674  14.968  0.00  0.00     0.121 A 
ATOM     34  HN  UNK N   1      36.703  14.379  17.069  1.00  0.00     0.166 HD
BRANCH  29  35
HETATM   35  C   UNK N   1      35.198  11.631  13.669  0.00  0.00     0.083 C 
HETATM   36  C   UNK N   1      33.827  11.162  14.113  0.00  0.00     0.032 C 
HETATM   37  C   UNK N   1      36.149  10.442  13.612  0.00  0.00     0.032 C 
ENDBRANCH  29  35
ENDBRANCH   1  28
TORSDOF 5
ENDMDL
MODEL 4
REMARK VINA RESULT:      -7.9      4.163     12.430
REMARK  5 active torsions:
REMARK  status: ('A' for Active; 'I' for Inactive)
REMARK    1  A    between atoms: C_2  and  N_4 
REMARK    2  A    between atoms: C_10  and  C_11 
REMARK       I    between atoms: C_14  and  N_15 
REMARK    3  A    between atoms: N_15  and  C_16 
REMARK    4  A    between atoms: C_19  and  C_22 
REMARK       I    between atoms: C_22  and  N_24 
REMARK    5  A    between atoms: C_27  and  N_29 
ROOT
HETATM    1  C   UNK N   1      25.134  17.790   4.375  0.00  0.00     0.117 A 
HETATM    2  N   UNK N   1      25.836  18.151   5.447  0.00  0.00    -0.186 N 
ATOM      3  HN  UNK N   1      25.714  19.098   5.805  1.00  0.00     0.184 HD
HETATM    4  C   UNK N   1      26.679  17.354   6.071  0.00  0.00     0.683 A 
HETATM    5  N   UNK N   1      27.492  17.965   7.033  0.00  0.00    -0.192 N 
HETATM    6  N   UNK N   1      26.835  16.067   5.662  0.00  0.00    -0.199 N 
ATOM      7  HN  UNK N   1      27.492  15.452   6.144  1.00  0.00     0.183 HD
HETATM    8  C   UNK N   1      26.111  15.600   4.603  0.00  0.00     0.150 A 
HETATM    9  C   UNK N   1      25.246  16.466   3.915  0.00  0.00     0.161 A 
HETATM   10  F   UNK N   1      24.584  16.031   2.816  0.00  0.00    -0.202 F 
HETATM   11  H   UNK N   1      27.134  18.748   7.510  0.00  0.00     0.184 HD
ENDROOT
BRANCH   5  12
HETATM   12  C   UNK N   1      28.771  17.536   7.357  0.00  0.00     0.049 A 
HETATM   13  C   UNK N   1      29.653  17.311   6.318  0.00  0.00     0.031 A 
HETATM   14  C   UNK N   1      30.976  17.086   6.607  0.00  0.00     0.019 A 
HETATM   15  C   UNK N   1      31.424  17.077   7.932  0.00  0.00     0.032 A 
HETATM   16  C   UNK N   1      30.507  17.181   8.977  0.00  0.00     0.019 A 
HETATM   17  C   UNK N   1      29.177  17.401   8.688  0.00  0.00     0.031 A 
BRANCH  15  18
HETATM   18  C   UNK N   1      32.855  17.199   8.237  0.00  0.00     0.253 C 
HETATM   19  O   UNK N   1      33.364  18.313   8.201  0.00  0.00    -0.267 OA
HETATM   20  N   UNK N   1      33.638  16.114   8.479  0.00  0.00    -0.346 N 
HETATM   21  C   UNK N   1      33.153  14.781   8.693  0.00  0.00     0.128 C 
HETATM   22  C   UNK N   1      35.034  16.258   8.720  0.00  0.00     0.161 C 
HETATM   23  C   UNK N   1      34.148  14.221   9.666  0.00  0.00     0.057 C 
HETATM   24  C   UNK N   1      35.457  14.905   9.263  0.00  0.00     0.241 C 
BRANCH  24  25
HETATM   25  N   UNK N   1      36.337  15.113  10.414  0.00  0.00     0.086 N 
HETATM   26  C   UNK N   1      35.754  16.079  11.330  0.00  0.00     0.310 C 
HETATM   27  C   UNK N   1      36.479  13.860  11.145  0.00  0.00     0.310 C 
ENDBRANCH  24  25
ENDBRANCH  15  18
ENDBRANCH   5  12
BRANCH   1  28
HETATM   28  C   UNK N   1      24.365  18.875   3.758  0.00  0.00     0.082 A 
HETATM   29  N   UNK N   1      23.008  18.902   3.692  0.00  0.00    -0.330 N 
HETATM   30  C   UNK N   1      22.711  20.054   3.060  0.00  0.00     0.080 A 
HETATM   31  C   UNK N   1      21.340  20.549   2.763  0.00  0.00     0.089 C 
HETATM   32  N   UNK N   1      23.823  20.752   2.739  0.00  0.00    -0.354 N 
HETATM   33  C   UNK N   1      24.867  20.019   3.176  0.00  0.00     0.121 A 
ATOM     34  HN  UNK N   1      23.865  21.653   2.261  1.00  0.00     0.166 HD
BRANCH  29  35
HETATM   35  C   UNK N   1      22.066  17.877   4.231  0.00  0.00     0.083 C 
HETATM   36  C   UNK N   1      21.046  17.329   3.252  0.00  0.00     0.032 C 
HETATM   37  C   UNK N   1      21.354  18.375   5.483  0.00  0.00     0.032 C 
ENDBRANCH  29  35
ENDBRANCH   1  28
TORSDOF 5
ENDMDL
MODEL 5
REMARK VINA RESULT:      -7.8      5.763     13.988
REMARK  5 active torsions:
REMARK  status: ('A' for Active; 'I' for Inactive)
REMARK    1  A    between atoms: C_2  and  N_4 
REMARK    2  A    between atoms: C_10  and  C_11 
REMARK       I    between atoms: C_14  and  N_15 
REMARK    3  A    between atoms: N_15  and  C_16 
REMARK    4  A    between atoms: C_19  and  C_22 
REMARK       I    between atoms: C_22  and  N_24 
REMARK    5  A    between atoms: C_27  and  N_29 
ROOT
HETATM    1  C   UNK N   1      21.429  17.509   3.694  0.00  0.00     0.117 A 
HETATM    2  N   UNK N   1      22.630  17.966   3.348  0.00  0.00    -0.186 N 
ATOM      3  HN  UNK N   1      22.839  18.067   2.355  1.00  0.00     0.184 HD
HETATM    4  C   UNK N   1      23.565  18.294   4.217  0.00  0.00     0.683 A 
HETATM    5  N   UNK N   1      24.834  18.539   3.678  0.00  0.00    -0.192 N 
HETATM    6  N   UNK N   1      23.314  18.227   5.551  0.00  0.00    -0.199 N 
ATOM      7  HN  UNK N   1      24.040  18.478   6.222  1.00  0.00     0.183 HD
HETATM    8  C   UNK N   1      22.087  17.820   5.990  0.00  0.00     0.150 A 
HETATM    9  C   UNK N   1      21.109  17.430   5.060  0.00  0.00     0.161 A 
HETATM   10  F   UNK N   1      19.918  16.950   5.492  0.00  0.00    -0.202 F 
HETATM   11  H   UNK N   1      24.886  18.897   2.763  0.00  0.00     0.184 HD
ENDROOT
BRANCH   5  12
HETATM   12  C   UNK N   1      26.024  18.309   4.354  0.00  0.00     0.049 A 
HETATM   13  C   UNK N   1      26.380  16.995   4.592  0.00  0.00     0.031 A 
HETATM   14  C   UNK N   1      27.637  16.725   5.071  0.00  0.00     0.019 A 
HETATM   15  C   UNK N   1      28.542  17.762   5.322  0.00  0.00     0.032 A 
HETATM   16  C   UNK N   1      28.131  19.089   5.197  0.00  0.00     0.019 A 
HETATM   17  C   UNK N   1      26.866  19.361   4.721  0.00  0.00     0.031 A 
BRANCH  15  18
HETATM   18  C   UNK N   1      29.974  17.482   5.482  0.00  0.00     0.253 C 
HETATM   19  O   UNK N   1      30.669  17.415   4.476  0.00  0.00    -0.267 OA
HETATM   20  N   UNK N   1      30.529  17.220   6.697  0.00  0.00    -0.346 N 
HETATM   21  C   UNK N   1      29.871  17.405   7.958  0.00  0.00     0.128 C 
HETATM   22  C   UNK N   1      31.911  16.899   6.815  0.00  0.00     0.161 C 
HETATM   23  C   UNK N   1      31.001  17.797   8.863  0.00  0.00     0.057 C 
HETATM   24  C   UNK N   1      32.189  17.013   8.303  0.00  0.00     0.241 C 
BRANCH  24  25
HETATM   25  N   UNK N   1      33.451  17.730   8.494  0.00  0.00     0.086 N 
HETATM   26  C   UNK N   1      34.350  16.960   9.336  0.00  0.00     0.310 C 
HETATM   27  C   UNK N   1      34.110  17.897   7.204  0.00  0.00     0.310 C 
ENDBRANCH  24  25
ENDBRANCH  15  18
ENDBRANCH   5  12
BRANCH   1  28
HETATM   28  C   UNK N   1      20.598  17.072   2.568  0.00  0.00     0.082 A 
HETATM   29  N   UNK N   1      20.468  15.776   2.177  0.00  0.00    -0.330 N 
HETATM   30  C   UNK N   1      19.626  15.810   1.126  0.00  0.00     0.080 A 
HETATM   31  C   UNK N   1      19.156  14.627   0.357  0.00  0.00     0.089 C 
HETATM   32  N   UNK N   1      19.214  17.068   0.852  0.00  0.00    -0.354 N 
HETATM   33  C   UNK N   1      19.819  17.866   1.756  0.00  0.00     0.121 A 
ATOM     34  HN  UNK N   1      18.576  17.356   0.110  1.00  0.00     0.166 HD
BRANCH  29  35
HETATM   35  C   UNK N   1      21.112  14.584   2.805  0.00  0.00     0.083 C 
HETATM   36  C   UNK N   1      21.944  13.714   1.883  0.00  0.00     0.032 C 
HETATM   37  C   UNK N   1      20.094  13.721   3.540  0.00  0.00     0.032 C 
ENDBRANCH  29  35
ENDBRANCH   1  28
TORSDOF 5
ENDMDL
MODEL 6
REMARK VINA RESULT:      -7.8      4.697     11.393
REMARK  5 active torsions:
REMARK  status: ('A' for Active; 'I' for Inactive)
REMARK    1  A    between atoms: C_2  and  N_4 
REMARK    2  A    between atoms: C_10  and  C_11 
REMARK       I    between atoms: C_14  and  N_15 
REMARK    3  A    between atoms: N_15  and  C_16 
REMARK    4  A    between atoms: C_19  and  C_22 
REMARK       I    between atoms: C_22  and  N_24 
REMARK    5  A    between atoms: C_27  and  N_29 
ROOT
HETATM    1  C   UNK N   1      35.998  14.013  11.433  0.00  0.00     0.117 A 
HETATM    2  N   UNK N   1      35.244  13.632  12.462  0.00  0.00    -0.186 N 
ATOM      3  HN  UNK N   1      34.340  14.086  12.590  1.00  0.00     0.184 HD
HETATM    4  C   UNK N   1      35.600  12.702  13.324  0.00  0.00     0.683 A 
HETATM    5  N   UNK N   1      34.793  12.589  14.462  0.00  0.00    -0.192 N 
HETATM    6  N   UNK N   1      36.772  12.032  13.163  0.00  0.00    -0.199 N 
ATOM      7  HN  UNK N   1      37.048  11.314  13.834  1.00  0.00     0.183 HD
HETATM    8  C   UNK N   1      37.579  12.324  12.101  0.00  0.00     0.150 A 
HETATM    9  C   UNK N   1      37.215  13.346  11.210  0.00  0.00     0.161 A 
HETATM   10  F   UNK N   1      38.049  13.694  10.200  0.00  0.00    -0.202 F 
HETATM   11  H   UNK N   1      33.840  12.821  14.378  0.00  0.00     0.184 HD
ENDROOT
BRANCH   5  12
HETATM   12  C   UNK N   1      35.252  12.169  15.703  0.00  0.00     0.049 A 
HETATM   13  C   UNK N   1      34.987  12.980  16.790  0.00  0.00     0.031 A 
HETATM   14  C   UNK N   1      35.244  12.502  18.051  0.00  0.00     0.019 A 
HETATM   15  C   UNK N   1      35.771  11.219  18.234  0.00  0.00     0.032 A 
HETATM   16  C   UNK N   1      36.149  10.459  17.128  0.00  0.00     0.019 A 
HETATM   17  C   UNK N   1      35.897  10.940  15.861  0.00  0.00     0.031 A 
BRANCH  15  18
HETATM   18  C   UNK N   1      35.711  10.568  19.548  0.00  0.00     0.253 C 
HETATM   19  O   UNK N   1      36.503  10.928  20.412  0.00  0.00    -0.267 OA
HETATM   20  N   UNK N   1      34.865   9.535  19.806  0.00  0.00    -0.346 N 
HETATM   21  C   UNK N   1      33.797   9.113  18.946  0.00  0.00     0.128 C 
HETATM   22  C   UNK N   1      34.866   8.888  21.074  0.00  0.00     0.161 C 
HETATM   23  C   UNK N   1      32.761   8.633  19.919  0.00  0.00     0.057 C 
HETATM   24  C   UNK N   1      33.595   8.057  21.066  0.00  0.00     0.241 C 
BRANCH  24  25
HETATM   25  N   UNK N   1      32.923   8.212  22.357  0.00  0.00     0.086 N 
HETATM   26  C   UNK N   1      32.361   9.546  22.480  0.00  0.00     0.310 C 
HETATM   27  C   UNK N   1      31.813   7.270  22.438  0.00  0.00     0.310 C 
ENDBRANCH  24  25
ENDBRANCH  15  18
ENDBRANCH   5  12
BRANCH   1  28
HETATM   28  C   UNK N   1      35.472  15.160  10.686  0.00  0.00     0.082 A 
HETATM   29  N   UNK N   1      34.958  15.077   9.430  0.00  0.00    -0.330 N 
HETATM   30  C   UNK N   1      34.592  16.336   9.118  0.00  0.00     0.080 A 
HETATM   31  C   UNK N   1      33.955  16.759   7.843  0.00  0.00     0.089 C 
HETATM   32  N   UNK N   1      34.844  17.197  10.129  0.00  0.00    -0.354 N 
HETATM   33  C   UNK N   1      35.395  16.466  11.118  0.00  0.00     0.121 A 
ATOM     34  HN  UNK N   1      34.656  18.200  10.140  1.00  0.00     0.166 HD
BRANCH  29  35
HETATM   35  C   UNK N   1      34.818  13.844   8.601  0.00  0.00     0.083 C 
HETATM   36  C   UNK N   1      35.572  13.836   7.286  0.00  0.00     0.032 C 
HETATM   37  C   UNK N   1      33.354  13.501   8.351  0.00  0.00     0.032 C 
ENDBRANCH  29  35
ENDBRANCH   1  28
TORSDOF 5
ENDMDL
MODEL 7
REMARK VINA RESULT:      -7.7      2.570      3.651
REMARK  5 active torsions:
REMARK  status: ('A' for Active; 'I' for Inactive)
REMARK    1  A    between atoms: C_2  and  N_4 
REMARK    2  A    between atoms: C_10  and  C_11 
REMARK       I    between atoms: C_14  and  N_15 
REMARK    3  A    between atoms: N_15  and  C_16 
REMARK    4  A    between atoms: C_19  and  C_22 
REMARK       I    between atoms: C_22  and  N_24 
REMARK    5  A    between atoms: C_27  and  N_29 
ROOT
HETATM    1  C   UNK N   1      36.467  14.239  12.438  0.00  0.00     0.117 A 
HETATM    2  N   UNK N   1      35.769  15.299  12.037  0.00  0.00    -0.186 N 
ATOM      3  HN  UNK N   1      35.309  15.868  12.746  1.00  0.00     0.184 HD
HETATM    4  C   UNK N   1      35.639  15.653  10.775  0.00  0.00     0.683 A 
HETATM    5  N   UNK N   1      34.692  16.653  10.520  0.00  0.00    -0.192 N 
HETATM    6  N   UNK N   1      36.278  14.955   9.798  0.00  0.00    -0.199 N 
ATOM      7  HN  UNK N   1      36.173  15.228   8.821  1.00  0.00     0.183 HD
HETATM    8  C   UNK N   1      37.060  13.886  10.131  0.00  0.00     0.150 A 
HETATM    9  C   UNK N   1      37.160  13.487  11.473  0.00  0.00     0.161 A 
HETATM   10  F   UNK N   1      37.870  12.381  11.800  0.00  0.00    -0.202 F 
HETATM   11  H   UNK N   1      34.527  17.322  11.222  0.00  0.00     0.184 HD
ENDROOT
BRANCH   5  12
HETATM   12  C   UNK N   1      33.973  16.760   9.338  0.00  0.00     0.049 A 
HETATM   13  C   UNK N   1      34.476  17.591   8.356  0.00  0.00     0.031 A 
HETATM   14  C   UNK N   1      33.907  17.564   7.108  0.00  0.00     0.019 A 
HETATM   15  C   UNK N   1      32.830  16.714   6.834  0.00  0.00     0.032 A 
HETATM   16  C   UNK N   1      32.251  15.971   7.863  0.00  0.00     0.019 A 
HETATM   17  C   UNK N   1      32.819  16.003   9.119  0.00  0.00     0.031 A 
BRANCH  15  18
HETATM   18  C   UNK N   1      32.452  16.409   5.449  0.00  0.00     0.253 C 
HETATM   19  O   UNK N   1      31.941  17.297   4.777  0.00  0.00    -0.267 OA
HETATM   20  N   UNK N   1      32.580  15.161   4.922  0.00  0.00    -0.346 N 
HETATM   21  C   UNK N   1      33.288  14.077   5.540  0.00  0.00     0.128 C 
HETATM   22  C   UNK N   1      32.157  14.883   3.592  0.00  0.00     0.161 C 
HETATM   23  C   UNK N   1      33.838  13.330   4.361  0.00  0.00     0.057 C 
HETATM   24  C   UNK N   1      32.765  13.525   3.288  0.00  0.00     0.241 C 
BRANCH  24  25
HETATM   25  N   UNK N   1      33.341  13.557   1.942  0.00  0.00     0.086 N 
HETATM   26  C   UNK N   1      34.693  14.088   1.983  0.00  0.00     0.310 C 
HETATM   27  C   UNK N   1      33.430  12.198   1.424  0.00  0.00     0.310 C 
ENDBRANCH  24  25
ENDBRANCH  15  18
ENDBRANCH   5  12
BRANCH   1  28
HETATM   28  C   UNK N   1      36.362  13.949  13.872  0.00  0.00     0.082 A 
HETATM   29  N   UNK N   1      35.804  12.818  14.380  0.00  0.00    -0.330 N 
HETATM   30  C   UNK N   1      35.911  12.945  15.716  0.00  0.00     0.080 A 
HETATM   31  C   UNK N   1      35.456  11.944  16.718  0.00  0.00     0.089 C 
HETATM   32  N   UNK N   1      36.523  14.099  16.065  0.00  0.00    -0.354 N 
HETATM   33  C   UNK N   1      36.812  14.734  14.911  0.00  0.00     0.121 A 
ATOM     34  HN  UNK N   1      36.725  14.424  17.010  1.00  0.00     0.166 HD
BRANCH  29  35
HETATM   35  C   UNK N   1      35.222  11.683  13.604  0.00  0.00     0.083 C 
HETATM   36  C   UNK N   1      33.841  11.225  14.028  0.00  0.00     0.032 C 
HETATM   37  C   UNK N   1      36.167  10.487  13.570  0.00  0.00     0.032 C 
ENDBRANCH  29  35
ENDBRANCH   1  28
TORSDOF 5
ENDMDL
MODEL 8
REMARK VINA RESULT:      -7.6      3.057     10.789
REMARK  5 active torsions:
REMARK  status: ('A' for Active; 'I' for Inactive)
REMARK    1  A    between atoms: C_2  and  N_4 
REMARK    2  A    between atoms: C_10  and  C_11 
REMARK       I    between atoms: C_14  and  N_15 
REMARK    3  A    between atoms: N_15  and  C_16 
REMARK    4  A    between atoms: C_19  and  C_22 
REMARK       I    between atoms: C_22  and  N_24 
REMARK    5  A    between atoms: C_27  and  N_29 
ROOT
HETATM    1  C   UNK N   1      28.912  17.661   7.439  0.00  0.00     0.117 A 
HETATM    2  N   UNK N   1      30.073  17.081   7.144  0.00  0.00    -0.186 N 
ATOM      3  HN  UNK N   1      30.137  16.541   6.282  1.00  0.00     0.184 HD
HETATM    4  C   UNK N   1      31.145  17.165   7.906  0.00  0.00     0.683 A 
HETATM    5  N   UNK N   1      32.203  16.314   7.560  0.00  0.00    -0.192 N 
HETATM    6  N   UNK N   1      31.124  17.917   9.038  0.00  0.00    -0.199 N 
ATOM      7  HN  UNK N   1      31.954  17.977   9.628  1.00  0.00     0.183 HD
HETATM    8  C   UNK N   1      29.988  18.590   9.383  0.00  0.00     0.150 A 
HETATM    9  C   UNK N   1      28.835  18.462   8.591  0.00  0.00     0.161 A 
HETATM   10  F   UNK N   1      27.682  19.063   8.971  0.00  0.00    -0.202 F 
HETATM   11  H   UNK N   1      32.308  16.070   6.612  0.00  0.00     0.184 HD
ENDROOT
BRANCH   5  12
HETATM   12  C   UNK N   1      33.111  15.793   8.470  0.00  0.00     0.049 A 
HETATM   13  C   UNK N   1      34.370  16.361   8.513  0.00  0.00     0.031 A 
HETATM   14  C   UNK N   1      35.220  16.012   9.533  0.00  0.00     0.019 A 
HETATM   15  C   UNK N   1      34.823  15.091  10.508  0.00  0.00     0.032 A 
HETATM   16  C   UNK N   1      33.601  14.431  10.385  0.00  0.00     0.019 A 
HETATM   17  C   UNK N   1      32.748  14.777   9.358  0.00  0.00     0.031 A 
BRANCH  15  18
HETATM   18  C   UNK N   1      35.557  14.981  11.775  0.00  0.00     0.253 C 
HETATM   19  O   UNK N   1      36.063  15.994  12.242  0.00  0.00    -0.267 OA
HETATM   20  N   UNK N   1      35.753  13.787  12.397  0.00  0.00    -0.346 N 
HETATM   21  C   UNK N   1      35.101  12.560  12.043  0.00  0.00     0.128 C 
HETATM   22  C   UNK N   1      36.513  13.705  13.597  0.00  0.00     0.161 C 
HETATM   23  C   UNK N   1      34.965  11.867  13.366  0.00  0.00     0.057 C 
HETATM   24  C   UNK N   1      36.215  12.314  14.128  0.00  0.00     0.241 C 
BRANCH  24  25
HETATM   25  N   UNK N   1      35.970  12.402  15.569  0.00  0.00     0.086 N 
HETATM   26  C   UNK N   1      34.636  12.918  15.826  0.00  0.00     0.310 C 
HETATM   27  C   UNK N   1      36.033  11.067  16.151  0.00  0.00     0.310 C 
ENDBRANCH  24  25
ENDBRANCH  15  18
ENDBRANCH   5  12
BRANCH   1  28
HETATM   28  C   UNK N   1      27.815  17.321   6.528  0.00  0.00     0.082 A 
HETATM   29  N   UNK N   1      27.189  18.221   5.723  0.00  0.00    -0.330 N 
HETATM   30  C   UNK N   1      26.259  17.509   5.057  0.00  0.00     0.080 A 
HETATM   31  C   UNK N   1      25.324  18.050   4.036  0.00  0.00     0.089 C 
HETATM   32  N   UNK N   1      26.286  16.202   5.402  0.00  0.00    -0.354 N 
HETATM   33  C   UNK N   1      27.262  16.076   6.324  0.00  0.00     0.121 A 
ATOM     34  HN  UNK N   1      25.686  15.460   5.039  1.00  0.00     0.166 HD
BRANCH  29  35
HETATM   35  C   UNK N   1      27.497  19.677   5.602  0.00  0.00     0.083 C 
HETATM   36  C   UNK N   1      26.474  20.626   6.195  0.00  0.00     0.032 C 
HETATM   37  C   UNK N   1      27.779  20.070   4.156  0.00  0.00     0.032 C 
ENDBRANCH  29  35
ENDBRANCH   1  28
TORSDOF 5
ENDMDL
MODEL 9
REMARK VINA RESULT:      -7.6      4.647     11.767
REMARK  5 active torsions:
REMARK  status: ('A' for Active; 'I' for Inactive)
REMARK    1  A    between atoms: C_2  and  N_4 
REMARK    2  A    between atoms: C_10  and  C_11 
REMARK       I    between atoms: C_14  and  N_15 
REMARK    3  A    between atoms: N_15  and  C_16 
REMARK    4  A    between atoms: C_19  and  C_22 
REMARK       I    between atoms: C_22  and  N_24 
REMARK    5  A    between atoms: C_27  and  N_29 
ROOT
HETATM    1  C   UNK N   1      35.848  13.996  11.269  0.00  0.00     0.117 A 
HETATM    2  N   UNK N   1      34.938  13.472  12.088  0.00  0.00    -0.186 N 
ATOM      3  HN  UNK N   1      33.996  13.862  12.073  1.00  0.00     0.184 HD
HETATM    4  C   UNK N   1      35.188  12.480  12.918  0.00  0.00     0.683 A 
HETATM    5  N   UNK N   1      34.185  12.209  13.857  0.00  0.00    -0.192 N 
HETATM    6  N   UNK N   1      36.414  11.894  12.936  0.00  0.00    -0.199 N 
ATOM      7  HN  UNK N   1      36.606  11.128  13.582  1.00  0.00     0.183 HD
HETATM    8  C   UNK N   1      37.388  12.335  12.087  0.00  0.00     0.150 A 
HETATM    9  C   UNK N   1      37.130  13.421  11.236  0.00  0.00     0.161 A 
HETATM   10  F   UNK N   1      38.117  13.914  10.448  0.00  0.00    -0.202 F 
HETATM   11  H   UNK N   1      33.253  12.397  13.605  0.00  0.00     0.184 HD
ENDROOT
BRANCH   5  12
HETATM   12  C   UNK N   1      34.424  11.691  15.123  0.00  0.00     0.049 A 
HETATM   13  C   UNK N   1      34.239  10.334  15.303  0.00  0.00     0.031 A 
HETATM   14  C   UNK N   1      34.659   9.758  16.476  0.00  0.00     0.019 A 
HETATM   15  C   UNK N   1      35.259  10.532  17.475  0.00  0.00     0.032 A 
HETATM   16  C   UNK N   1      35.328  11.918  17.334  0.00  0.00     0.019 A 
HETATM   17  C   UNK N   1      34.900  12.498  16.159  0.00  0.00     0.031 A 
BRANCH  15  18
HETATM   18  C   UNK N   1      36.026   9.896  18.553  0.00  0.00     0.253 C 
HETATM   19  O   UNK N   1      37.211   9.653  18.359  0.00  0.00    -0.267 OA
HETATM   20  N   UNK N   1      35.446   9.504  19.720  0.00  0.00    -0.346 N 
HETATM   21  C   UNK N   1      34.118   9.853  20.135  0.00  0.00     0.128 C 
HETATM   22  C   UNK N   1      36.204   8.842  20.727  0.00  0.00     0.161 C 
HETATM   23  C   UNK N   1      34.254   9.946  21.626  0.00  0.00     0.057 C 
HETATM   24  C   UNK N   1      35.306   8.883  21.951  0.00  0.00     0.241 C 
BRANCH  24  25
HETATM   25  N   UNK N   1      36.113   9.256  23.114  0.00  0.00     0.086 N 
HETATM   26  C   UNK N   1      35.269   9.414  24.286  0.00  0.00     0.310 C 
HETATM   27  C   UNK N   1      37.058   8.186  23.408  0.00  0.00     0.310 C 
ENDBRANCH  24  25
ENDBRANCH  15  18
ENDBRANCH   5  12
BRANCH   1  28
HETATM   28  C   UNK N   1      35.395  15.182  10.536  0.00  0.00     0.082 A 
HETATM   29  N   UNK N   1      35.036  15.174   9.225  0.00  0.00    -0.330 N 
HETATM   30  C   UNK N   1      34.688  16.446   8.949  0.00  0.00     0.080 A 
HETATM   31  C   UNK N   1      34.200  16.943   7.635  0.00  0.00     0.089 C 
HETATM   32  N   UNK N   1      34.802  17.245  10.034  0.00  0.00    -0.354 N 
HETATM   33  C   UNK N   1      35.244  16.457  11.036  0.00  0.00     0.121 A 
ATOM     34  HN  UNK N   1      34.597  18.243  10.085  1.00  0.00     0.166 HD
BRANCH  29  35
HETATM   35  C   UNK N   1      35.017  13.994   8.310  0.00  0.00     0.083 C 
HETATM   36  C   UNK N   1      35.890  14.095   7.075  0.00  0.00     0.032 C 
HETATM   37  C   UNK N   1      33.596  13.626   7.901  0.00  0.00     0.032 C 
ENDBRANCH  29  35
ENDBRANCH   1  28
TORSDOF 5
ENDMDL
