REMARK  5 active torsions:
REMARK  status: ('A' for Active; 'I' for Inactive)
REMARK    1  A    between atoms: C_2  and  N_4 
REMARK    2  A    between atoms: C_10  and  C_11 
REMARK       I    between atoms: C_14  and  N_15 
REMARK    3  A    between atoms: N_15  and  C_16 
REMARK    4  A    between atoms: C_19  and  C_22 
REMARK       I    between atoms: C_22  and  N_24 
REMARK    5  A    between atoms: C_27  and  N_29 
ROOT
HETATM    1  C   UNK N   1      -1.899  10.261   0.234  0.00  0.00     0.117 A 
HETATM    2  N   UNK N   1      -1.508  11.507   0.492  0.00  0.00    -0.186 N 
ATOM      3  HN  UNK N   1      -2.225  12.222   0.608  1.00  0.00     0.184 HD
HETATM    4  C   UNK N   1      -0.246  11.868   0.605  0.00  0.00     0.683 A 
HETATM    5  N   UNK N   1      -0.012  13.248   0.653  0.00  0.00    -0.192 N 
HETATM    6  N   UNK N   1       0.743  10.940   0.511  0.00  0.00    -0.199 N 
ATOM      7  HN  UNK N   1       1.720  11.222   0.595  1.00  0.00     0.183 HD
HETATM    8  C   UNK N   1       0.424   9.629   0.302  0.00  0.00     0.150 A 
HETATM    9  C   UNK N   1      -0.920   9.257   0.139  0.00  0.00     0.161 A 
HETATM   10  F   UNK N   1      -1.237   7.971  -0.147  0.00  0.00    -0.202 F 
HETATM   11  H   UNK N   1      -0.709  13.821   1.045  0.00  0.00     0.184 HD
ENDROOT
BRANCH   5  12
HETATM   12  C   UNK N   1       1.142  13.858   0.182  0.00  0.00     0.049 A 
HETATM   13  C   UNK N   1       1.277  15.217   0.390  0.00  0.00     0.031 A 
HETATM   14  C   UNK N   1       2.485  15.812   0.123  0.00  0.00     0.019 A 
HETATM   15  C   UNK N   1       3.560  15.057  -0.358  0.00  0.00     0.032 A 
HETATM   16  C   UNK N   1       3.377  13.713  -0.681  0.00  0.00     0.019 A 
HETATM   17  C   UNK N   1       2.162  13.116  -0.419  0.00  0.00     0.031 A 
BRANCH  15  18
HETATM   18  C   UNK N   1       4.928  15.587  -0.304  0.00  0.00     0.253 C 
HETATM   19  O   UNK N   1       5.857  14.824  -0.541  0.00  0.00    -0.267 OA
HETATM   20  N   UNK N   1       5.194  16.867   0.073  0.00  0.00    -0.346 N 
HETATM   21  C   UNK N   1       4.209  17.897   0.235  0.00  0.00     0.128 C 
HETATM   22  C   UNK N   1       6.534  17.338   0.167  0.00  0.00     0.161 C 
HETATM   23  C   UNK N   1       4.955  19.132  -0.176  0.00  0.00     0.057 C 
HETATM   24  C   UNK N   1       6.388  18.845   0.278  0.00  0.00     0.241 C 
BRANCH  24  25
HETATM   25  N   UNK N   1       7.373  19.480  -0.600  0.00  0.00     0.086 N 
HETATM   26  C   UNK N   1       7.194  20.922  -0.603  0.00  0.00     0.310 C 
HETATM   27  C   UNK N   1       8.713  19.215  -0.092  0.00  0.00     0.310 C 
ENDBRANCH  24  25
ENDBRANCH  15  18
ENDBRANCH   5  12
BRANCH   1  28
HETATM   28  C   UNK N   1      -3.340  10.110   0.010  0.00  0.00     0.082 A 
HETATM   29  N   UNK N   1      -4.216  11.149  -0.031  0.00  0.00    -0.330 N 
HETATM   30  C   UNK N   1      -5.418  10.585  -0.258  0.00  0.00     0.080 A 
HETATM   31  C   UNK N   1      -6.703  11.319  -0.405  0.00  0.00     0.089 C 
HETATM   32  N   UNK N   1      -5.329   9.241  -0.373  0.00  0.00    -0.354 N 
HETATM   33  C   UNK N   1      -4.026   8.935  -0.208  0.00  0.00     0.121 A 
ATOM     34  HN  UNK N   1      -6.094   8.589  -0.548  1.00  0.00     0.166 HD
BRANCH  29  35
HETATM   35  C   UNK N   1      -3.891  12.598   0.123  0.00  0.00     0.083 C 
HETATM   36  C   UNK N   1      -5.054  13.509   0.463  0.00  0.00     0.032 C 
HETATM   37  C   UNK N   1      -3.160  13.140  -1.100  0.00  0.00     0.032 C 
ENDBRANCH  29  35
ENDBRANCH   1  28
TORSDOF 5
