MODEL 1
REMARK VINA RESULT:      -7.4      0.000      0.000
REMARK  10 active torsions:
REMARK  status: ('A' for Active; 'I' for Inactive)
REMARK    1  A    between atoms: C_3  and  O_14 
REMARK    2  A    between atoms: C_6  and  N_13 
REMARK    3  A    between atoms: N_12  and  C_27 
REMARK    4  A    between atoms: N_13  and  C_15 
REMARK    5  A    between atoms: O_14  and  C_23 
REMARK    6  A    between atoms: C_15  and  C_16 
REMARK    7  A    between atoms: C_16  and  N_17 
REMARK    8  A    between atoms: C_23  and  C_24 
REMARK    9  A    between atoms: C_24  and  C_25 
REMARK   10  A    between atoms: C_27  and  C_28 
ROOT
HETATM    1  N   UNK N   1      31.502  17.302   5.601  0.00  0.00    -0.306 N 
ATOM      2  HN  UNK N   1      30.758  17.223   4.907  1.00  0.00     0.171 HD
HETATM    3  C   UNK N   1      32.821  17.358   5.221  0.00  0.00     0.226 A 
HETATM    4  N   UNK N   1      33.806  17.534   6.168  0.00  0.00    -0.306 N 
ATOM      5  HN  UNK N   1      34.775  17.632   5.868  1.00  0.00     0.171 HD
HETATM    6  C   UNK N   1      33.512  17.579   7.505  0.00  0.00     0.135 A 
HETATM    7  C   UNK N   1      31.217  17.355   6.925  0.00  0.00     0.142 A 
HETATM    8  C   UNK N   1      32.175  17.441   7.866  0.00  0.00     0.122 A 
HETATM    9  N   UNK N   1      31.613  17.385   9.083  0.00  0.00    -0.346 N 
ATOM     10  HN  UNK N   1      32.082  17.413   9.988  1.00  0.00     0.167 HD
HETATM   11  C   UNK N   1      30.282  17.282   8.843  0.00  0.00     0.185 A 
HETATM   12  N   UNK N   1      30.013  17.312   7.516  0.00  0.00    -0.323 N 
ENDROOT
BRANCH   6  13
HETATM   13  N   UNK N   1      34.558  17.757   8.459  0.00  0.00    -0.373 N 
HETATM   14  H   UNK N   1      35.157  18.530   8.343  0.00  0.00     0.161 HD
BRANCH  13  15
HETATM   15  C   UNK N   1      34.798  16.877   9.585  0.00  0.00     0.151 C 
BRANCH  15  16
HETATM   16  C   UNK N   1      35.365  15.525   9.152  0.00  0.00     0.292 C 
BRANCH  16  17
HETATM   17  N   UNK N   1      35.700  14.751  10.342  0.00  0.00     0.094 N 
HETATM   18  C   UNK N   1      35.742  15.630  11.510  0.00  0.00     0.298 C 
HETATM   19  C   UNK N   1      36.014  14.775  12.755  0.00  0.00     0.198 C 
HETATM   20  O   UNK N   1      34.974  13.839  12.927  0.00  0.00    -0.388 OA
HETATM   21  C   UNK N   1      35.022  12.957  11.830  0.00  0.00     0.198 C 
HETATM   22  C   UNK N   1      34.677  13.728  10.554  0.00  0.00     0.298 C 
ENDBRANCH  16  17
ENDBRANCH  15  16
ENDBRANCH  13  15
ENDBRANCH   6  13
BRANCH   3  23
HETATM   23  O   UNK N   1      33.177  17.185   3.925  0.00  0.00    -0.322 OA
BRANCH  23  24
HETATM   24  C   UNK N   1      32.682  16.157   3.145  0.00  0.00     0.178 C 
BRANCH  24  25
HETATM   25  C   UNK N   1      33.754  15.133   2.820  0.00  0.00     0.026 C 
BRANCH  25  26
HETATM   26  C   UNK N   1      33.820  14.083   3.916  0.00  0.00    -0.002 C 
HETATM   27  C   UNK N   1      35.030  14.296   4.805  0.00  0.00     0.005 C 
ENDBRANCH  25  26
ENDBRANCH  24  25
ENDBRANCH  23  24
ENDBRANCH   3  23
BRANCH  12  28
HETATM   28  C   UNK N   1      28.713  17.256   6.847  0.00  0.00     0.176 C 
BRANCH  28  29
HETATM   29  C   UNK N   1      28.159  18.515   6.170  0.00  0.00     0.037 A 
HETATM   30  C   UNK N   1      28.063  18.752   4.765  0.00  0.00     0.127 A 
HETATM   31  C   UNK N   1      27.561  19.969   4.292  0.00  0.00     0.043 A 
HETATM   32  F   UNK N   1      28.403  17.835   3.836  0.00  0.00    -0.205 F 
HETATM   33  C   UNK N   1      27.135  20.955   5.175  0.00  0.00     0.006 A 
HETATM   34  C   UNK N   1      27.186  20.723   6.546  0.00  0.00     0.043 A 
HETATM   35  C   UNK N   1      27.689  19.518   7.041  0.00  0.00     0.127 A 
HETATM   36  F   UNK N   1      27.715  19.323   8.383  0.00  0.00    -0.205 F 
ENDBRANCH  28  29
ENDBRANCH  12  28
TORSDOF 10
ENDMDL
MODEL 2
REMARK VINA RESULT:      -7.4      0.825      1.939
REMARK  10 active torsions:
REMARK  status: ('A' for Active; 'I' for Inactive)
REMARK    1  A    between atoms: C_3  and  O_14 
REMARK    2  A    between atoms: C_6  and  N_13 
REMARK    3  A    between atoms: N_12  and  C_27 
REMARK    4  A    between atoms: N_13  and  C_15 
REMARK    5  A    between atoms: O_14  and  C_23 
REMARK    6  A    between atoms: C_15  and  C_16 
REMARK    7  A    between atoms: C_16  and  N_17 
REMARK    8  A    between atoms: C_23  and  C_24 
REMARK    9  A    between atoms: C_24  and  C_25 
REMARK   10  A    between atoms: C_27  and  C_28 
ROOT
HETATM    1  N   UNK N   1      31.589  17.268   5.954  0.00  0.00    -0.306 N 
ATOM      2  HN  UNK N   1      31.002  17.230   5.120  1.00  0.00     0.171 HD
HETATM    3  C   UNK N   1      32.959  17.306   5.853  0.00  0.00     0.226 A 
HETATM    4  N   UNK N   1      33.731  17.426   6.987  0.00  0.00    -0.306 N 
ATOM      5  HN  UNK N   1      34.743  17.511   6.895  1.00  0.00     0.171 HD
HETATM    6  C   UNK N   1      33.171  17.434   8.237  0.00  0.00     0.135 A 
HETATM    7  C   UNK N   1      31.040  17.284   7.193  0.00  0.00     0.142 A 
HETATM    8  C   UNK N   1      31.786  17.316   8.312  0.00  0.00     0.122 A 
HETATM    9  N   UNK N   1      30.986  17.234   9.386  0.00  0.00    -0.346 N 
ATOM     10  HN  UNK N   1      31.260  17.220  10.368  1.00  0.00     0.167 HD
HETATM   11  C   UNK N   1      29.732  17.171   8.876  0.00  0.00     0.185 A 
HETATM   12  N   UNK N   1      29.740  17.250   7.524  0.00  0.00    -0.323 N 
ENDROOT
BRANCH   6  13
HETATM   13  N   UNK N   1      34.002  17.556   9.390  0.00  0.00    -0.373 N 
HETATM   14  H   UNK N   1      33.941  18.388   9.914  0.00  0.00     0.161 HD
BRANCH  13  15
HETATM   15  C   UNK N   1      34.932  16.539   9.840  0.00  0.00     0.151 C 
BRANCH  15  16
HETATM   16  C   UNK N   1      34.250  15.189  10.062  0.00  0.00     0.292 C 
BRANCH  16  17
HETATM   17  N   UNK N   1      34.613  14.688  11.382  0.00  0.00     0.094 N 
HETATM   18  C   UNK N   1      34.860  13.248  11.315  0.00  0.00     0.298 C 
HETATM   19  C   UNK N   1      35.320  12.767  12.698  0.00  0.00     0.198 C 
HETATM   20  O   UNK N   1      36.518  13.418  13.056  0.00  0.00    -0.388 OA
HETATM   21  C   UNK N   1      36.222  14.787  13.197  0.00  0.00     0.198 C 
HETATM   22  C   UNK N   1      35.833  15.358  11.832  0.00  0.00     0.298 C 
ENDBRANCH  16  17
ENDBRANCH  15  16
ENDBRANCH  13  15
ENDBRANCH   6  13
BRANCH   3  23
HETATM   23  O   UNK N   1      33.569  17.167   4.651  0.00  0.00    -0.322 OA
BRANCH  23  24
HETATM   24  C   UNK N   1      32.869  16.970   3.476  0.00  0.00     0.178 C 
BRANCH  24  25
HETATM   25  C   UNK N   1      33.471  15.853   2.644  0.00  0.00     0.026 C 
BRANCH  25  26
HETATM   26  C   UNK N   1      33.254  14.516   3.332  0.00  0.00    -0.002 C 
HETATM   27  C   UNK N   1      31.783  14.276   3.609  0.00  0.00     0.005 C 
ENDBRANCH  25  26
ENDBRANCH  24  25
ENDBRANCH  23  24
ENDBRANCH   3  23
BRANCH  12  28
HETATM   28  C   UNK N   1      28.604  17.248   6.602  0.00  0.00     0.176 C 
BRANCH  28  29
HETATM   29  C   UNK N   1      28.041  18.581   6.096  0.00  0.00     0.037 A 
HETATM   30  C   UNK N   1      27.559  19.659   6.900  0.00  0.00     0.127 A 
HETATM   31  C   UNK N   1      27.042  20.809   6.294  0.00  0.00     0.043 A 
HETATM   32  F   UNK N   1      27.605  19.654   8.248  0.00  0.00    -0.205 F 
HETATM   33  C   UNK N   1      27.004  20.927   4.908  0.00  0.00     0.006 A 
HETATM   34  C   UNK N   1      27.506  19.902   4.113  0.00  0.00     0.043 A 
HETATM   35  C   UNK N   1      28.021  18.742   4.697  0.00  0.00     0.127 A 
HETATM   36  F   UNK N   1      28.509  17.767   3.891  0.00  0.00    -0.205 F 
ENDBRANCH  28  29
ENDBRANCH  12  28
TORSDOF 10
ENDMDL
MODEL 3
REMARK VINA RESULT:      -7.0      9.349     12.469
REMARK  10 active torsions:
REMARK  status: ('A' for Active; 'I' for Inactive)
REMARK    1  A    between atoms: C_3  and  O_14 
REMARK    2  A    between atoms: C_6  and  N_13 
REMARK    3  A    between atoms: N_12  and  C_27 
REMARK    4  A    between atoms: N_13  and  C_15 
REMARK    5  A    between atoms: O_14  and  C_23 
REMARK    6  A    between atoms: C_15  and  C_16 
REMARK    7  A    between atoms: C_16  and  N_17 
REMARK    8  A    between atoms: C_23  and  C_24 
REMARK    9  A    between atoms: C_24  and  C_25 
REMARK   10  A    between atoms: C_27  and  C_28 
ROOT
HETATM    1  N   UNK N   1      21.617  17.967   5.290  0.00  0.00    -0.306 N 
ATOM      2  HN  UNK N   1      22.121  18.184   6.150  1.00  0.00     0.171 HD
HETATM    3  C   UNK N   1      21.977  18.540   4.094  0.00  0.00     0.226 A 
HETATM    4  N   UNK N   1      21.328  18.182   2.933  0.00  0.00    -0.306 N 
ATOM      5  HN  UNK N   1      21.644  18.572   2.045  1.00  0.00     0.171 HD
HETATM    6  C   UNK N   1      20.267  17.316   2.944  0.00  0.00     0.135 A 
HETATM    7  C   UNK N   1      20.571  17.104   5.293  0.00  0.00     0.142 A 
HETATM    8  C   UNK N   1      19.874  16.811   4.181  0.00  0.00     0.122 A 
HETATM    9  N   UNK N   1      18.848  16.007   4.494  0.00  0.00    -0.346 N 
ATOM     10  HN  UNK N   1      18.138  15.628   3.867  1.00  0.00     0.167 HD
HETATM   11  C   UNK N   1      18.961  15.809   5.831  0.00  0.00     0.185 A 
HETATM   12  N   UNK N   1      20.049  16.440   6.335  0.00  0.00    -0.323 N 
ENDROOT
BRANCH   6  13
HETATM   13  N   UNK N   1      19.616  16.971   1.723  0.00  0.00    -0.373 N 
HETATM   14  H   UNK N   1      18.706  17.317   1.575  0.00  0.00     0.161 HD
BRANCH  13  15
HETATM   15  C   UNK N   1      20.203  16.145   0.687  0.00  0.00     0.151 C 
BRANCH  15  16
HETATM   16  C   UNK N   1      20.621  14.771   1.210  0.00  0.00     0.292 C 
BRANCH  16  17
HETATM   17  N   UNK N   1      22.002  14.517   0.816  0.00  0.00     0.094 N 
HETATM   18  C   UNK N   1      22.896  14.793   1.939  0.00  0.00     0.298 C 
HETATM   19  C   UNK N   1      24.329  14.437   1.521  0.00  0.00     0.198 C 
HETATM   20  O   UNK N   1      24.407  13.065   1.204  0.00  0.00    -0.388 OA
HETATM   21  C   UNK N   1      23.605  12.854   0.066  0.00  0.00     0.198 C 
HETATM   22  C   UNK N   1      22.142  13.112   0.432  0.00  0.00     0.298 C 
ENDBRANCH  16  17
ENDBRANCH  15  16
ENDBRANCH  13  15
ENDBRANCH   6  13
BRANCH   3  23
HETATM   23  O   UNK N   1      22.931  19.502   4.047  0.00  0.00    -0.322 OA
BRANCH  23  24
HETATM   24  C   UNK N   1      23.160  20.272   2.923  0.00  0.00     0.178 C 
BRANCH  24  25
HETATM   25  C   UNK N   1      24.620  20.670   2.802  0.00  0.00     0.026 C 
BRANCH  25  26
HETATM   26  C   UNK N   1      25.508  19.556   3.332  0.00  0.00    -0.002 C 
HETATM   27  C   UNK N   1      26.888  20.077   3.682  0.00  0.00     0.005 C 
ENDBRANCH  25  26
ENDBRANCH  24  25
ENDBRANCH  23  24
ENDBRANCH   3  23
BRANCH  12  28
HETATM   28  C   UNK N   1      20.539  16.453   7.714  0.00  0.00     0.176 C 
BRANCH  28  29
HETATM   29  C   UNK N   1      21.062  15.156   8.341  0.00  0.00     0.037 A 
HETATM   30  C   UNK N   1      22.271  14.476   8.001  0.00  0.00     0.127 A 
HETATM   31  C   UNK N   1      22.605  13.277   8.640  0.00  0.00     0.043 A 
HETATM   32  F   UNK N   1      23.156  14.948   7.099  0.00  0.00    -0.205 F 
HETATM   33  C   UNK N   1      21.780  12.740   9.622  0.00  0.00     0.006 A 
HETATM   34  C   UNK N   1      20.619  13.413   9.992  0.00  0.00     0.043 A 
HETATM   35  C   UNK N   1      20.262  14.607   9.362  0.00  0.00     0.127 A 
HETATM   36  F   UNK N   1      19.128  15.239   9.755  0.00  0.00    -0.205 F 
ENDBRANCH  28  29
ENDBRANCH  12  28
TORSDOF 10
ENDMDL
MODEL 4
REMARK VINA RESULT:      -6.9      5.766     11.033
REMARK  10 active torsions:
REMARK  status: ('A' for Active; 'I' for Inactive)
REMARK    1  A    between atoms: C_3  and  O_14 
REMARK    2  A    between atoms: C_6  and  N_13 
REMARK    3  A    between atoms: N_12  and  C_27 
REMARK    4  A    between atoms: N_13  and  C_15 
REMARK    5  A    between atoms: O_14  and  C_23 
REMARK    6  A    between atoms: C_15  and  C_16 
REMARK    7  A    between atoms: C_16  and  N_17 
REMARK    8  A    between atoms: C_23  and  C_24 
REMARK    9  A    between atoms: C_24  and  C_25 
REMARK   10  A    between atoms: C_27  and  C_28 
ROOT
HETATM    1  N   UNK N   1      34.664  11.944  14.011  0.00  0.00    -0.306 N 
ATOM      2  HN  UNK N   1      34.033  11.459  14.650  1.00  0.00     0.171 HD
HETATM    3  C   UNK N   1      34.698  11.627  12.674  0.00  0.00     0.226 A 
HETATM    4  N   UNK N   1      35.506  12.339  11.816  0.00  0.00    -0.306 N 
ATOM      5  HN  UNK N   1      35.478  12.132  10.818  1.00  0.00     0.171 HD
HETATM    6  C   UNK N   1      36.347  13.319  12.273  0.00  0.00     0.135 A 
HETATM    7  C   UNK N   1      35.493  12.919  14.456  0.00  0.00     0.142 A 
HETATM    8  C   UNK N   1      36.349  13.565  13.643  0.00  0.00     0.122 A 
HETATM    9  N   UNK N   1      37.102  14.408  14.364  0.00  0.00    -0.346 N 
ATOM     10  HN  UNK N   1      37.845  15.022  14.031  1.00  0.00     0.167 HD
HETATM   11  C   UNK N   1      36.657  14.263  15.637  0.00  0.00     0.185 A 
HETATM   12  N   UNK N   1      35.630  13.383  15.707  0.00  0.00    -0.323 N 
ENDROOT
BRANCH   6  13
HETATM   13  N   UNK N   1      37.173  14.033  11.355  0.00  0.00    -0.373 N 
HETATM   14  H   UNK N   1      38.149  13.952  11.458  0.00  0.00     0.161 HD
BRANCH  13  15
HETATM   15  C   UNK N   1      36.672  14.871  10.284  0.00  0.00     0.151 C 
BRANCH  15  16
HETATM   16  C   UNK N   1      35.900  16.082  10.808  0.00  0.00     0.292 C 
BRANCH  16  17
HETATM   17  N   UNK N   1      34.607  16.142  10.138  0.00  0.00     0.094 N 
HETATM   18  C   UNK N   1      34.590  17.257   9.192  0.00  0.00     0.298 C 
HETATM   19  C   UNK N   1      33.250  17.243   8.445  0.00  0.00     0.198 C 
HETATM   20  O   UNK N   1      33.115  16.036   7.729  0.00  0.00    -0.388 OA
HETATM   21  C   UNK N   1      33.044  14.996   8.675  0.00  0.00     0.198 C 
HETATM   22  C   UNK N   1      34.384  14.895   9.407  0.00  0.00     0.298 C 
ENDBRANCH  16  17
ENDBRANCH  15  16
ENDBRANCH  13  15
ENDBRANCH   6  13
BRANCH   3  23
HETATM   23  O   UNK N   1      33.985  10.579  12.193  0.00  0.00    -0.322 OA
BRANCH  23  24
HETATM   24  C   UNK N   1      34.023  10.197  10.865  0.00  0.00     0.178 C 
BRANCH  24  25
HETATM   25  C   UNK N   1      33.105   9.020  10.592  0.00  0.00     0.026 C 
BRANCH  25  26
HETATM   26  C   UNK N   1      32.131   9.368   9.479  0.00  0.00    -0.002 C 
HETATM   27  C   UNK N   1      31.276   8.172   9.106  0.00  0.00     0.005 C 
ENDBRANCH  25  26
ENDBRANCH  24  25
ENDBRANCH  23  24
ENDBRANCH   3  23
BRANCH  12  28
HETATM   28  C   UNK N   1      34.858  12.973  16.880  0.00  0.00     0.176 C 
BRANCH  28  29
HETATM   29  C   UNK N   1      35.441  11.929  17.838  0.00  0.00     0.037 A 
HETATM   30  C   UNK N   1      36.093  10.712  17.473  0.00  0.00     0.127 A 
HETATM   31  C   UNK N   1      36.549   9.836  18.465  0.00  0.00     0.043 A 
HETATM   32  F   UNK N   1      36.337  10.359  16.194  0.00  0.00    -0.205 F 
HETATM   33  C   UNK N   1      36.389  10.141  19.812  0.00  0.00     0.006 A 
HETATM   34  C   UNK N   1      35.791  11.341  20.182  0.00  0.00     0.043 A 
HETATM   35  C   UNK N   1      35.323  12.228  19.210  0.00  0.00     0.127 A 
HETATM   36  F   UNK N   1      34.754  13.393  19.608  0.00  0.00    -0.205 F 
ENDBRANCH  28  29
ENDBRANCH  12  28
TORSDOF 10
ENDMDL
MODEL 5
REMARK VINA RESULT:      -6.9      4.204      9.153
REMARK  10 active torsions:
REMARK  status: ('A' for Active; 'I' for Inactive)
REMARK    1  A    between atoms: C_3  and  O_14 
REMARK    2  A    between atoms: C_6  and  N_13 
REMARK    3  A    between atoms: N_12  and  C_27 
REMARK    4  A    between atoms: N_13  and  C_15 
REMARK    5  A    between atoms: O_14  and  C_23 
REMARK    6  A    between atoms: C_15  and  C_16 
REMARK    7  A    between atoms: C_16  and  N_17 
REMARK    8  A    between atoms: C_23  and  C_24 
REMARK    9  A    between atoms: C_24  and  C_25 
REMARK   10  A    between atoms: C_27  and  C_28 
ROOT
HETATM    1  N   UNK N   1      34.182  13.296  10.101  0.00  0.00    -0.306 N 
ATOM      2  HN  UNK N   1      34.542  12.402  10.438  1.00  0.00     0.171 HD
HETATM    3  C   UNK N   1      33.210  13.346   9.131  0.00  0.00     0.226 A 
HETATM    4  N   UNK N   1      32.689  14.559   8.739  0.00  0.00    -0.306 N 
ATOM      5  HN  UNK N   1      31.928  14.579   8.061  1.00  0.00     0.171 HD
HETATM    6  C   UNK N   1      33.170  15.740   9.239  0.00  0.00     0.135 A 
HETATM    7  C   UNK N   1      34.649  14.467  10.598  0.00  0.00     0.142 A 
HETATM    8  C   UNK N   1      34.208  15.662  10.162  0.00  0.00     0.122 A 
HETATM    9  N   UNK N   1      34.904  16.640  10.760  0.00  0.00    -0.346 N 
ATOM     10  HN  UNK N   1      34.808  17.647  10.625  1.00  0.00     0.167 HD
HETATM   11  C   UNK N   1      35.765  15.996  11.586  0.00  0.00     0.185 A 
HETATM   12  N   UNK N   1      35.589  14.653  11.536  0.00  0.00    -0.323 N 
ENDROOT
BRANCH   6  13
HETATM   13  N   UNK N   1      32.609  16.978   8.806  0.00  0.00    -0.373 N 
HETATM   14  H   UNK N   1      32.464  17.678   9.484  0.00  0.00     0.161 HD
BRANCH  13  15
HETATM   15  C   UNK N   1      32.235  17.274   7.437  0.00  0.00     0.151 C 
BRANCH  15  16
HETATM   16  C   UNK N   1      33.445  17.320   6.504  0.00  0.00     0.292 C 
BRANCH  16  17
HETATM   17  N   UNK N   1      33.099  16.662   5.250  0.00  0.00     0.094 N 
HETATM   18  C   UNK N   1      31.957  15.772   5.456  0.00  0.00     0.298 C 
HETATM   19  C   UNK N   1      31.566  15.160   4.104  0.00  0.00     0.198 C 
HETATM   20  O   UNK N   1      31.191  16.181   3.208  0.00  0.00    -0.388 OA
HETATM   21  C   UNK N   1      32.336  16.963   2.965  0.00  0.00     0.198 C 
HETATM   22  C   UNK N   1      32.739  17.675   4.258  0.00  0.00     0.298 C 
ENDBRANCH  16  17
ENDBRANCH  15  16
ENDBRANCH  13  15
ENDBRANCH   6  13
BRANCH   3  23
HETATM   23  O   UNK N   1      32.793  12.217   8.508  0.00  0.00    -0.322 OA
BRANCH  23  24
HETATM   24  C   UNK N   1      33.347  10.977   8.762  0.00  0.00     0.178 C 
BRANCH  24  25
HETATM   25  C   UNK N   1      32.521  10.185   9.759  0.00  0.00     0.026 C 
BRANCH  25  26
HETATM   26  C   UNK N   1      31.850   9.012   9.062  0.00  0.00    -0.002 C 
HETATM   27  C   UNK N   1      31.887   7.768   9.929  0.00  0.00     0.005 C 
ENDBRANCH  25  26
ENDBRANCH  24  25
ENDBRANCH  23  24
ENDBRANCH   3  23
BRANCH  12  28
HETATM   28  C   UNK N   1      36.291  13.613  12.288  0.00  0.00     0.176 C 
BRANCH  28  29
HETATM   29  C   UNK N   1      35.847  13.287  13.718  0.00  0.00     0.037 A 
HETATM   30  C   UNK N   1      36.307  13.917  14.915  0.00  0.00     0.127 A 
HETATM   31  C   UNK N   1      35.832  13.490  16.160  0.00  0.00     0.043 A 
HETATM   32  F   UNK N   1      37.170  14.954  14.919  0.00  0.00    -0.205 F 
HETATM   33  C   UNK N   1      34.899  12.462  16.251  0.00  0.00     0.006 A 
HETATM   34  C   UNK N   1      34.413  11.866  15.092  0.00  0.00     0.043 A 
HETATM   35  C   UNK N   1      34.878  12.272  13.839  0.00  0.00     0.127 A 
HETATM   36  F   UNK N   1      34.374  11.674  12.730  0.00  0.00    -0.205 F 
ENDBRANCH  28  29
ENDBRANCH  12  28
TORSDOF 10
ENDMDL
MODEL 6
REMARK VINA RESULT:      -6.8      8.193     12.213
REMARK  10 active torsions:
REMARK  status: ('A' for Active; 'I' for Inactive)
REMARK    1  A    between atoms: C_3  and  O_14 
REMARK    2  A    between atoms: C_6  and  N_13 
REMARK    3  A    between atoms: N_12  and  C_27 
REMARK    4  A    between atoms: N_13  and  C_15 
REMARK    5  A    between atoms: O_14  and  C_23 
REMARK    6  A    between atoms: C_15  and  C_16 
REMARK    7  A    between atoms: C_16  and  N_17 
REMARK    8  A    between atoms: C_23  and  C_24 
REMARK    9  A    between atoms: C_24  and  C_25 
REMARK   10  A    between atoms: C_27  and  C_28 
ROOT
HETATM    1  N   UNK N   1      23.349  14.416   6.581  0.00  0.00    -0.306 N 
ATOM      2  HN  UNK N   1      23.696  13.469   6.740  1.00  0.00     0.171 HD
HETATM    3  C   UNK N   1      23.999  15.273   5.725  0.00  0.00     0.226 A 
HETATM    4  N   UNK N   1      23.477  16.522   5.471  0.00  0.00    -0.306 N 
ATOM      5  HN  UNK N   1      23.936  17.126   4.791  1.00  0.00     0.171 HD
HETATM    6  C   UNK N   1      22.353  16.972   6.113  0.00  0.00     0.135 A 
HETATM    7  C   UNK N   1      22.234  14.864   7.207  0.00  0.00     0.142 A 
HETATM    8  C   UNK N   1      21.761  16.111   7.033  0.00  0.00     0.122 A 
HETATM    9  N   UNK N   1      20.707  16.307   7.839  0.00  0.00    -0.346 N 
ATOM     10  HN  UNK N   1      20.148  17.154   7.941  1.00  0.00     0.167 HD
HETATM   11  C   UNK N   1      20.549  15.128   8.491  0.00  0.00     0.185 A 
HETATM   12  N   UNK N   1      21.453  14.207   8.078  0.00  0.00    -0.323 N 
ENDROOT
BRANCH   6  13
HETATM   13  N   UNK N   1      21.843  18.273   5.829  0.00  0.00    -0.373 N 
HETATM   14  H   UNK N   1      21.931  18.963   6.526  0.00  0.00     0.161 HD
BRANCH  13  15
HETATM   15  C   UNK N   1      21.202  18.647   4.583  0.00  0.00     0.151 C 
BRANCH  15  16
HETATM   16  C   UNK N   1      20.275  17.552   4.058  0.00  0.00     0.292 C 
BRANCH  16  17
HETATM   17  N   UNK N   1      20.721  17.155   2.728  0.00  0.00     0.094 N 
HETATM   18  C   UNK N   1      20.833  15.699   2.656  0.00  0.00     0.298 C 
HETATM   19  C   UNK N   1      21.221  15.308   1.224  0.00  0.00     0.198 C 
HETATM   20  O   UNK N   1      20.222  15.733   0.325  0.00  0.00    -0.388 OA
HETATM   21  C   UNK N   1      20.205  17.141   0.355  0.00  0.00     0.198 C 
HETATM   22  C   UNK N   1      19.743  17.605   1.738  0.00  0.00     0.298 C 
ENDBRANCH  16  17
ENDBRANCH  15  16
ENDBRANCH  13  15
ENDBRANCH   6  13
BRANCH   3  23
HETATM   23  O   UNK N   1      25.185  14.928   5.167  0.00  0.00    -0.322 OA
BRANCH  23  24
HETATM   24  C   UNK N   1      26.304  15.736   5.232  0.00  0.00     0.178 C 
BRANCH  24  25
HETATM   25  C   UNK N   1      27.043  15.779   3.907  0.00  0.00     0.026 C 
BRANCH  25  26
HETATM   26  C   UNK N   1      26.139  16.344   2.825  0.00  0.00    -0.002 C 
HETATM   27  C   UNK N   1      26.002  15.376   1.665  0.00  0.00     0.005 C 
ENDBRANCH  25  26
ENDBRANCH  24  25
ENDBRANCH  23  24
ENDBRANCH   3  23
BRANCH  12  28
HETATM   28  C   UNK N   1      21.600  12.817   8.508  0.00  0.00     0.176 C 
BRANCH  28  29
HETATM   29  C   UNK N   1      22.408  12.499   9.770  0.00  0.00     0.037 A 
HETATM   30  C   UNK N   1      23.829  12.377   9.861  0.00  0.00     0.127 A 
HETATM   31  C   UNK N   1      24.428  12.051  11.082  0.00  0.00     0.043 A 
HETATM   32  F   UNK N   1      24.657  12.598   8.820  0.00  0.00    -0.205 F 
HETATM   33  C   UNK N   1      23.657  11.856  12.224  0.00  0.00     0.006 A 
HETATM   34  C   UNK N   1      22.276  12.011  12.159  0.00  0.00     0.043 A 
HETATM   35  C   UNK N   1      21.656  12.330  10.949  0.00  0.00     0.127 A 
HETATM   36  F   UNK N   1      20.308  12.482  10.926  0.00  0.00    -0.205 F 
ENDBRANCH  28  29
ENDBRANCH  12  28
TORSDOF 10
ENDMDL
MODEL 7
REMARK VINA RESULT:      -6.8      9.819     13.457
REMARK  10 active torsions:
REMARK  status: ('A' for Active; 'I' for Inactive)
REMARK    1  A    between atoms: C_3  and  O_14 
REMARK    2  A    between atoms: C_6  and  N_13 
REMARK    3  A    between atoms: N_12  and  C_27 
REMARK    4  A    between atoms: N_13  and  C_15 
REMARK    5  A    between atoms: O_14  and  C_23 
REMARK    6  A    between atoms: C_15  and  C_16 
REMARK    7  A    between atoms: C_16  and  N_17 
REMARK    8  A    between atoms: C_23  and  C_24 
REMARK    9  A    between atoms: C_24  and  C_25 
REMARK   10  A    between atoms: C_27  and  C_28 
ROOT
HETATM    1  N   UNK N   1      21.560  18.518   4.815  0.00  0.00    -0.306 N 
ATOM      2  HN  UNK N   1      22.140  18.766   5.618  1.00  0.00     0.171 HD
HETATM    3  C   UNK N   1      21.669  19.200   3.626  0.00  0.00     0.226 A 
HETATM    4  N   UNK N   1      20.928  18.805   2.535  0.00  0.00    -0.306 N 
ATOM      5  HN  UNK N   1      21.060  19.282   1.643  1.00  0.00     0.171 HD
HETATM    6  C   UNK N   1      20.016  17.787   2.619  0.00  0.00     0.135 A 
HETATM    7  C   UNK N   1      20.662  17.506   4.890  0.00  0.00     0.142 A 
HETATM    8  C   UNK N   1      19.871  17.166   3.856  0.00  0.00     0.122 A 
HETATM    9  N   UNK N   1      19.025  16.199   4.239  0.00  0.00    -0.346 N 
ATOM     10  HN  UNK N   1      18.299  15.747   3.682  1.00  0.00     0.167 HD
HETATM   11  C   UNK N   1      19.346  15.954   5.534  0.00  0.00     0.185 A 
HETATM   12  N   UNK N   1      20.388  16.718   5.940  0.00  0.00    -0.323 N 
ENDROOT
BRANCH   6  13
HETATM   13  N   UNK N   1      19.262  17.408   1.468  0.00  0.00    -0.373 N 
HETATM   14  H   UNK N   1      18.336  17.735   1.398  0.00  0.00     0.161 HD
BRANCH  13  15
HETATM   15  C   UNK N   1      19.769  16.573   0.396  0.00  0.00     0.151 C 
BRANCH  15  16
HETATM   16  C   UNK N   1      20.378  15.271   0.915  0.00  0.00     0.292 C 
BRANCH  16  17
HETATM   17  N   UNK N   1      19.302  14.390   1.354  0.00  0.00     0.094 N 
HETATM   18  C   UNK N   1      18.768  13.651   0.211  0.00  0.00     0.298 C 
HETATM   19  C   UNK N   1      17.699  12.674   0.718  0.00  0.00     0.198 C 
HETATM   20  O   UNK N   1      18.277  11.759   1.621  0.00  0.00    -0.388 OA
HETATM   21  C   UNK N   1      18.698  12.494   2.746  0.00  0.00     0.198 C 
HETATM   22  C   UNK N   1      19.830  13.438   2.331  0.00  0.00     0.298 C 
ENDBRANCH  16  17
ENDBRANCH  15  16
ENDBRANCH  13  15
ENDBRANCH   6  13
BRANCH   3  23
HETATM   23  O   UNK N   1      22.457  20.298   3.527  0.00  0.00    -0.322 OA
BRANCH  23  24
HETATM   24  C   UNK N   1      23.632  20.310   2.799  0.00  0.00     0.178 C 
BRANCH  24  25
HETATM   25  C   UNK N   1      24.848  20.447   3.697  0.00  0.00     0.026 C 
BRANCH  25  26
HETATM   26  C   UNK N   1      25.812  19.300   3.444  0.00  0.00    -0.002 C 
HETATM   27  C   UNK N   1      25.149  17.961   3.703  0.00  0.00     0.005 C 
ENDBRANCH  25  26
ENDBRANCH  24  25
ENDBRANCH  23  24
ENDBRANCH   3  23
BRANCH  12  28
HETATM   28  C   UNK N   1      21.052  16.736   7.243  0.00  0.00     0.176 C 
BRANCH  28  29
HETATM   29  C   UNK N   1      21.069  15.465   8.099  0.00  0.00     0.037 A 
HETATM   30  C   UNK N   1      20.129  15.111   9.114  0.00  0.00     0.127 A 
HETATM   31  C   UNK N   1      20.291  13.926   9.839  0.00  0.00     0.043 A 
HETATM   32  F   UNK N   1      19.040  15.854   9.404  0.00  0.00    -0.205 F 
HETATM   33  C   UNK N   1      21.355  13.070   9.573  0.00  0.00     0.006 A 
HETATM   34  C   UNK N   1      22.256  13.381   8.560  0.00  0.00     0.043 A 
HETATM   35  C   UNK N   1      22.117  14.563   7.829  0.00  0.00     0.127 A 
HETATM   36  F   UNK N   1      23.010  14.830   6.843  0.00  0.00    -0.205 F 
ENDBRANCH  28  29
ENDBRANCH  12  28
TORSDOF 10
ENDMDL
MODEL 8
REMARK VINA RESULT:      -6.8      7.635     11.952
REMARK  10 active torsions:
REMARK  status: ('A' for Active; 'I' for Inactive)
REMARK    1  A    between atoms: C_3  and  O_14 
REMARK    2  A    between atoms: C_6  and  N_13 
REMARK    3  A    between atoms: N_12  and  C_27 
REMARK    4  A    between atoms: N_13  and  C_15 
REMARK    5  A    between atoms: O_14  and  C_23 
REMARK    6  A    between atoms: C_15  and  C_16 
REMARK    7  A    between atoms: C_16  and  N_17 
REMARK    8  A    between atoms: C_23  and  C_24 
REMARK    9  A    between atoms: C_24  and  C_25 
REMARK   10  A    between atoms: C_27  and  C_28 
ROOT
HETATM    1  N   UNK N   1      23.584  14.376   7.138  0.00  0.00    -0.306 N 
ATOM      2  HN  UNK N   1      24.053  13.504   7.386  1.00  0.00     0.171 HD
HETATM    3  C   UNK N   1      24.239  15.357   6.434  0.00  0.00     0.226 A 
HETATM    4  N   UNK N   1      23.568  16.497   6.050  0.00  0.00    -0.306 N 
ATOM      5  HN  UNK N   1      24.049  17.191   5.479  1.00  0.00     0.171 HD
HETATM    6  C   UNK N   1      22.268  16.720   6.419  0.00  0.00     0.135 A 
HETATM    7  C   UNK N   1      22.295  14.599   7.494  0.00  0.00     0.142 A 
HETATM    8  C   UNK N   1      21.653  15.744   7.198  0.00  0.00     0.122 A 
HETATM    9  N   UNK N   1      20.429  15.725   7.746  0.00  0.00    -0.346 N 
ATOM     10  HN  UNK N   1      19.717  16.454   7.708  1.00  0.00     0.167 HD
HETATM   11  C   UNK N   1      20.348  14.522   8.366  0.00  0.00     0.185 A 
HETATM   12  N   UNK N   1      21.473  13.790   8.179  0.00  0.00    -0.323 N 
ENDROOT
BRANCH   6  13
HETATM   13  N   UNK N   1      21.605  17.914   6.007  0.00  0.00    -0.373 N 
HETATM   14  H   UNK N   1      21.809  18.744   6.496  0.00  0.00     0.161 HD
BRANCH  13  15
HETATM   15  C   UNK N   1      20.650  17.986   4.918  0.00  0.00     0.151 C 
BRANCH  15  16
HETATM   16  C   UNK N   1      21.254  17.539   3.588  0.00  0.00     0.292 C 
BRANCH  16  17
HETATM   17  N   UNK N   1      21.680  18.717   2.843  0.00  0.00     0.094 N 
HETATM   18  C   UNK N   1      20.592  19.693   2.795  0.00  0.00     0.298 C 
HETATM   19  C   UNK N   1      21.098  20.953   2.079  0.00  0.00     0.198 C 
HETATM   20  O   UNK N   1      22.177  21.509   2.796  0.00  0.00    -0.388 OA
HETATM   21  C   UNK N   1      23.234  20.581   2.744  0.00  0.00     0.198 C 
HETATM   22  C   UNK N   1      22.831  19.321   3.515  0.00  0.00     0.298 C 
ENDBRANCH  16  17
ENDBRANCH  15  16
ENDBRANCH  13  15
ENDBRANCH   6  13
BRANCH   3  23
HETATM   23  O   UNK N   1      25.562  15.246   6.159  0.00  0.00    -0.322 OA
BRANCH  23  24
HETATM   24  C   UNK N   1      26.287  16.259   5.560  0.00  0.00     0.178 C 
BRANCH  24  25
HETATM   25  C   UNK N   1      27.747  16.225   5.975  0.00  0.00     0.026 C 
BRANCH  25  26
HETATM   26  C   UNK N   1      28.009  17.277   7.039  0.00  0.00    -0.002 C 
HETATM   27  C   UNK N   1      27.751  18.673   6.505  0.00  0.00     0.005 C 
ENDBRANCH  25  26
ENDBRANCH  24  25
ENDBRANCH  23  24
ENDBRANCH   3  23
BRANCH  12  28
HETATM   28  C   UNK N   1      21.772  12.439   8.654  0.00  0.00     0.176 C 
BRANCH  28  29
HETATM   29  C   UNK N   1      22.507  12.252   9.986  0.00  0.00     0.037 A 
HETATM   30  C   UNK N   1      23.919  12.148  10.169  0.00  0.00     0.127 A 
HETATM   31  C   UNK N   1      24.447  11.948  11.449  0.00  0.00     0.043 A 
HETATM   32  F   UNK N   1      24.806  12.269   9.160  0.00  0.00    -0.205 F 
HETATM   33  C   UNK N   1      23.613  11.863  12.558  0.00  0.00     0.006 A 
HETATM   34  C   UNK N   1      22.237  12.003  12.400  0.00  0.00     0.043 A 
HETATM   35  C   UNK N   1      21.688  12.197  11.130  0.00  0.00     0.127 A 
HETATM   36  F   UNK N   1      20.343  12.338  11.015  0.00  0.00    -0.205 F 
ENDBRANCH  28  29
ENDBRANCH  12  28
TORSDOF 10
ENDMDL
MODEL 9
REMARK VINA RESULT:      -6.8      4.029      8.948
REMARK  10 active torsions:
REMARK  status: ('A' for Active; 'I' for Inactive)
REMARK    1  A    between atoms: C_3  and  O_14 
REMARK    2  A    between atoms: C_6  and  N_13 
REMARK    3  A    between atoms: N_12  and  C_27 
REMARK    4  A    between atoms: N_13  and  C_15 
REMARK    5  A    between atoms: O_14  and  C_23 
REMARK    6  A    between atoms: C_15  and  C_16 
REMARK    7  A    between atoms: C_16  and  N_17 
REMARK    8  A    between atoms: C_23  and  C_24 
REMARK    9  A    between atoms: C_24  and  C_25 
REMARK   10  A    between atoms: C_27  and  C_28 
ROOT
HETATM    1  N   UNK N   1      34.224  13.316  10.149  0.00  0.00    -0.306 N 
ATOM      2  HN  UNK N   1      34.602  12.435  10.499  1.00  0.00     0.171 HD
HETATM    3  C   UNK N   1      33.250  13.333   9.180  0.00  0.00     0.226 A 
HETATM    4  N   UNK N   1      32.704  14.529   8.770  0.00  0.00    -0.306 N 
ATOM      5  HN  UNK N   1      31.942  14.524   8.092  1.00  0.00     0.171 HD
HETATM    6  C   UNK N   1      33.162  15.727   9.251  0.00  0.00     0.135 A 
HETATM    7  C   UNK N   1      34.668  14.505  10.627  0.00  0.00     0.142 A 
HETATM    8  C   UNK N   1      34.204  15.683  10.174  0.00  0.00     0.122 A 
HETATM    9  N   UNK N   1      34.880  16.684  10.756  0.00  0.00    -0.346 N 
ATOM     10  HN  UNK N   1      34.764  17.686  10.605  1.00  0.00     0.167 HD
HETATM   11  C   UNK N   1      35.755  16.069  11.590  0.00  0.00     0.185 A 
HETATM   12  N   UNK N   1      35.606  14.723  11.561  0.00  0.00    -0.323 N 
ENDROOT
BRANCH   6  13
HETATM   13  N   UNK N   1      32.577  16.947   8.800  0.00  0.00    -0.373 N 
HETATM   14  H   UNK N   1      31.714  17.214   9.193  0.00  0.00     0.161 HD
BRANCH  13  15
HETATM   15  C   UNK N   1      33.165  17.818   7.802  0.00  0.00     0.151 C 
BRANCH  15  16
HETATM   16  C   UNK N   1      34.026  17.051   6.799  0.00  0.00     0.292 C 
BRANCH  16  17
HETATM   17  N   UNK N   1      33.449  17.204   5.469  0.00  0.00     0.094 N 
HETATM   18  C   UNK N   1      33.798  16.050   4.642  0.00  0.00     0.298 C 
HETATM   19  C   UNK N   1      33.108  16.199   3.279  0.00  0.00     0.198 C 
HETATM   20  O   UNK N   1      31.710  16.229   3.452  0.00  0.00    -0.388 OA
HETATM   21  C   UNK N   1      31.404  17.398   4.174  0.00  0.00     0.198 C 
HETATM   22  C   UNK N   1      31.993  17.284   5.582  0.00  0.00     0.298 C 
ENDBRANCH  16  17
ENDBRANCH  15  16
ENDBRANCH  13  15
ENDBRANCH   6  13
BRANCH   3  23
HETATM   23  O   UNK N   1      32.855  12.186   8.575  0.00  0.00    -0.322 OA
BRANCH  23  24
HETATM   24  C   UNK N   1      33.628  11.040   8.570  0.00  0.00     0.178 C 
BRANCH  24  25
HETATM   25  C   UNK N   1      32.808   9.811   8.223  0.00  0.00     0.026 C 
BRANCH  25  26
HETATM   26  C   UNK N   1      32.124   9.274   9.470  0.00  0.00    -0.002 C 
HETATM   27  C   UNK N   1      33.084   9.229  10.643  0.00  0.00     0.005 C 
ENDBRANCH  25  26
ENDBRANCH  24  25
ENDBRANCH  23  24
ENDBRANCH   3  23
BRANCH  12  28
HETATM   28  C   UNK N   1      36.329  13.709  12.328  0.00  0.00     0.176 C 
BRANCH  28  29
HETATM   29  C   UNK N   1      35.726  13.178  13.634  0.00  0.00     0.037 A 
HETATM   30  C   UNK N   1      34.771  12.124  13.762  0.00  0.00     0.127 A 
HETATM   31  C   UNK N   1      34.285  11.768  15.024  0.00  0.00     0.043 A 
HETATM   32  F   UNK N   1      34.319  11.405  12.714  0.00  0.00    -0.205 F 
HETATM   33  C   UNK N   1      34.733  12.419  16.169  0.00  0.00     0.006 A 
HETATM   34  C   UNK N   1      35.693  13.420  16.063  0.00  0.00     0.043 A 
HETATM   35  C   UNK N   1      36.187  13.797  14.812  0.00  0.00     0.127 A 
HETATM   36  F   UNK N   1      37.129  14.771  14.748  0.00  0.00    -0.205 F 
ENDBRANCH  28  29
ENDBRANCH  12  28
TORSDOF 10
ENDMDL
