MODEL 1
REMARK VINA RESULT:      -4.7      0.000      0.000
REMARK  6 active torsions:
REMARK  status: ('A' for Active; 'I' for Inactive)
REMARK    1  A    between atoms: S_1  and  C_2 
REMARK    2  A    between atoms: C_2  and  C_3 
REMARK    3  A    between atoms: C_3  and  C_4 
REMARK       I    between atoms: C_4  and  N_6 
REMARK    4  A    between atoms: N_6  and  C_7 
REMARK    5  A    between atoms: C_7  and  C_9 
REMARK    6  A    between atoms: C_9  and  O_11 
ROOT
HETATM    1  C   UNK N   1      34.706  16.298  10.431  0.00  0.00     0.219 C 
HETATM    2  O   UNK N   1      35.254  17.335  10.779  0.00  0.00    -0.274 OA
HETATM    3  N   UNK N   1      33.783  16.288   9.432  0.00  0.00    -0.347 N 
HETATM    4  H   UNK N   1      33.391  15.413   9.214  0.00  0.00     0.163 HD
ENDROOT
BRANCH   3   5
HETATM    5  C   UNK N   1      33.304  17.417   8.644  0.00  0.00     0.178 C 
HETATM    6  C   UNK N   1      31.914  18.019   8.483  0.00  0.00     0.043 C 
BRANCH   5   7
HETATM    7  C   UNK N   1      34.343  18.145   7.830  0.00  0.00     0.163 C 
HETATM    8  O   UNK N   1      34.534  17.864   6.656  0.00  0.00    -0.648 OA
BRANCH   7   9
HETATM    9  O   UNK N   1      35.073  19.120   8.404  0.00  0.00    -0.775 OA
HETATM   10  H   UNK N   1      35.223  19.925   7.948  0.00  0.00     0.167 HD
ENDBRANCH   7   9
ENDBRANCH   5   7
ENDBRANCH   3   5
BRANCH   1  11
HETATM   11  C   UNK N   1      35.035  14.993  11.098  0.00  0.00     0.112 C 
BRANCH  11  12
HETATM   12  C   UNK N   1      36.064  15.106  12.209  0.00  0.00     0.080 C 
BRANCH  12  13
HETATM   13  S   UNK N   1      35.773  13.779  13.411  0.00  0.00    -0.182 SA
HETATM   14  H   UNK N   1      35.958  14.011  14.739  0.00  0.00     0.101 HD
ENDBRANCH  12  13
ENDBRANCH  11  12
ENDBRANCH   1  11
TORSDOF 6
ENDMDL
MODEL 2
REMARK VINA RESULT:      -4.4     13.565     14.345
REMARK  6 active torsions:
REMARK  status: ('A' for Active; 'I' for Inactive)
REMARK    1  A    between atoms: S_1  and  C_2 
REMARK    2  A    between atoms: C_2  and  C_3 
REMARK    3  A    between atoms: C_3  and  C_4 
REMARK       I    between atoms: C_4  and  N_6 
REMARK    4  A    between atoms: N_6  and  C_7 
REMARK    5  A    between atoms: C_7  and  C_9 
REMARK    6  A    between atoms: C_9  and  O_11 
ROOT
HETATM    1  C   UNK N   1      20.386  14.734   9.387  0.00  0.00     0.219 C 
HETATM    2  O   UNK N   1      19.310  14.322   9.795  0.00  0.00    -0.274 OA
HETATM    3  N   UNK N   1      20.527  16.009   8.933  0.00  0.00    -0.347 N 
HETATM    4  H   UNK N   1      21.427  16.260   8.623  0.00  0.00     0.163 HD
ENDROOT
BRANCH   3   5
HETATM    5  C   UNK N   1      19.508  17.048   8.849  0.00  0.00     0.178 C 
HETATM    6  C   UNK N   1      17.991  16.967   8.744  0.00  0.00     0.043 C 
BRANCH   5   7
HETATM    7  C   UNK N   1      20.009  18.469   8.867  0.00  0.00     0.163 C 
HETATM    8  O   UNK N   1      19.877  19.171   9.858  0.00  0.00    -0.648 OA
BRANCH   7   9
HETATM    9  O   UNK N   1      20.611  18.974   7.773  0.00  0.00    -0.775 OA
HETATM   10  H   UNK N   1      20.265  19.740   7.359  0.00  0.00     0.167 HD
ENDBRANCH   7   9
ENDBRANCH   5   7
ENDBRANCH   3   5
BRANCH   1  11
HETATM   11  C   UNK N   1      21.596  13.845   9.374  0.00  0.00     0.112 C 
BRANCH  11  12
HETATM   12  C   UNK N   1      21.395  12.514  10.077  0.00  0.00     0.080 C 
BRANCH  12  13
HETATM   13  S   UNK N   1      22.855  12.168  11.098  0.00  0.00    -0.182 SA
HETATM   14  H   UNK N   1      23.337  10.899  11.188  0.00  0.00     0.101 HD
ENDBRANCH  12  13
ENDBRANCH  11  12
ENDBRANCH   1  11
TORSDOF 6
ENDMDL
MODEL 3
REMARK VINA RESULT:      -4.3      3.301      4.937
REMARK  6 active torsions:
REMARK  status: ('A' for Active; 'I' for Inactive)
REMARK    1  A    between atoms: S_1  and  C_2 
REMARK    2  A    between atoms: C_2  and  C_3 
REMARK    3  A    between atoms: C_3  and  C_4 
REMARK       I    between atoms: C_4  and  N_6 
REMARK    4  A    between atoms: N_6  and  C_7 
REMARK    5  A    between atoms: C_7  and  C_9 
REMARK    6  A    between atoms: C_9  and  O_11 
ROOT
HETATM    1  C   UNK N   1      31.579  16.911   7.561  0.00  0.00     0.219 C 
HETATM    2  O   UNK N   1      32.149  16.262   6.696  0.00  0.00    -0.274 OA
HETATM    3  N   UNK N   1      32.267  17.461   8.599  0.00  0.00    -0.347 N 
HETATM    4  H   UNK N   1      31.732  17.969   9.252  0.00  0.00     0.163 HD
ENDROOT
BRANCH   3   5
HETATM    5  C   UNK N   1      33.698  17.389   8.863  0.00  0.00     0.178 C 
HETATM    6  C   UNK N   1      34.499  16.579   9.874  0.00  0.00     0.043 C 
BRANCH   5   7
HETATM    7  C   UNK N   1      34.575  18.259   7.999  0.00  0.00     0.163 C 
HETATM    8  O   UNK N   1      35.247  19.156   8.485  0.00  0.00    -0.648 OA
BRANCH   7   9
HETATM    9  O   UNK N   1      34.618  18.045   6.670  0.00  0.00    -0.775 OA
HETATM   10  H   UNK N   1      35.320  17.547   6.297  0.00  0.00     0.167 HD
ENDBRANCH   7   9
ENDBRANCH   5   7
ENDBRANCH   3   5
BRANCH   1  11
HETATM   11  C   UNK N   1      30.094  17.127   7.509  0.00  0.00     0.112 C 
BRANCH  11  12
HETATM   12  C   UNK N   1      29.591  18.205   8.453  0.00  0.00     0.080 C 
BRANCH  12  13
HETATM   13  S   UNK N   1      28.130  17.579   9.328  0.00  0.00    -0.182 SA
HETATM   14  H   UNK N   1      26.909  17.620   8.730  0.00  0.00     0.101 HD
ENDBRANCH  12  13
ENDBRANCH  11  12
ENDBRANCH   1  11
TORSDOF 6
ENDMDL
MODEL 4
REMARK VINA RESULT:      -4.2      3.114      4.371
REMARK  6 active torsions:
REMARK  status: ('A' for Active; 'I' for Inactive)
REMARK    1  A    between atoms: S_1  and  C_2 
REMARK    2  A    between atoms: C_2  and  C_3 
REMARK    3  A    between atoms: C_3  and  C_4 
REMARK       I    between atoms: C_4  and  N_6 
REMARK    4  A    between atoms: N_6  and  C_7 
REMARK    5  A    between atoms: C_7  and  C_9 
REMARK    6  A    between atoms: C_9  and  O_11 
ROOT
HETATM    1  C   UNK N   1      35.990  14.162  13.412  0.00  0.00     0.219 C 
HETATM    2  O   UNK N   1      34.888  13.701  13.153  0.00  0.00    -0.274 OA
HETATM    3  N   UNK N   1      36.729  14.802  12.465  0.00  0.00    -0.347 N 
HETATM    4  H   UNK N   1      37.605  15.143  12.757  0.00  0.00     0.163 HD
ENDROOT
BRANCH   3   5
HETATM    5  C   UNK N   1      36.380  15.045  11.071  0.00  0.00     0.178 C 
HETATM    6  C   UNK N   1      36.898  14.428   9.778  0.00  0.00     0.043 C 
BRANCH   5   7
HETATM    7  C   UNK N   1      35.318  16.087  10.826  0.00  0.00     0.163 C 
HETATM    8  O   UNK N   1      35.617  17.230  10.517  0.00  0.00    -0.648 OA
BRANCH   7   9
HETATM    9  O   UNK N   1      34.020  15.752  10.950  0.00  0.00    -0.775 OA
HETATM   10  H   UNK N   1      33.650  15.611  11.799  0.00  0.00     0.167 HD
ENDBRANCH   7   9
ENDBRANCH   5   7
ENDBRANCH   3   5
BRANCH   1  11
HETATM   11  C   UNK N   1      36.572  14.037  14.791  0.00  0.00     0.112 C 
BRANCH  11  12
HETATM   12  C   UNK N   1      36.233  12.733  15.491  0.00  0.00     0.080 C 
BRANCH  12  13
HETATM   13  S   UNK N   1      35.049  13.076  16.823  0.00  0.00    -0.182 SA
HETATM   14  H   UNK N   1      33.736  13.277  16.530  0.00  0.00     0.101 HD
ENDBRANCH  12  13
ENDBRANCH  11  12
ENDBRANCH   1  11
TORSDOF 6
ENDMDL
MODEL 5
REMARK VINA RESULT:      -4.0     16.326     17.996
REMARK  6 active torsions:
REMARK  status: ('A' for Active; 'I' for Inactive)
REMARK    1  A    between atoms: S_1  and  C_2 
REMARK    2  A    between atoms: C_2  and  C_3 
REMARK    3  A    between atoms: C_3  and  C_4 
REMARK       I    between atoms: C_4  and  N_6 
REMARK    4  A    between atoms: N_6  and  C_7 
REMARK    5  A    between atoms: C_7  and  C_9 
REMARK    6  A    between atoms: C_9  and  O_11 
ROOT
HETATM    1  C   UNK N   1      27.224  24.575  -3.957  0.00  0.00     0.219 C 
HETATM    2  O   UNK N   1      26.227  24.071  -3.461  0.00  0.00    -0.274 OA
HETATM    3  N   UNK N   1      27.180  25.807  -4.535  0.00  0.00    -0.347 N 
HETATM    4  H   UNK N   1      28.027  26.139  -4.911  0.00  0.00     0.163 HD
ENDROOT
BRANCH   3   5
HETATM    5  C   UNK N   1      26.031  26.694  -4.665  0.00  0.00     0.178 C 
HETATM    6  C   UNK N   1      24.930  26.772  -5.715  0.00  0.00     0.043 C 
BRANCH   5   7
HETATM    7  C   UNK N   1      25.871  27.733  -3.585  0.00  0.00     0.163 C 
HETATM    8  O   UNK N   1      25.945  27.430  -2.404  0.00  0.00    -0.648 OA
BRANCH   7   9
HETATM    9  O   UNK N   1      25.644  29.015  -3.927  0.00  0.00    -0.775 OA
HETATM   10  H   UNK N   1      26.281  29.488  -4.426  0.00  0.00     0.167 HD
ENDBRANCH   7   9
ENDBRANCH   5   7
ENDBRANCH   3   5
BRANCH   1  11
HETATM   11  C   UNK N   1      28.540  23.850  -3.947  0.00  0.00     0.112 C 
BRANCH  11  12
HETATM   12  C   UNK N   1      28.950  23.330  -2.581  0.00  0.00     0.080 C 
BRANCH  12  13
HETATM   13  S   UNK N   1      30.652  22.708  -2.681  0.00  0.00    -0.182 SA
HETATM   14  H   UNK N   1      31.640  23.504  -3.170  0.00  0.00     0.101 HD
ENDBRANCH  12  13
ENDBRANCH  11  12
ENDBRANCH   1  11
TORSDOF 6
ENDMDL
MODEL 6
REMARK VINA RESULT:      -3.9     13.301     14.297
REMARK  6 active torsions:
REMARK  status: ('A' for Active; 'I' for Inactive)
REMARK    1  A    between atoms: S_1  and  C_2 
REMARK    2  A    between atoms: C_2  and  C_3 
REMARK    3  A    between atoms: C_3  and  C_4 
REMARK       I    between atoms: C_4  and  N_6 
REMARK    4  A    between atoms: N_6  and  C_7 
REMARK    5  A    between atoms: C_7  and  C_9 
REMARK    6  A    between atoms: C_9  and  O_11 
ROOT
HETATM    1  C   UNK N   1      20.754  14.183   8.965  0.00  0.00     0.219 C 
HETATM    2  O   UNK N   1      20.253  13.707   7.956  0.00  0.00    -0.274 OA
HETATM    3  N   UNK N   1      20.783  15.527   9.173  0.00  0.00    -0.347 N 
HETATM    4  H   UNK N   1      21.204  15.827  10.010  0.00  0.00     0.163 HD
ENDROOT
BRANCH   3   5
HETATM    5  C   UNK N   1      20.266  16.578   8.305  0.00  0.00     0.178 C 
HETATM    6  C   UNK N   1      20.829  17.210   7.039  0.00  0.00     0.043 C 
BRANCH   5   7
HETATM    7  C   UNK N   1      18.938  17.170   8.701  0.00  0.00     0.163 C 
HETATM    8  O   UNK N   1      17.891  16.589   8.457  0.00  0.00    -0.648 OA
BRANCH   7   9
HETATM    9  O   UNK N   1      18.903  18.359   9.334  0.00  0.00    -0.775 OA
HETATM   10  H   UNK N   1      18.173  18.579   9.879  0.00  0.00     0.167 HD
ENDBRANCH   7   9
ENDBRANCH   5   7
ENDBRANCH   3   5
BRANCH   1  11
HETATM   11  C   UNK N   1      21.357  13.296  10.017  0.00  0.00     0.112 C 
BRANCH  11  12
HETATM   12  C   UNK N   1      22.871  13.202   9.954  0.00  0.00     0.080 C 
BRANCH  12  13
HETATM   13  S   UNK N   1      23.327  11.609   9.215  0.00  0.00    -0.182 SA
HETATM   14  H   UNK N   1      23.927  10.653   9.974  0.00  0.00     0.101 HD
ENDBRANCH  12  13
ENDBRANCH  11  12
ENDBRANCH   1  11
TORSDOF 6
ENDMDL
MODEL 7
REMARK VINA RESULT:      -3.9     14.472     15.693
REMARK  6 active torsions:
REMARK  status: ('A' for Active; 'I' for Inactive)
REMARK    1  A    between atoms: S_1  and  C_2 
REMARK    2  A    between atoms: C_2  and  C_3 
REMARK    3  A    between atoms: C_3  and  C_4 
REMARK       I    between atoms: C_4  and  N_6 
REMARK    4  A    between atoms: N_6  and  C_7 
REMARK    5  A    between atoms: C_7  and  C_9 
REMARK    6  A    between atoms: C_9  and  O_11 
ROOT
HETATM    1  C   UNK N   1      45.868  25.073   2.170  0.00  0.00     0.219 C 
HETATM    2  O   UNK N   1      45.162  25.827   2.824  0.00  0.00    -0.274 OA
HETATM    3  N   UNK N   1      45.531  23.767   1.990  0.00  0.00    -0.347 N 
HETATM    4  H   UNK N   1      46.154  23.230   1.450  0.00  0.00     0.163 HD
ENDROOT
BRANCH   3   5
HETATM    5  C   UNK N   1      44.359  23.067   2.499  0.00  0.00     0.178 C 
HETATM    6  C   UNK N   1      42.921  23.011   2.001  0.00  0.00     0.043 C 
BRANCH   5   7
HETATM    7  C   UNK N   1      44.570  22.239   3.741  0.00  0.00     0.163 C 
HETATM    8  O   UNK N   1      43.636  21.665   4.282  0.00  0.00    -0.648 OA
BRANCH   7   9
HETATM    9  O   UNK N   1      45.806  22.130   4.264  0.00  0.00    -0.775 OA
HETATM   10  H   UNK N   1      46.060  22.672   4.985  0.00  0.00     0.167 HD
ENDBRANCH   7   9
ENDBRANCH   5   7
ENDBRANCH   3   5
BRANCH   1  11
HETATM   11  C   UNK N   1      47.139  25.565   1.538  0.00  0.00     0.112 C 
BRANCH  11  12
HETATM   12  C   UNK N   1      47.199  25.370   0.034  0.00  0.00     0.080 C 
BRANCH  12  13
HETATM   13  S   UNK N   1      46.005  26.490  -0.749  0.00  0.00    -0.182 SA
HETATM   14  H   UNK N   1      46.325  27.798  -0.942  0.00  0.00     0.101 HD
ENDBRANCH  12  13
ENDBRANCH  11  12
ENDBRANCH   1  11
TORSDOF 6
ENDMDL
MODEL 8
REMARK VINA RESULT:      -3.8     12.960     14.022
REMARK  6 active torsions:
REMARK  status: ('A' for Active; 'I' for Inactive)
REMARK    1  A    between atoms: S_1  and  C_2 
REMARK    2  A    between atoms: C_2  and  C_3 
REMARK    3  A    between atoms: C_3  and  C_4 
REMARK       I    between atoms: C_4  and  N_6 
REMARK    4  A    between atoms: N_6  and  C_7 
REMARK    5  A    between atoms: C_7  and  C_9 
REMARK    6  A    between atoms: C_9  and  O_11 
ROOT
HETATM    1  C   UNK N   1      21.448  13.975   9.293  0.00  0.00     0.219 C 
HETATM    2  O   UNK N   1      22.259  14.195   8.405  0.00  0.00    -0.274 OA
HETATM    3  N   UNK N   1      21.650  12.985  10.205  0.00  0.00    -0.347 N 
HETATM    4  H   UNK N   1      20.949  12.874  10.886  0.00  0.00     0.163 HD
ENDROOT
BRANCH   3   5
HETATM    5  C   UNK N   1      22.780  12.068  10.294  0.00  0.00     0.178 C 
HETATM    6  C   UNK N   1      23.504  11.251   9.232  0.00  0.00     0.043 C 
BRANCH   5   7
HETATM    7  C   UNK N   1      23.363  11.868  11.670  0.00  0.00     0.163 C 
HETATM    8  O   UNK N   1      24.561  11.994  11.871  0.00  0.00    -0.648 OA
BRANCH   7   9
HETATM    9  O   UNK N   1      22.550  11.545  12.694  0.00  0.00    -0.775 OA
HETATM   10  H   UNK N   1      21.797  11.007  12.544  0.00  0.00     0.167 HD
ENDBRANCH   7   9
ENDBRANCH   5   7
ENDBRANCH   3   5
BRANCH   1  11
HETATM   11  C   UNK N   1      20.194  14.793   9.410  0.00  0.00     0.112 C 
BRANCH  11  12
HETATM   12  C   UNK N   1      20.267  16.143   8.719  0.00  0.00     0.080 C 
BRANCH  12  13
HETATM   13  S   UNK N   1      18.658  16.966   8.873  0.00  0.00    -0.182 SA
HETATM   14  H   UNK N   1      18.139  17.649   7.817  0.00  0.00     0.101 HD
ENDBRANCH  12  13
ENDBRANCH  11  12
ENDBRANCH   1  11
TORSDOF 6
ENDMDL
MODEL 9
REMARK VINA RESULT:      -3.8      2.496      3.489
REMARK  6 active torsions:
REMARK  status: ('A' for Active; 'I' for Inactive)
REMARK    1  A    between atoms: S_1  and  C_2 
REMARK    2  A    between atoms: C_2  and  C_3 
REMARK    3  A    between atoms: C_3  and  C_4 
REMARK       I    between atoms: C_4  and  N_6 
REMARK    4  A    between atoms: N_6  and  C_7 
REMARK    5  A    between atoms: C_7  and  C_9 
REMARK    6  A    between atoms: C_9  and  O_11 
ROOT
HETATM    1  C   UNK N   1      35.080  13.120  11.612  0.00  0.00     0.219 C 
HETATM    2  O   UNK N   1      35.677  12.687  10.637  0.00  0.00    -0.274 OA
HETATM    3  N   UNK N   1      34.541  14.370  11.612  0.00  0.00    -0.347 N 
HETATM    4  H   UNK N   1      34.077  14.641  12.437  0.00  0.00     0.163 HD
ENDROOT
BRANCH   3   5
HETATM    5  C   UNK N   1      34.567  15.356  10.539  0.00  0.00     0.178 C 
HETATM    6  C   UNK N   1      33.665  15.554   9.328  0.00  0.00     0.043 C 
BRANCH   5   7
HETATM    7  C   UNK N   1      35.671  16.380  10.608  0.00  0.00     0.163 C 
HETATM    8  O   UNK N   1      35.461  17.552  10.332  0.00  0.00    -0.648 OA
BRANCH   7   9
HETATM    9  O   UNK N   1      36.908  15.998  10.978  0.00  0.00    -0.775 OA
HETATM   10  H   UNK N   1      37.445  16.574  11.485  0.00  0.00     0.167 HD
ENDBRANCH   7   9
ENDBRANCH   5   7
ENDBRANCH   3   5
BRANCH   1  11
HETATM   11  C   UNK N   1      34.919  12.285  12.850  0.00  0.00     0.112 C 
BRANCH  11  12
HETATM   12  C   UNK N   1      35.968  12.549  13.916  0.00  0.00     0.080 C 
BRANCH  12  13
HETATM   13  S   UNK N   1      35.128  12.918  15.482  0.00  0.00    -0.182 SA
HETATM   14  H   UNK N   1      35.854  13.078  16.621  0.00  0.00     0.101 HD
ENDBRANCH  12  13
ENDBRANCH  11  12
ENDBRANCH   1  11
TORSDOF 6
ENDMDL
