REMARK  6 active torsions:
REMARK  status: ('A' for Active; 'I' for Inactive)
REMARK    1  A    between atoms: S_1  and  C_2 
REMARK    2  A    between atoms: C_2  and  C_3 
REMARK    3  A    between atoms: C_3  and  C_4 
REMARK       I    between atoms: C_4  and  N_6 
REMARK    4  A    between atoms: N_6  and  C_7 
REMARK    5  A    between atoms: C_7  and  C_9 
REMARK    6  A    between atoms: C_9  and  O_11 
ROOT
HETATM    1  C   UNK N   1      -0.923   0.247  -0.000  0.00  0.00     0.219 C 
HETATM    2  O   UNK N   1      -1.111   1.455   0.000  0.00  0.00    -0.274 OA
HETATM    3  N   UNK N   1       0.335  -0.272  -0.000  0.00  0.00    -0.347 N 
HETATM    4  H   UNK N   1       0.398  -1.254  -0.000  0.00  0.00     0.163 HD
ENDROOT
BRANCH   3   5
HETATM    5  C   UNK N   1       1.601   0.450   0.000  0.00  0.00     0.178 C 
HETATM    6  C   UNK N   1       1.913   1.941  -0.000  0.00  0.00     0.043 C 
BRANCH   5   7
HETATM    7  C   UNK N   1       2.847  -0.398   0.000  0.00  0.00     0.163 C 
HETATM    8  O   UNK N   1       3.957   0.113   0.000  0.00  0.00    -0.648 OA
BRANCH   7   9
HETATM    9  O   UNK N   1       2.736  -1.740  -0.000  0.00  0.00    -0.775 OA
HETATM   10  H   UNK N   1       1.889  -2.141  -0.000  0.00  0.00     0.167 HD
ENDBRANCH   7   9
ENDBRANCH   5   7
ENDBRANCH   3   5
BRANCH   1  11
HETATM   11  C   UNK N   1      -2.079  -0.712  -0.000  0.00  0.00     0.112 C 
BRANCH  11  12
HETATM   12  C   UNK N   1      -3.441  -0.041  -0.000  0.00  0.00     0.080 C 
BRANCH  12  13
HETATM   13  S   UNK N   1      -4.724  -1.324   0.000  0.00  0.00    -0.182 SA
HETATM   14  H   UNK N   1      -6.038  -0.972   0.000  0.00  0.00     0.101 HD
ENDBRANCH  12  13
ENDBRANCH  11  12
ENDBRANCH   1  11
TORSDOF 6
