MODEL 1
REMARK VINA RESULT:      -7.2      0.000      0.000
REMARK  3 active torsions:
REMARK  status: ('A' for Active; 'I' for Inactive)
REMARK    1  A    between atoms: C_5  and  N_16 
REMARK    2  A    between atoms: N_16  and  C_18 
REMARK    3  A    between atoms: C_18  and  C_19 
ROOT
HETATM    1  C   UNK N   1      30.618  17.589   9.159  0.00  0.00     0.057 C 
HETATM    2  C   UNK N   1      29.375  18.242   9.761  0.00  0.00     0.006 C 
HETATM    3  C   UNK N   1      28.122  17.764   9.054  0.00  0.00     0.005 C 
HETATM    4  C   UNK N   1      28.167  18.212   7.600  0.00  0.00     0.043 C 
HETATM    5  C   UNK N   1      29.487  17.690   5.491  0.00  0.00     0.049 A 
HETATM    6  C   UNK N   1      30.776  17.196   3.478  0.00  0.00     0.016 A 
HETATM    7  C   UNK N   1      31.972  16.789   2.881  0.00  0.00     0.001 A 
HETATM    8  C   UNK N   1      33.085  16.496   3.673  0.00  0.00     0.002 A 
HETATM    9  C   UNK N   1      33.009  16.615   5.064  0.00  0.00     0.030 A 
HETATM   10  N   UNK N   1      31.743  17.124   7.020  0.00  0.00    -0.358 N 
ATOM     11  HN  UNK N   1      32.569  16.906   7.577  1.00  0.00     0.166 HD
HETATM   12  C   UNK N   1      30.604  17.504   7.654  0.00  0.00     0.018 A 
HETATM   13  C   UNK N   1      29.437  17.790   6.903  0.00  0.00    -0.008 A 
HETATM   14  C   UNK N   1      30.688  17.317   4.874  0.00  0.00     0.018 A 
HETATM   15  C   UNK N   1      31.816  17.025   5.667  0.00  0.00     0.044 A 
ENDROOT
BRANCH   5  16
HETATM   16  N   UNK N   1      28.337  17.919   4.687  0.00  0.00    -0.384 N 
HETATM   17  H   UNK N   1      27.777  17.157   4.410  0.00  0.00     0.160 HD
BRANCH  16  18
HETATM   18  C   UNK N   1      27.977  19.251   4.270  0.00  0.00     0.158 C 
BRANCH  18  19
HETATM   19  C   UNK N   1      26.519  19.383   4.026  0.00  0.00    -0.039 A 
HETATM   20  C   UNK N   1      25.654  18.448   4.596  0.00  0.00     0.027 A 
HETATM   21  C   UNK N   1      24.283  18.514   4.343  0.00  0.00     0.007 A 
HETATM   22  I   UNK N   1      23.003  17.081   5.194  0.00  0.00    -0.045 I 
HETATM   23  C   UNK N   1      23.773  19.519   3.516  0.00  0.00     0.018 A 
HETATM   24  C   UNK N   1      24.637  20.458   2.942  0.00  0.00     0.002 A 
HETATM   25  C   UNK N   1      26.012  20.387   3.189  0.00  0.00     0.009 A 
ENDBRANCH  18  19
ENDBRANCH  16  18
ENDBRANCH   5  16
TORSDOF 3
ENDMDL
MODEL 2
REMARK VINA RESULT:      -7.2     12.450     15.238
REMARK  3 active torsions:
REMARK  status: ('A' for Active; 'I' for Inactive)
REMARK    1  A    between atoms: C_5  and  N_16 
REMARK    2  A    between atoms: N_16  and  C_18 
REMARK    3  A    between atoms: C_18  and  C_19 
ROOT
HETATM    1  C   UNK N   1      27.471  29.879  -4.904  0.00  0.00     0.057 C 
HETATM    2  C   UNK N   1      26.404  29.893  -3.811  0.00  0.00     0.006 C 
HETATM    3  C   UNK N   1      26.108  28.485  -3.332  0.00  0.00     0.005 C 
HETATM    4  C   UNK N   1      25.519  27.680  -4.480  0.00  0.00     0.043 C 
HETATM    5  C   UNK N   1      26.276  26.704  -6.701  0.00  0.00     0.049 A 
HETATM    6  C   UNK N   1      27.010  25.790  -8.843  0.00  0.00     0.016 A 
HETATM    7  C   UNK N   1      27.842  25.860  -9.964  0.00  0.00     0.001 A 
HETATM    8  C   UNK N   1      28.750  26.914 -10.095  0.00  0.00     0.002 A 
HETATM    9  C   UNK N   1      28.825  27.904  -9.111  0.00  0.00     0.030 A 
HETATM   10  N   UNK N   1      28.081  28.797  -7.029  0.00  0.00    -0.358 N 
ATOM     11  HN  UNK N   1      28.751  29.557  -7.148  1.00  0.00     0.166 HD
HETATM   12  C   UNK N   1      27.306  28.773  -5.915  0.00  0.00     0.018 A 
HETATM   13  C   UNK N   1      26.384  27.715  -5.716  0.00  0.00    -0.008 A 
HETATM   14  C   UNK N   1      27.078  26.778  -7.848  0.00  0.00     0.018 A 
HETATM   15  C   UNK N   1      27.993  27.841  -7.989  0.00  0.00     0.044 A 
ENDROOT
BRANCH   5  16
HETATM   16  N   UNK N   1      25.404  25.593  -6.537  0.00  0.00    -0.384 N 
HETATM   17  H   UNK N   1      24.658  25.463  -7.168  0.00  0.00     0.160 HD
BRANCH  16  18
HETATM   18  C   UNK N   1      25.595  24.653  -5.462  0.00  0.00     0.158 C 
BRANCH  18  19
HETATM   19  C   UNK N   1      26.837  23.859  -5.632  0.00  0.00    -0.039 A 
HETATM   20  C   UNK N   1      27.867  24.014  -4.703  0.00  0.00     0.027 A 
HETATM   21  C   UNK N   1      29.067  23.321  -4.863  0.00  0.00     0.007 A 
HETATM   22  I   UNK N   1      30.614  23.590  -3.466  0.00  0.00    -0.045 I 
HETATM   23  C   UNK N   1      29.240  22.466  -5.957  0.00  0.00     0.018 A 
HETATM   24  C   UNK N   1      28.210  22.308  -6.890  0.00  0.00     0.002 A 
HETATM   25  C   UNK N   1      27.009  23.010  -6.734  0.00  0.00     0.009 A 
ENDBRANCH  18  19
ENDBRANCH  16  18
ENDBRANCH   5  16
TORSDOF 3
ENDMDL
MODEL 3
REMARK VINA RESULT:      -7.1      2.876      6.318
REMARK  3 active torsions:
REMARK  status: ('A' for Active; 'I' for Inactive)
REMARK    1  A    between atoms: C_5  and  N_16 
REMARK    2  A    between atoms: N_16  and  C_18 
REMARK    3  A    between atoms: C_18  and  C_19 
ROOT
HETATM    1  C   UNK N   1      28.737  18.272   9.533  0.00  0.00     0.057 C 
HETATM    2  C   UNK N   1      29.628  17.090   9.911  0.00  0.00     0.006 C 
HETATM    3  C   UNK N   1      30.826  17.004   8.985  0.00  0.00     0.005 C 
HETATM    4  C   UNK N   1      30.344  16.728   7.569  0.00  0.00     0.043 C 
HETATM    5  C   UNK N   1      29.077  17.933   5.724  0.00  0.00     0.049 A 
HETATM    6  C   UNK N   1      27.840  19.094   3.969  0.00  0.00     0.016 A 
HETATM    7  C   UNK N   1      26.878  20.035   3.590  0.00  0.00     0.001 A 
HETATM    8  C   UNK N   1      26.167  20.739   4.565  0.00  0.00     0.002 A 
HETATM    9  C   UNK N   1      26.409  20.500   5.921  0.00  0.00     0.030 A 
HETATM   10  N   UNK N   1      27.610  19.341   7.625  0.00  0.00    -0.358 N 
ATOM     11  HN  UNK N   1      27.076  19.866   8.318  1.00  0.00     0.166 HD
HETATM   12  C   UNK N   1      28.539  18.447   8.049  0.00  0.00     0.018 A 
HETATM   13  C   UNK N   1      29.308  17.723   7.106  0.00  0.00    -0.008 A 
HETATM   14  C   UNK N   1      28.092  18.848   5.327  0.00  0.00     0.018 A 
HETATM   15  C   UNK N   1      27.367  19.558   6.306  0.00  0.00     0.044 A 
ENDROOT
BRANCH   5  16
HETATM   16  N   UNK N   1      29.848  17.271   4.730  0.00  0.00    -0.384 N 
HETATM   17  H   UNK N   1      29.554  16.393   4.392  0.00  0.00     0.160 HD
BRANCH  16  18
HETATM   18  C   UNK N   1      31.052  17.865   4.207  0.00  0.00     0.158 C 
BRANCH  18  19
HETATM   19  C   UNK N   1      32.260  17.083   4.569  0.00  0.00    -0.039 A 
HETATM   20  C   UNK N   1      32.541  15.913   3.863  0.00  0.00     0.027 A 
HETATM   21  C   UNK N   1      33.640  15.128   4.212  0.00  0.00     0.007 A 
HETATM   22  I   UNK N   1      34.028  13.357   3.151  0.00  0.00    -0.045 I 
HETATM   23  C   UNK N   1      34.466  15.515   5.273  0.00  0.00     0.018 A 
HETATM   24  C   UNK N   1      34.187  16.688   5.984  0.00  0.00     0.002 A 
HETATM   25  C   UNK N   1      33.080  17.470   5.638  0.00  0.00     0.009 A 
ENDBRANCH  18  19
ENDBRANCH  16  18
ENDBRANCH   5  16
TORSDOF 3
ENDMDL
MODEL 4
REMARK VINA RESULT:      -7.1      1.002      3.997
REMARK  3 active torsions:
REMARK  status: ('A' for Active; 'I' for Inactive)
REMARK    1  A    between atoms: C_5  and  N_16 
REMARK    2  A    between atoms: N_16  and  C_18 
REMARK    3  A    between atoms: C_18  and  C_19 
ROOT
HETATM    1  C   UNK N   1      33.240  17.093   5.079  0.00  0.00     0.057 C 
HETATM    2  C   UNK N   1      33.278  16.330   3.756  0.00  0.00     0.006 C 
HETATM    3  C   UNK N   1      32.051  16.640   2.922  0.00  0.00     0.005 C 
HETATM    4  C   UNK N   1      30.812  16.146   3.654  0.00  0.00     0.043 C 
HETATM    5  C   UNK N   1      29.475  16.731   5.736  0.00  0.00     0.049 A 
HETATM    6  C   UNK N   1      28.212  17.287   7.749  0.00  0.00     0.016 A 
HETATM    7  C   UNK N   1      28.178  17.801   9.049  0.00  0.00     0.001 A 
HETATM    8  C   UNK N   1      29.355  18.244   9.657  0.00  0.00     0.002 A 
HETATM    9  C   UNK N   1      30.571  18.170   8.972  0.00  0.00     0.030 A 
HETATM   10  N   UNK N   1      31.795  17.599   7.006  0.00  0.00    -0.358 N 
ATOM     11  HN  UNK N   1      32.641  17.926   7.471  1.00  0.00     0.166 HD
HETATM   12  C   UNK N   1      31.885  17.119   5.738  0.00  0.00     0.018 A 
HETATM   13  C   UNK N   1      30.720  16.679   5.063  0.00  0.00    -0.008 A 
HETATM   14  C   UNK N   1      29.428  17.210   7.052  0.00  0.00     0.018 A 
HETATM   15  C   UNK N   1      30.613  17.654   7.673  0.00  0.00     0.044 A 
ENDROOT
BRANCH   5  16
HETATM   16  N   UNK N   1      28.265  16.346   5.095  0.00  0.00    -0.384 N 
HETATM   17  H   UNK N   1      27.675  15.685   5.527  0.00  0.00     0.160 HD
BRANCH  16  18
HETATM   18  C   UNK N   1      27.888  16.910   3.824  0.00  0.00     0.158 C 
BRANCH  18  19
HETATM   19  C   UNK N   1      26.987  18.080   3.979  0.00  0.00    -0.039 A 
HETATM   20  C   UNK N   1      25.607  17.871   3.985  0.00  0.00     0.027 A 
HETATM   21  C   UNK N   1      24.733  18.954   4.078  0.00  0.00     0.007 A 
HETATM   22  I   UNK N   1      22.659  18.616   4.060  0.00  0.00    -0.045 I 
HETATM   23  C   UNK N   1      25.240  20.255   4.166  0.00  0.00     0.018 A 
HETATM   24  C   UNK N   1      26.622  20.469   4.159  0.00  0.00     0.002 A 
HETATM   25  C   UNK N   1      27.499  19.382   4.059  0.00  0.00     0.009 A 
ENDBRANCH  18  19
ENDBRANCH  16  18
ENDBRANCH   5  16
TORSDOF 3
ENDMDL
MODEL 5
REMARK VINA RESULT:      -7.1     12.089     15.675
REMARK  3 active torsions:
REMARK  status: ('A' for Active; 'I' for Inactive)
REMARK    1  A    between atoms: C_5  and  N_16 
REMARK    2  A    between atoms: N_16  and  C_18 
REMARK    3  A    between atoms: C_18  and  C_19 
ROOT
HETATM    1  C   UNK N   1      29.023  28.069  -9.323  0.00  0.00     0.057 C 
HETATM    2  C   UNK N   1      29.101  26.866 -10.262  0.00  0.00     0.006 C 
HETATM    3  C   UNK N   1      27.727  26.259 -10.471  0.00  0.00     0.005 C 
HETATM    4  C   UNK N   1      27.210  25.723  -9.144  0.00  0.00     0.043 C 
HETATM    5  C   UNK N   1      26.406  26.631  -6.911  0.00  0.00     0.049 A 
HETATM    6  C   UNK N   1      25.657  27.515  -4.762  0.00  0.00     0.016 A 
HETATM    7  C   UNK N   1      25.711  28.510  -3.781  0.00  0.00     0.001 A 
HETATM    8  C   UNK N   1      26.575  29.597  -3.934  0.00  0.00     0.002 A 
HETATM    9  C   UNK N   1      27.393  29.690  -5.063  0.00  0.00     0.030 A 
HETATM   10  N   UNK N   1      28.132  28.802  -7.150  0.00  0.00    -0.358 N 
ATOM     11  HN  UNK N   1      28.757  29.604  -7.238  1.00  0.00     0.166 HD
HETATM   12  C   UNK N   1      28.113  27.871  -8.138  0.00  0.00     0.018 A 
HETATM   13  C   UNK N   1      27.238  26.761  -8.049  0.00  0.00    -0.008 A 
HETATM   14  C   UNK N   1      26.472  27.601  -5.901  0.00  0.00     0.018 A 
HETATM   15  C   UNK N   1      27.346  28.697  -6.047  0.00  0.00     0.044 A 
ENDROOT
BRANCH   5  16
HETATM   16  N   UNK N   1      25.475  25.564  -6.785  0.00  0.00    -0.384 N 
HETATM   17  H   UNK N   1      24.509  25.755  -6.824  0.00  0.00     0.160 HD
BRANCH  16  18
HETATM   18  C   UNK N   1      25.923  24.207  -6.603  0.00  0.00     0.158 C 
BRANCH  18  19
HETATM   19  C   UNK N   1      26.830  24.073  -5.435  0.00  0.00    -0.039 A 
HETATM   20  C   UNK N   1      28.155  23.692  -5.653  0.00  0.00     0.027 A 
HETATM   21  C   UNK N   1      29.019  23.507  -4.573  0.00  0.00     0.007 A 
HETATM   22  I   UNK N   1      31.003  22.910  -4.924  0.00  0.00    -0.045 I 
HETATM   23  C   UNK N   1      28.558  23.705  -3.268  0.00  0.00     0.018 A 
HETATM   24  C   UNK N   1      27.230  24.087  -3.046  0.00  0.00     0.002 A 
HETATM   25  C   UNK N   1      26.362  24.264  -4.128  0.00  0.00     0.009 A 
ENDBRANCH  18  19
ENDBRANCH  16  18
ENDBRANCH   5  16
TORSDOF 3
ENDMDL
MODEL 6
REMARK VINA RESULT:      -7.0     12.442     14.131
REMARK  3 active torsions:
REMARK  status: ('A' for Active; 'I' for Inactive)
REMARK    1  A    between atoms: C_5  and  N_16 
REMARK    2  A    between atoms: N_16  and  C_18 
REMARK    3  A    between atoms: C_18  and  C_19 
ROOT
HETATM    1  C   UNK N   1      27.494  21.187  -8.117  0.00  0.00     0.057 C 
HETATM    2  C   UNK N   1      26.021  20.850  -8.345  0.00  0.00     0.006 C 
HETATM    3  C   UNK N   1      25.174  22.108  -8.326  0.00  0.00     0.005 C 
HETATM    4  C   UNK N   1      25.249  22.740  -6.944  0.00  0.00     0.043 C 
HETATM    5  C   UNK N   1      26.958  23.938  -5.494  0.00  0.00     0.049 A 
HETATM    6  C   UNK N   1      28.614  25.068  -4.102  0.00  0.00     0.016 A 
HETATM    7  C   UNK N   1      29.947  25.259  -3.726  0.00  0.00     0.001 A 
HETATM    8  C   UNK N   1      30.958  24.506  -4.328  0.00  0.00     0.002 A 
HETATM    9  C   UNK N   1      30.640  23.555  -5.302  0.00  0.00     0.030 A 
HETATM   10  N   UNK N   1      29.008  22.443  -6.639  0.00  0.00    -0.358 N 
ATOM     11  HN  UNK N   1      29.763  21.904  -7.063  1.00  0.00     0.166 HD
HETATM   12  C   UNK N   1      27.732  22.224  -7.050  0.00  0.00     0.018 A 
HETATM   13  C   UNK N   1      26.669  22.976  -6.493  0.00  0.00    -0.008 A 
HETATM   14  C   UNK N   1      28.285  24.118  -5.080  0.00  0.00     0.018 A 
HETATM   15  C   UNK N   1      29.309  23.357  -5.680  0.00  0.00     0.044 A 
ENDROOT
BRANCH   5  16
HETATM   16  N   UNK N   1      25.940  24.756  -4.930  0.00  0.00    -0.384 N 
HETATM   17  H   UNK N   1      25.654  24.603  -3.999  0.00  0.00     0.160 HD
BRANCH  16  18
HETATM   18  C   UNK N   1      25.322  25.806  -5.699  0.00  0.00     0.158 C 
BRANCH  18  19
HETATM   19  C   UNK N   1      26.216  26.980  -5.856  0.00  0.00    -0.039 A 
HETATM   20  C   UNK N   1      26.174  27.993  -4.897  0.00  0.00     0.027 A 
HETATM   21  C   UNK N   1      26.964  29.133  -5.043  0.00  0.00     0.007 A 
HETATM   22  I   UNK N   1      26.865  30.655  -3.598  0.00  0.00    -0.045 I 
HETATM   23  C   UNK N   1      27.802  29.263  -6.155  0.00  0.00     0.018 A 
HETATM   24  C   UNK N   1      27.847  28.251  -7.120  0.00  0.00     0.002 A 
HETATM   25  C   UNK N   1      27.048  27.111  -6.976  0.00  0.00     0.009 A 
ENDBRANCH  18  19
ENDBRANCH  16  18
ENDBRANCH   5  16
TORSDOF 3
ENDMDL
MODEL 7
REMARK VINA RESULT:      -6.9      4.345      7.933
REMARK  3 active torsions:
REMARK  status: ('A' for Active; 'I' for Inactive)
REMARK    1  A    between atoms: C_5  and  N_16 
REMARK    2  A    between atoms: N_16  and  C_18 
REMARK    3  A    between atoms: C_18  and  C_19 
ROOT
HETATM    1  C   UNK N   1      26.398  20.520   3.177  0.00  0.00     0.057 C 
HETATM    2  C   UNK N   1      27.473  20.088   4.174  0.00  0.00     0.006 C 
HETATM    3  C   UNK N   1      27.312  18.625   4.536  0.00  0.00     0.005 C 
HETATM    4  C   UNK N   1      25.981  18.430   5.247  0.00  0.00     0.043 C 
HETATM    5  C   UNK N   1      23.502  18.507   4.692  0.00  0.00     0.049 A 
HETATM    6  C   UNK N   1      21.123  18.605   4.152  0.00  0.00     0.016 A 
HETATM    7  C   UNK N   1      20.081  19.133   3.384  0.00  0.00     0.001 A 
HETATM    8  C   UNK N   1      20.347  20.104   2.416  0.00  0.00     0.002 A 
HETATM    9  C   UNK N   1      21.655  20.555   2.215  0.00  0.00     0.030 A 
HETATM   10  N   UNK N   1      23.972  20.465   2.770  0.00  0.00    -0.358 N 
ATOM     11  HN  UNK N   1      24.142  21.175   2.058  1.00  0.00     0.166 HD
HETATM   12  C   UNK N   1      25.024  19.979   3.478  0.00  0.00     0.018 A 
HETATM   13  C   UNK N   1      24.817  18.976   4.456  0.00  0.00    -0.008 A 
HETATM   14  C   UNK N   1      22.440  19.050   3.956  0.00  0.00     0.018 A 
HETATM   15  C   UNK N   1      22.701  20.034   2.981  0.00  0.00     0.044 A 
ENDROOT
BRANCH   5  16
HETATM   16  N   UNK N   1      23.236  17.469   5.627  0.00  0.00    -0.384 N 
HETATM   17  H   UNK N   1      23.075  17.696   6.572  0.00  0.00     0.160 HD
BRANCH  16  18
HETATM   18  C   UNK N   1      23.198  16.089   5.212  0.00  0.00     0.158 C 
BRANCH  18  19
HETATM   19  C   UNK N   1      23.665  15.174   6.284  0.00  0.00    -0.039 A 
HETATM   20  C   UNK N   1      22.726  14.629   7.160  0.00  0.00     0.027 A 
HETATM   21  C   UNK N   1      23.138  13.806   8.208  0.00  0.00     0.007 A 
HETATM   22  I   UNK N   1      21.707  13.016   9.530  0.00  0.00    -0.045 I 
HETATM   23  C   UNK N   1      24.497  13.525   8.383  0.00  0.00     0.018 A 
HETATM   24  C   UNK N   1      25.442  14.070   7.507  0.00  0.00     0.002 A 
HETATM   25  C   UNK N   1      25.028  14.902   6.460  0.00  0.00     0.009 A 
ENDBRANCH  18  19
ENDBRANCH  16  18
ENDBRANCH   5  16
TORSDOF 3
ENDMDL
MODEL 8
REMARK VINA RESULT:      -6.9      4.296      7.621
REMARK  3 active torsions:
REMARK  status: ('A' for Active; 'I' for Inactive)
REMARK    1  A    between atoms: C_5  and  N_16 
REMARK    2  A    between atoms: N_16  and  C_18 
REMARK    3  A    between atoms: C_18  and  C_19 
ROOT
HETATM    1  C   UNK N   1      26.431  20.553   3.415  0.00  0.00     0.057 C 
HETATM    2  C   UNK N   1      27.520  19.935   4.291  0.00  0.00     0.006 C 
HETATM    3  C   UNK N   1      27.416  18.422   4.289  0.00  0.00     0.005 C 
HETATM    4  C   UNK N   1      26.092  18.011   4.915  0.00  0.00     0.043 C 
HETATM    5  C   UNK N   1      23.614  18.124   4.365  0.00  0.00     0.049 A 
HETATM    6  C   UNK N   1      21.234  18.259   3.835  0.00  0.00     0.016 A 
HETATM    7  C   UNK N   1      20.173  18.916   3.205  0.00  0.00     0.001 A 
HETATM    8  C   UNK N   1      20.403  20.101   2.502  0.00  0.00     0.002 A 
HETATM    9  C   UNK N   1      21.692  20.638   2.432  0.00  0.00     0.030 A 
HETATM   10  N   UNK N   1      24.010  20.505   2.977  0.00  0.00    -0.358 N 
ATOM     11  HN  UNK N   1      24.153  21.372   2.460  1.00  0.00     0.166 HD
HETATM   12  C   UNK N   1      25.079  19.903   3.560  0.00  0.00     0.018 A 
HETATM   13  C   UNK N   1      24.910  18.686   4.265  0.00  0.00    -0.008 A 
HETATM   14  C   UNK N   1      22.532  18.788   3.769  0.00  0.00     0.018 A 
HETATM   15  C   UNK N   1      22.757  19.987   3.062  0.00  0.00     0.044 A 
ENDROOT
BRANCH   5  16
HETATM   16  N   UNK N   1      23.387  16.882   5.019  0.00  0.00    -0.384 N 
HETATM   17  H   UNK N   1      22.708  16.825   5.730  0.00  0.00     0.160 HD
BRANCH  16  18
HETATM   18  C   UNK N   1      24.137  15.706   4.656  0.00  0.00     0.158 C 
BRANCH  18  19
HETATM   19  C   UNK N   1      23.798  15.230   3.291  0.00  0.00    -0.039 A 
HETATM   20  C   UNK N   1      22.458  15.015   2.966  0.00  0.00     0.027 A 
HETATM   21  C   UNK N   1      22.111  14.519   1.710  0.00  0.00     0.007 A 
HETATM   22  I   UNK N   1      20.088  14.180   1.252  0.00  0.00    -0.045 I 
HETATM   23  C   UNK N   1      23.108  14.237   0.770  0.00  0.00     0.018 A 
HETATM   24  C   UNK N   1      24.453  14.450   1.093  0.00  0.00     0.002 A 
HETATM   25  C   UNK N   1      24.801  14.940   2.356  0.00  0.00     0.009 A 
ENDBRANCH  18  19
ENDBRANCH  16  18
ENDBRANCH   5  16
TORSDOF 3
ENDMDL
MODEL 9
REMARK VINA RESULT:      -6.8     10.921     14.011
REMARK  3 active torsions:
REMARK  status: ('A' for Active; 'I' for Inactive)
REMARK    1  A    between atoms: C_5  and  N_16 
REMARK    2  A    between atoms: N_16  and  C_18 
REMARK    3  A    between atoms: C_18  and  C_19 
ROOT
HETATM    1  C   UNK N   1      24.814  26.934  -5.594  0.00  0.00     0.057 C 
HETATM    2  C   UNK N   1      25.297  28.003  -4.614  0.00  0.00     0.006 C 
HETATM    3  C   UNK N   1      26.733  28.391  -4.909  0.00  0.00     0.005 C 
HETATM    4  C   UNK N   1      27.632  27.183  -4.688  0.00  0.00     0.043 C 
HETATM    5  C   UNK N   1      28.082  24.926  -5.766  0.00  0.00     0.049 A 
HETATM    6  C   UNK N   1      28.488  22.752  -6.798  0.00  0.00     0.016 A 
HETATM    7  C   UNK N   1      28.020  21.656  -7.529  0.00  0.00     0.001 A 
HETATM    8  C   UNK N   1      26.685  21.607  -7.939  0.00  0.00     0.002 A 
HETATM    9  C   UNK N   1      25.812  22.650  -7.613  0.00  0.00     0.030 A 
HETATM   10  N   UNK N   1      25.425  24.764  -6.580  0.00  0.00    -0.358 N 
ATOM     11  HN  UNK N   1      24.454  24.705  -6.889  1.00  0.00     0.166 HD
HETATM   12  C   UNK N   1      25.828  25.857  -5.883  0.00  0.00     0.018 A 
HETATM   13  C   UNK N   1      27.176  25.972  -5.463  0.00  0.00    -0.008 A 
HETATM   14  C   UNK N   1      27.621  23.804  -6.468  0.00  0.00     0.018 A 
HETATM   15  C   UNK N   1      26.274  23.747  -6.880  0.00  0.00     0.044 A 
ENDROOT
BRANCH   5  16
HETATM   16  N   UNK N   1      29.457  25.004  -5.413  0.00  0.00    -0.384 N 
HETATM   17  H   UNK N   1      30.119  25.273  -6.091  0.00  0.00     0.160 HD
BRANCH  16  18
HETATM   18  C   UNK N   1      29.897  24.696  -4.075  0.00  0.00     0.158 C 
BRANCH  18  19
HETATM   19  C   UNK N   1      30.618  23.401  -4.012  0.00  0.00    -0.039 A 
HETATM   20  C   UNK N   1      31.925  23.333  -4.497  0.00  0.00     0.027 A 
HETATM   21  C   UNK N   1      32.611  22.119  -4.499  0.00  0.00     0.007 A 
HETATM   22  I   UNK N   1      34.570  22.037  -5.256  0.00  0.00    -0.045 I 
HETATM   23  C   UNK N   1      31.990  20.964  -4.013  0.00  0.00     0.018 A 
HETATM   24  C   UNK N   1      30.679  21.027  -3.526  0.00  0.00     0.002 A 
HETATM   25  C   UNK N   1      29.988  22.244  -3.532  0.00  0.00     0.009 A 
ENDBRANCH  18  19
ENDBRANCH  16  18
ENDBRANCH   5  16
TORSDOF 3
ENDMDL
