REMARK  2 active torsions:
REMARK  status: ('A' for Active; 'I' for Inactive)
REMARK    1  A    between atoms: C_13  and  C_9 
REMARK    2  A    between atoms: C_11  and  C_14 
ROOT
HETATM    1  C   UNK N   1       2.483  -1.865   0.000  0.00  0.00     0.121 A 
HETATM    2  C   UNK N   1       1.389  -1.013   0.000  0.00  0.00     0.020 A 
HETATM    3  C   UNK N   1       0.270  -1.870   0.000  0.00  0.00     0.071 A 
HETATM    4  N   UNK N   1       2.043  -3.135   0.000  0.00  0.00    -0.311 N 
HETATM    5  N   UNK N   1       0.719  -3.140   0.000  0.00  0.00    -0.299 N 
ATOM      6  HN  UNK N   1       0.131  -3.974   0.000  1.00  0.00     0.187 HD
HETATM    7  H   UNK N   1       2.616  -3.936   0.000  0.00  0.00     0.186 HD
ENDROOT
BRANCH   3   8
HETATM    8  C   UNK N   1      -1.198  -1.590  -0.000  0.00  0.00    -0.002 A 
HETATM    9  C   UNK N   1      -1.721  -0.298  -0.000  0.00  0.00     0.031 A 
HETATM   10  C   UNK N   1      -3.098  -0.086  -0.000  0.00  0.00     0.091 A 
HETATM   11  N   UNK N   1      -3.947  -1.146  -0.000  0.00  0.00    -0.343 N 
HETATM   12  C   UNK N   1      -3.478  -2.421   0.000  0.00  0.00     0.189 A 
ATOM     13  HN  UNK N   1      -4.953  -0.981  -0.000  1.00  0.00     0.167 HD
HETATM   14  C   UNK N   1      -2.100  -2.665   0.000  0.00  0.00     0.075 A 
HETATM   15  F   UNK N   1      -4.350  -3.457   0.000  0.00  0.00    -0.186 F 
ENDBRANCH   3   8
BRANCH   2  16
HETATM   16  C   UNK N   1       1.542   0.474   0.000  0.00  0.00    -0.022 A 
HETATM   17  C   UNK N   1       2.830   1.040  -0.000  0.00  0.00     0.015 A 
HETATM   18  C   UNK N   1       3.000   2.430  -0.000  0.00  0.00     0.043 A 
HETATM   19  C   UNK N   1       1.883   3.270   0.000  0.00  0.00     0.116 A 
HETATM   20  C   UNK N   1       0.604   2.721   0.000  0.00  0.00     0.043 A 
HETATM   21  F   UNK N   1       2.038   4.615  -0.000  0.00  0.00    -0.206 F 
HETATM   22  C   UNK N   1       0.444   1.337   0.000  0.00  0.00     0.015 A 
ENDBRANCH   2  16
TORSDOF 2
