MODEL 1
REMARK VINA RESULT:      -7.4      0.000      0.000
REMARK  2 active torsions:
REMARK  status: ('A' for Active; 'I' for Inactive)
REMARK    1  A    between atoms: C_13  and  C_9 
REMARK    2  A    between atoms: C_11  and  C_14 
ROOT
HETATM    1  C   UNK N   1      28.084  17.749   9.145  0.00  0.00     0.121 A 
HETATM    2  C   UNK N   1      28.898  18.000   8.051  0.00  0.00     0.020 A 
HETATM    3  C   UNK N   1      30.168  17.523   8.435  0.00  0.00     0.071 A 
HETATM    4  N   UNK N   1      28.819  17.166  10.108  0.00  0.00    -0.311 N 
HETATM    5  N   UNK N   1      30.066  17.030   9.685  0.00  0.00    -0.299 N 
ATOM      6  HN  UNK N   1      30.830  16.617  10.220  1.00  0.00     0.187 HD
HETATM    7  H   UNK N   1      28.482  16.885  10.989  0.00  0.00     0.186 HD
ENDROOT
BRANCH   3   8
HETATM    8  C   UNK N   1      31.478  17.494   7.718  0.00  0.00    -0.002 A 
HETATM    9  C   UNK N   1      31.650  16.873   6.482  0.00  0.00     0.031 A 
HETATM   10  C   UNK N   1      32.892  16.871   5.851  0.00  0.00     0.091 A 
HETATM   11  N   UNK N   1      33.953  17.479   6.441  0.00  0.00    -0.343 N 
HETATM   12  C   UNK N   1      33.828  18.096   7.645  0.00  0.00     0.189 A 
ATOM     13  HN  UNK N   1      34.858  17.473   5.971  1.00  0.00     0.167 HD
HETATM   14  C   UNK N   1      32.593  18.114   8.303  0.00  0.00     0.075 A 
HETATM   15  F   UNK N   1      34.905  18.694   8.208  0.00  0.00    -0.186 F 
ENDBRANCH   3   8
BRANCH   2  16
HETATM   16  C   UNK N   1      28.378  18.645   6.807  0.00  0.00    -0.022 A 
HETATM   17  C   UNK N   1      27.831  19.940   6.873  0.00  0.00     0.015 A 
HETATM   18  C   UNK N   1      27.337  20.566   5.722  0.00  0.00     0.043 A 
HETATM   19  C   UNK N   1      27.385  19.905   4.492  0.00  0.00     0.116 A 
HETATM   20  C   UNK N   1      27.925  18.624   4.415  0.00  0.00     0.043 A 
HETATM   21  F   UNK N   1      26.910  20.503   3.374  0.00  0.00    -0.206 F 
HETATM   22  C   UNK N   1      28.414  18.008   5.565  0.00  0.00     0.015 A 
ENDBRANCH   2  16
TORSDOF 2
ENDMDL
MODEL 2
REMARK VINA RESULT:      -6.7      2.010      5.369
REMARK  2 active torsions:
REMARK  status: ('A' for Active; 'I' for Inactive)
REMARK    1  A    between atoms: C_13  and  C_9 
REMARK    2  A    between atoms: C_11  and  C_14 
ROOT
HETATM    1  C   UNK N   1      29.601  17.114   9.533  0.00  0.00     0.121 A 
HETATM    2  C   UNK N   1      29.754  17.570   8.233  0.00  0.00     0.020 A 
HETATM    3  C   UNK N   1      28.554  18.252   7.950  0.00  0.00     0.071 A 
HETATM    4  N   UNK N   1      28.396  17.499   9.988  0.00  0.00    -0.311 N 
HETATM    5  N   UNK N   1      27.768  18.180   9.042  0.00  0.00    -0.299 N 
ATOM      6  HN  UNK N   1      26.835  18.586   9.125  1.00  0.00     0.187 HD
HETATM    7  H   UNK N   1      28.036  17.304  10.884  0.00  0.00     0.186 HD
ENDROOT
BRANCH   3   8
HETATM    8  C   UNK N   1      28.082  18.971   6.728  0.00  0.00    -0.002 A 
HETATM    9  C   UNK N   1      28.005  18.364   5.476  0.00  0.00     0.031 A 
HETATM   10  C   UNK N   1      27.559  19.075   4.364  0.00  0.00     0.091 A 
HETATM   11  N   UNK N   1      27.192  20.377   4.495  0.00  0.00    -0.343 N 
HETATM   12  C   UNK N   1      27.252  21.006   5.698  0.00  0.00     0.189 A 
ATOM     13  HN  UNK N   1      26.867  20.889   3.676  1.00  0.00     0.167 HD
HETATM   14  C   UNK N   1      27.697  20.317   6.832  0.00  0.00     0.075 A 
HETATM   15  F   UNK N   1      26.880  22.304   5.795  0.00  0.00    -0.186 F 
ENDBRANCH   3   8
BRANCH   2  16
HETATM   16  C   UNK N   1      30.995  17.305   7.441  0.00  0.00    -0.022 A 
HETATM   17  C   UNK N   1      32.226  17.818   7.888  0.00  0.00     0.015 A 
HETATM   18  C   UNK N   1      33.402  17.585   7.164  0.00  0.00     0.043 A 
HETATM   19  C   UNK N   1      33.360  16.835   5.985  0.00  0.00     0.116 A 
HETATM   20  C   UNK N   1      32.147  16.323   5.534  0.00  0.00     0.043 A 
HETATM   21  F   UNK N   1      34.492  16.604   5.280  0.00  0.00    -0.206 F 
HETATM   22  C   UNK N   1      30.981  16.560   6.260  0.00  0.00     0.015 A 
ENDBRANCH   2  16
TORSDOF 2
ENDMDL
MODEL 3
REMARK VINA RESULT:      -6.6      2.334      6.077
REMARK  2 active torsions:
REMARK  status: ('A' for Active; 'I' for Inactive)
REMARK    1  A    between atoms: C_13  and  C_9 
REMARK    2  A    between atoms: C_11  and  C_14 
ROOT
HETATM    1  C   UNK N   1      30.221  14.843   5.630  0.00  0.00     0.121 A 
HETATM    2  C   UNK N   1      30.250  16.200   5.917  0.00  0.00     0.020 A 
HETATM    3  C   UNK N   1      28.984  16.676   5.521  0.00  0.00     0.071 A 
HETATM    4  N   UNK N   1      29.023  14.539   5.102  0.00  0.00    -0.311 N 
HETATM    5  N   UNK N   1      28.282  15.634   5.036  0.00  0.00    -0.299 N 
ATOM      6  HN  UNK N   1      27.329  15.682   4.674  1.00  0.00     0.187 HD
HETATM    7  H   UNK N   1      28.741  13.641   4.810  0.00  0.00     0.186 HD
ENDROOT
BRANCH   3   8
HETATM    8  C   UNK N   1      28.377  18.041   5.561  0.00  0.00    -0.002 A 
HETATM    9  C   UNK N   1      28.168  18.740   6.749  0.00  0.00     0.031 A 
HETATM   10  C   UNK N   1      27.598  20.011   6.737  0.00  0.00     0.091 A 
HETATM   11  N   UNK N   1      27.239  20.582   5.558  0.00  0.00    -0.343 N 
HETATM   12  C   UNK N   1      27.425  19.934   4.379  0.00  0.00     0.189 A 
ATOM     13  HN  UNK N   1      26.822  21.512   5.559  1.00  0.00     0.167 HD
HETATM   14  C   UNK N   1      27.995  18.656   4.359  0.00  0.00     0.075 A 
HETATM   15  F   UNK N   1      27.056  20.530   3.220  0.00  0.00    -0.186 F 
ENDBRANCH   3   8
BRANCH   2  16
HETATM   16  C   UNK N   1      31.451  16.857   6.518  0.00  0.00    -0.022 A 
HETATM   17  C   UNK N   1      32.630  16.978   5.759  0.00  0.00     0.015 A 
HETATM   18  C   UNK N   1      33.768  17.590   6.299  0.00  0.00     0.043 A 
HETATM   19  C   UNK N   1      33.740  18.087   7.605  0.00  0.00     0.116 A 
HETATM   20  C   UNK N   1      32.580  17.972   8.365  0.00  0.00     0.043 A 
HETATM   21  F   UNK N   1      34.836  18.679   8.135  0.00  0.00    -0.206 F 
HETATM   22  C   UNK N   1      31.452  17.362   7.820  0.00  0.00     0.015 A 
ENDBRANCH   2  16
TORSDOF 2
ENDMDL
MODEL 4
REMARK VINA RESULT:      -6.6     12.305     15.342
REMARK  2 active torsions:
REMARK  status: ('A' for Active; 'I' for Inactive)
REMARK    1  A    between atoms: C_13  and  C_9 
REMARK    2  A    between atoms: C_11  and  C_14 
ROOT
HETATM    1  C   UNK N   1      26.098  23.439  -6.482  0.00  0.00     0.121 A 
HETATM    2  C   UNK N   1      26.665  24.363  -5.617  0.00  0.00     0.020 A 
HETATM    3  C   UNK N   1      26.155  25.607  -6.041  0.00  0.00     0.071 A 
HETATM    4  N   UNK N   1      25.310  24.089  -7.356  0.00  0.00    -0.311 N 
HETATM    5  N   UNK N   1      25.343  25.386  -7.093  0.00  0.00    -0.299 N 
ATOM      6  HN  UNK N   1      24.833  26.106  -7.606  1.00  0.00     0.187 HD
HETATM    7  H   UNK N   1      24.790  23.666  -8.077  0.00  0.00     0.186 HD
ENDROOT
BRANCH   3   8
HETATM    8  C   UNK N   1      26.371  26.996  -5.534  0.00  0.00    -0.002 A 
HETATM    9  C   UNK N   1      25.778  27.475  -4.367  0.00  0.00     0.031 A 
HETATM   10  C   UNK N   1      26.009  28.779  -3.933  0.00  0.00     0.091 A 
HETATM   11  N   UNK N   1      26.820  29.598  -4.651  0.00  0.00    -0.343 N 
HETATM   12  C   UNK N   1      27.417  29.170  -5.794  0.00  0.00     0.189 A 
ATOM     13  HN  UNK N   1      26.983  30.550  -4.326  1.00  0.00     0.167 HD
HETATM   14  C   UNK N   1      27.203  27.866  -6.254  0.00  0.00     0.075 A 
HETATM   15  F   UNK N   1      28.220  30.011  -6.488  0.00  0.00    -0.186 F 
ENDBRANCH   3   8
BRANCH   2  16
HETATM   16  C   UNK N   1      27.597  23.956  -4.522  0.00  0.00    -0.022 A 
HETATM   17  C   UNK N   1      28.905  23.546  -4.840  0.00  0.00     0.015 A 
HETATM   18  C   UNK N   1      29.798  23.160  -3.832  0.00  0.00     0.043 A 
HETATM   19  C   UNK N   1      29.392  23.180  -2.495  0.00  0.00     0.116 A 
HETATM   20  C   UNK N   1      28.101  23.584  -2.169  0.00  0.00     0.043 A 
HETATM   21  F   UNK N   1      30.249  22.809  -1.514  0.00  0.00    -0.206 F 
HETATM   22  C   UNK N   1      27.219  23.966  -3.178  0.00  0.00     0.015 A 
ENDBRANCH   2  16
TORSDOF 2
ENDMDL
MODEL 5
REMARK VINA RESULT:      -6.6      2.513      6.390
REMARK  2 active torsions:
REMARK  status: ('A' for Active; 'I' for Inactive)
REMARK    1  A    between atoms: C_13  and  C_9 
REMARK    2  A    between atoms: C_11  and  C_14 
ROOT
HETATM    1  C   UNK N   1      31.066  16.373   3.433  0.00  0.00     0.121 A 
HETATM    2  C   UNK N   1      30.865  16.965   4.671  0.00  0.00     0.020 A 
HETATM    3  C   UNK N   1      29.604  17.587   4.568  0.00  0.00     0.071 A 
HETATM    4  N   UNK N   1      30.001  16.627   2.654  0.00  0.00    -0.311 N 
HETATM    5  N   UNK N   1      29.125  17.354   3.331  0.00  0.00    -0.299 N 
ATOM      6  HN  UNK N   1      28.229  17.685   2.973  1.00  0.00     0.187 HD
HETATM    7  H   UNK N   1      29.890  16.321   1.724  0.00  0.00     0.186 HD
ENDROOT
BRANCH   3   8
HETATM    8  C   UNK N   1      28.808  18.390   5.545  0.00  0.00    -0.002 A 
HETATM    9  C   UNK N   1      28.729  18.071   6.900  0.00  0.00     0.031 A 
HETATM   10  C   UNK N   1      27.973  18.849   7.773  0.00  0.00     0.091 A 
HETATM   11  N   UNK N   1      27.303  19.934   7.307  0.00  0.00    -0.343 N 
HETATM   12  C   UNK N   1      27.353  20.280   5.994  0.00  0.00     0.189 A 
ATOM     13  HN  UNK N   1      26.752  20.498   7.954  1.00  0.00     0.167 HD
HETATM   14  C   UNK N   1      28.104  19.517   5.093  0.00  0.00     0.075 A 
HETATM   15  F   UNK N   1      26.673  21.367   5.560  0.00  0.00    -0.186 F 
ENDBRANCH   3   8
BRANCH   2  16
HETATM   16  C   UNK N   1      31.873  16.866   5.771  0.00  0.00    -0.022 A 
HETATM   17  C   UNK N   1      31.592  16.079   6.902  0.00  0.00     0.015 A 
HETATM   18  C   UNK N   1      32.519  15.970   7.946  0.00  0.00     0.043 A 
HETATM   19  C   UNK N   1      33.739  16.647   7.869  0.00  0.00     0.116 A 
HETATM   20  C   UNK N   1      34.028  17.429   6.754  0.00  0.00     0.043 A 
HETATM   21  F   UNK N   1      34.642  16.547   8.873  0.00  0.00    -0.206 F 
HETATM   22  C   UNK N   1      33.099  17.532   5.720  0.00  0.00     0.015 A 
ENDBRANCH   2  16
TORSDOF 2
ENDMDL
MODEL 6
REMARK VINA RESULT:      -6.5      2.386      5.693
REMARK  2 active torsions:
REMARK  status: ('A' for Active; 'I' for Inactive)
REMARK    1  A    between atoms: C_13  and  C_9 
REMARK    2  A    between atoms: C_11  and  C_14 
ROOT
HETATM    1  C   UNK N   1      29.110  18.232   9.455  0.00  0.00     0.121 A 
HETATM    2  C   UNK N   1      29.841  17.757   8.377  0.00  0.00     0.020 A 
HETATM    3  C   UNK N   1      28.957  17.841   7.282  0.00  0.00     0.071 A 
HETATM    4  N   UNK N   1      27.881  18.573   9.029  0.00  0.00    -0.311 N 
HETATM    5  N   UNK N   1      27.788  18.340   7.729  0.00  0.00    -0.299 N 
ATOM      6  HN  UNK N   1      26.961  18.510   7.156  1.00  0.00     0.187 HD
HETATM    7  H   UNK N   1      27.164  18.939   9.596  0.00  0.00     0.186 HD
ENDROOT
BRANCH   3   8
HETATM    8  C   UNK N   1      29.123  17.488   5.840  0.00  0.00    -0.002 A 
HETATM    9  C   UNK N   1      30.370  17.320   5.241  0.00  0.00     0.031 A 
HETATM   10  C   UNK N   1      30.475  16.990   3.892  0.00  0.00     0.091 A 
HETATM   11  N   UNK N   1      29.353  16.831   3.144  0.00  0.00    -0.343 N 
HETATM   12  C   UNK N   1      28.118  16.986   3.688  0.00  0.00     0.189 A 
ATOM     13  HN  UNK N   1      29.440  16.590   2.157  1.00  0.00     0.167 HD
HETATM   14  C   UNK N   1      27.981  17.317   5.041  0.00  0.00     0.075 A 
HETATM   15  F   UNK N   1      27.018  16.820   2.916  0.00  0.00    -0.186 F 
ENDBRANCH   3   8
BRANCH   2  16
HETATM   16  C   UNK N   1      31.255  17.294   8.520  0.00  0.00    -0.022 A 
HETATM   17  C   UNK N   1      32.309  18.200   8.299  0.00  0.00     0.015 A 
HETATM   18  C   UNK N   1      33.642  17.791   8.426  0.00  0.00     0.043 A 
HETATM   19  C   UNK N   1      33.936  16.470   8.776  0.00  0.00     0.116 A 
HETATM   20  C   UNK N   1      32.902  15.566   8.997  0.00  0.00     0.043 A 
HETATM   21  F   UNK N   1      35.222  16.066   8.902  0.00  0.00    -0.206 F 
HETATM   22  C   UNK N   1      31.578  15.981   8.868  0.00  0.00     0.015 A 
ENDBRANCH   2  16
TORSDOF 2
ENDMDL
MODEL 7
REMARK VINA RESULT:      -6.5      8.042     10.906
REMARK  2 active torsions:
REMARK  status: ('A' for Active; 'I' for Inactive)
REMARK    1  A    between atoms: C_13  and  C_9 
REMARK    2  A    between atoms: C_11  and  C_14 
ROOT
HETATM    1  C   UNK N   1      34.099  11.108  14.404  0.00  0.00     0.121 A 
HETATM    2  C   UNK N   1      34.824  12.259  14.134  0.00  0.00     0.020 A 
HETATM    3  C   UNK N   1      34.866  12.331  12.727  0.00  0.00     0.071 A 
HETATM    4  N   UNK N   1      33.739  10.540  13.241  0.00  0.00    -0.311 N 
HETATM    5  N   UNK N   1      34.197  11.271  12.236  0.00  0.00    -0.299 N 
ATOM      6  HN  UNK N   1      34.064  11.063  11.246  1.00  0.00     0.187 HD
HETATM    7  H   UNK N   1      33.215   9.711  13.151  0.00  0.00     0.186 HD
ENDROOT
BRANCH   3   8
HETATM    8  C   UNK N   1      35.490  13.323  11.800  0.00  0.00    -0.002 A 
HETATM    9  C   UNK N   1      36.618  13.036  11.032  0.00  0.00     0.031 A 
HETATM   10  C   UNK N   1      37.164  13.994  10.181  0.00  0.00     0.091 A 
HETATM   11  N   UNK N   1      36.597  15.225  10.092  0.00  0.00    -0.343 N 
HETATM   12  C   UNK N   1      35.497  15.545  10.823  0.00  0.00     0.189 A 
ATOM     13  HN  UNK N   1      37.004  15.919   9.467  1.00  0.00     0.167 HD
HETATM   14  C   UNK N   1      34.926  14.603  11.687  0.00  0.00     0.075 A 
HETATM   15  F   UNK N   1      34.954  16.781  10.713  0.00  0.00    -0.186 F 
ENDBRANCH   3   8
BRANCH   2  16
HETATM   16  C   UNK N   1      35.372  13.125  15.222  0.00  0.00    -0.022 A 
HETATM   17  C   UNK N   1      34.758  13.123  16.488  0.00  0.00     0.015 A 
HETATM   18  C   UNK N   1      35.252  13.925  17.524  0.00  0.00     0.043 A 
HETATM   19  C   UNK N   1      36.367  14.739  17.306  0.00  0.00     0.116 A 
HETATM   20  C   UNK N   1      36.983  14.749  16.057  0.00  0.00     0.043 A 
HETATM   21  F   UNK N   1      36.852  15.518  18.301  0.00  0.00    -0.206 F 
HETATM   22  C   UNK N   1      36.484  13.948  15.032  0.00  0.00     0.015 A 
ENDBRANCH   2  16
TORSDOF 2
ENDMDL
MODEL 8
REMARK VINA RESULT:      -6.5     11.809     14.253
REMARK  2 active torsions:
REMARK  status: ('A' for Active; 'I' for Inactive)
REMARK    1  A    between atoms: C_13  and  C_9 
REMARK    2  A    between atoms: C_11  and  C_14 
ROOT
HETATM    1  C   UNK N   1      35.345  12.477  19.467  0.00  0.00     0.121 A 
HETATM    2  C   UNK N   1      35.262  11.733  18.300  0.00  0.00     0.020 A 
HETATM    3  C   UNK N   1      35.119  12.691  17.276  0.00  0.00     0.071 A 
HETATM    4  N   UNK N   1      35.257  13.782  19.156  0.00  0.00    -0.311 N 
HETATM    5  N   UNK N   1      35.121  13.912  17.845  0.00  0.00    -0.299 N 
ATOM      6  HN  UNK N   1      35.033  14.797  17.345  1.00  0.00     0.187 HD
HETATM    7  H   UNK N   1      35.288  14.525  19.802  0.00  0.00     0.186 HD
ENDROOT
BRANCH   3   8
HETATM    8  C   UNK N   1      34.978  12.551  15.794  0.00  0.00    -0.002 A 
HETATM    9  C   UNK N   1      35.571  13.432  14.892  0.00  0.00     0.031 A 
HETATM   10  C   UNK N   1      35.412  13.261  13.519  0.00  0.00     0.091 A 
HETATM   11  N   UNK N   1      34.671  12.226  13.046  0.00  0.00    -0.343 N 
HETATM   12  C   UNK N   1      34.077  11.345  13.892  0.00  0.00     0.189 A 
ATOM     13  HN  UNK N   1      34.561  12.109  12.039  1.00  0.00     0.167 HD
HETATM   14  C   UNK N   1      34.219  11.491  15.276  0.00  0.00     0.075 A 
HETATM   15  F   UNK N   1      33.344  10.322  13.389  0.00  0.00    -0.186 F 
ENDBRANCH   3   8
BRANCH   2  16
HETATM   16  C   UNK N   1      35.328  10.240  18.305  0.00  0.00    -0.022 A 
HETATM   17  C   UNK N   1      36.440   9.591  17.737  0.00  0.00     0.015 A 
HETATM   18  C   UNK N   1      36.526   8.194  17.730  0.00  0.00     0.043 A 
HETATM   19  C   UNK N   1      35.499   7.428  18.291  0.00  0.00     0.116 A 
HETATM   20  C   UNK N   1      34.395   8.059  18.856  0.00  0.00     0.043 A 
HETATM   21  F   UNK N   1      35.574   6.077  18.288  0.00  0.00    -0.206 F 
HETATM   22  C   UNK N   1      34.318   9.450  18.859  0.00  0.00     0.015 A 
ENDBRANCH   2  16
TORSDOF 2
ENDMDL
MODEL 9
REMARK VINA RESULT:      -6.3      2.536      3.517
REMARK  2 active torsions:
REMARK  status: ('A' for Active; 'I' for Inactive)
REMARK    1  A    between atoms: C_13  and  C_9 
REMARK    2  A    between atoms: C_11  and  C_14 
ROOT
HETATM    1  C   UNK N   1      27.773  16.699   3.400  0.00  0.00     0.121 A 
HETATM    2  C   UNK N   1      28.563  17.439   4.267  0.00  0.00     0.020 A 
HETATM    3  C   UNK N   1      29.806  16.775   4.273  0.00  0.00     0.071 A 
HETATM    4  N   UNK N   1      28.497  15.670   2.927  0.00  0.00    -0.311 N 
HETATM    5  N   UNK N   1      29.714  15.714   3.448  0.00  0.00    -0.299 N 
ATOM      6  HN  UNK N   1      30.464  15.049   3.255  1.00  0.00     0.187 HD
HETATM    7  H   UNK N   1      28.173  14.990   2.292  0.00  0.00     0.186 HD
ENDROOT
BRANCH   3   8
HETATM    8  C   UNK N   1      31.082  17.058   4.996  0.00  0.00    -0.002 A 
HETATM    9  C   UNK N   1      32.266  17.387   4.339  0.00  0.00     0.031 A 
HETATM   10  C   UNK N   1      33.433  17.644   5.056  0.00  0.00     0.091 A 
HETATM   11  N   UNK N   1      33.424  17.573   6.412  0.00  0.00    -0.343 N 
HETATM   12  C   UNK N   1      32.291  17.256   7.091  0.00  0.00     0.189 A 
ATOM     13  HN  UNK N   1      34.282  17.763   6.929  1.00  0.00     0.167 HD
HETATM   14  C   UNK N   1      31.104  16.993   6.398  0.00  0.00     0.075 A 
HETATM   15  F   UNK N   1      32.313  17.194   8.444  0.00  0.00    -0.186 F 
ENDBRANCH   3   8
BRANCH   2  16
HETATM   16  C   UNK N   1      28.047  18.657   4.964  0.00  0.00    -0.022 A 
HETATM   17  C   UNK N   1      28.071  18.715   6.369  0.00  0.00     0.015 A 
HETATM   18  C   UNK N   1      27.595  19.845   7.046  0.00  0.00     0.043 A 
HETATM   19  C   UNK N   1      27.088  20.929   6.324  0.00  0.00     0.116 A 
HETATM   20  C   UNK N   1      27.059  20.882   4.934  0.00  0.00     0.043 A 
HETATM   21  F   UNK N   1      26.625  22.025   6.970  0.00  0.00    -0.206 F 
HETATM   22  C   UNK N   1      27.536  19.754   4.268  0.00  0.00     0.015 A 
ENDBRANCH   2  16
TORSDOF 2
ENDMDL
