MODEL 1
REMARK VINA RESULT:      -7.8      0.000      0.000
REMARK  5 active torsions:
REMARK  status: ('A' for Active; 'I' for Inactive)
REMARK    1  A    between atoms: C_7  and  C_1 
REMARK    2  A    between atoms: C_5  and  C_9 
REMARK    3  A    between atoms: C_6  and  C_8 
REMARK       I    between atoms: N_24  and  C_28 
REMARK    4  A    between atoms: C_28  and  C_30 
REMARK    5  A    between atoms: C_30  and  O_31 
ROOT
HETATM    1  C   UNK N   1      29.405  17.753   4.680  0.00  0.00     0.072 A 
HETATM    2  N   UNK N   1      30.278  17.386   3.717  0.00  0.00    -0.299 N 
HETATM    3  N   UNK N   1      31.340  16.825   4.277  0.00  0.00    -0.303 N 
ATOM      4  HN  UNK N   1      32.151  16.462   3.778  1.00  0.00     0.186 HD
HETATM    5  C   UNK N   1      31.173  16.812   5.612  0.00  0.00     0.045 A 
HETATM    6  C   UNK N   1      29.952  17.414   5.932  0.00  0.00     0.044 A 
HETATM    7  H   UNK N   1      30.146  17.516   2.750  0.00  0.00     0.187 HD
ENDROOT
BRANCH   5   8
HETATM    8  C   UNK N   1      32.206  16.281   6.572  0.00  0.00     0.041 C 
HETATM    9  C   UNK N   1      33.614  16.224   6.019  0.00  0.00     0.030 C 
HETATM   10  C   UNK N   1      34.608  15.856   7.130  0.00  0.00     0.126 C 
HETATM   11  N   UNK N   1      34.072  15.026   8.216  0.00  0.00    -0.350 N 
HETATM   12  C   UNK N   1      34.872  14.747   9.287  0.00  0.00     0.243 C 
HETATM   13  C   UNK N   1      32.697  14.526   8.223  0.00  0.00     0.126 C 
HETATM   14  O   UNK N   1      36.026  15.153   9.314  0.00  0.00    -0.271 OA
HETATM   15  C   UNK N   1      31.893  14.863   6.978  0.00  0.00     0.030 C 
BRANCH  12  16
HETATM   16  C   UNK N   1      34.343  13.952  10.457  0.00  0.00     0.267 C 
BRANCH  16  17
HETATM   17  O   UNK N   1      33.734  14.779  11.403  0.00  0.00    -0.392 OA
HETATM   18  H   UNK N   1      32.907  15.254  11.231  0.00  0.00     0.210 HD
ENDBRANCH  16  17
ENDBRANCH  12  16
ENDBRANCH   5   8
BRANCH   6  19
HETATM   19  C   UNK N   1      29.427  17.661   7.317  0.00  0.00     0.049 A 
HETATM   20  C   UNK N   1      28.206  17.121   7.731  0.00  0.00     0.047 A 
HETATM   21  C   UNK N   1      27.753  17.356   9.025  0.00  0.00     0.091 A 
HETATM   22  N   UNK N   1      28.508  18.087   9.882  0.00  0.00    -0.362 N 
HETATM   23  C   UNK N   1      29.705  18.589   9.487  0.00  0.00     0.180 A 
ATOM     24  HN  UNK N   1      28.174  18.261  10.831  1.00  0.00     0.165 HD
HETATM   25  N   UNK N   1      30.149  18.373   8.221  0.00  0.00    -0.352 N 
ATOM     26  HN  UNK N   1      31.053  18.756   7.941  1.00  0.00     0.166 HD
ENDBRANCH   6  19
BRANCH   1  27
HETATM   27  C   UNK N   1      28.095  18.375   4.323  0.00  0.00    -0.007 A 
HETATM   28  C   UNK N   1      27.013  17.619   3.861  0.00  0.00     0.015 A 
HETATM   29  C   UNK N   1      25.802  18.220   3.520  0.00  0.00     0.024 A 
HETATM   30  C   UNK N   1      25.660  19.602   3.627  0.00  0.00     0.034 A 
HETATM   31  C   UNK N   1      26.734  20.380   4.066  0.00  0.00     0.024 A 
HETATM   32 Cl   UNK N   1      24.135  20.353   3.211  0.00  0.00    -0.084 Cl
HETATM   33  C   UNK N   1      27.949  19.769   4.406  0.00  0.00     0.015 A 
ENDBRANCH   1  27
TORSDOF 5
ENDMDL
MODEL 2
REMARK VINA RESULT:      -7.5      6.915     11.800
REMARK  5 active torsions:
REMARK  status: ('A' for Active; 'I' for Inactive)
REMARK    1  A    between atoms: C_7  and  C_1 
REMARK    2  A    between atoms: C_5  and  C_9 
REMARK    3  A    between atoms: C_6  and  C_8 
REMARK       I    between atoms: N_24  and  C_28 
REMARK    4  A    between atoms: C_28  and  C_30 
REMARK    5  A    between atoms: C_30  and  O_31 
ROOT
HETATM    1  C   UNK N   1      36.250  12.970  14.498  0.00  0.00     0.072 A 
HETATM    2  N   UNK N   1      36.649  14.247  14.677  0.00  0.00    -0.299 N 
HETATM    3  N   UNK N   1      36.498  14.917  13.544  0.00  0.00    -0.303 N 
ATOM      4  HN  UNK N   1      36.726  15.901  13.402  1.00  0.00     0.186 HD
HETATM    5  C   UNK N   1      35.993  14.089  12.611  0.00  0.00     0.045 A 
HETATM    6  C   UNK N   1      35.830  12.814  13.163  0.00  0.00     0.044 A 
HETATM    7  H   UNK N   1      36.998  14.622  15.518  0.00  0.00     0.187 HD
ENDROOT
BRANCH   5   8
HETATM    8  C   UNK N   1      35.728  14.505  11.188  0.00  0.00     0.041 C 
HETATM    9  C   UNK N   1      36.819  14.131  10.205  0.00  0.00     0.030 C 
HETATM   10  C   UNK N   1      36.365  14.424   8.768  0.00  0.00     0.126 C 
HETATM   11  N   UNK N   1      35.405  15.525   8.616  0.00  0.00    -0.350 N 
HETATM   12  C   UNK N   1      34.881  15.773   7.379  0.00  0.00     0.243 C 
HETATM   13  C   UNK N   1      34.945  16.334   9.743  0.00  0.00     0.126 C 
HETATM   14  O   UNK N   1      35.241  15.111   6.414  0.00  0.00    -0.271 OA
HETATM   15  C   UNK N   1      35.604  16.004  11.072  0.00  0.00     0.030 C 
BRANCH  12  16
HETATM   16  C   UNK N   1      33.842  16.852   7.185  0.00  0.00     0.267 C 
BRANCH  16  17
HETATM   17  O   UNK N   1      34.347  17.919   6.440  0.00  0.00    -0.392 OA
HETATM   18  H   UNK N   1      34.272  18.843   6.726  0.00  0.00     0.210 HD
ENDBRANCH  16  17
ENDBRANCH  12  16
ENDBRANCH   5   8
BRANCH   6  19
HETATM   19  C   UNK N   1      35.360  11.590  12.432  0.00  0.00     0.049 A 
HETATM   20  C   UNK N   1      36.254  10.803  11.698  0.00  0.00     0.047 A 
HETATM   21  C   UNK N   1      35.792   9.667  11.043  0.00  0.00     0.091 A 
HETATM   22  N   UNK N   1      34.485   9.317  11.139  0.00  0.00    -0.362 N 
HETATM   23  C   UNK N   1      33.625  10.066  11.873  0.00  0.00     0.180 A 
ATOM     24  HN  UNK N   1      34.146   8.484  10.656  1.00  0.00     0.165 HD
HETATM   25  N   UNK N   1      34.066  11.185  12.507  0.00  0.00    -0.352 N 
ATOM     26  HN  UNK N   1      33.406  11.736  13.056  1.00  0.00     0.166 HD
ENDBRANCH   6  19
BRANCH   1  27
HETATM   27  C   UNK N   1      36.274  11.998  15.632  0.00  0.00    -0.007 A 
HETATM   28  C   UNK N   1      36.946  10.775  15.552  0.00  0.00     0.015 A 
HETATM   29  C   UNK N   1      36.944   9.876  16.617  0.00  0.00     0.024 A 
HETATM   30  C   UNK N   1      36.253  10.186  17.786  0.00  0.00     0.034 A 
HETATM   31  C   UNK N   1      35.556  11.394  17.881  0.00  0.00     0.024 A 
HETATM   32 Cl   UNK N   1      36.264   9.062  19.127  0.00  0.00    -0.084 Cl
HETATM   33  C   UNK N   1      35.561  12.292  16.807  0.00  0.00     0.015 A 
ENDBRANCH   1  27
TORSDOF 5
ENDMDL
MODEL 3
REMARK VINA RESULT:      -7.4      6.062      9.476
REMARK  5 active torsions:
REMARK  status: ('A' for Active; 'I' for Inactive)
REMARK    1  A    between atoms: C_7  and  C_1 
REMARK    2  A    between atoms: C_5  and  C_9 
REMARK    3  A    between atoms: C_6  and  C_8 
REMARK       I    between atoms: N_24  and  C_28 
REMARK    4  A    between atoms: C_28  and  C_30 
REMARK    5  A    between atoms: C_30  and  O_31 
ROOT
HETATM    1  C   UNK N   1      28.191  18.436   4.721  0.00  0.00     0.072 A 
HETATM    2  N   UNK N   1      28.310  19.680   4.211  0.00  0.00    -0.299 N 
HETATM    3  N   UNK N   1      27.128  20.091   3.775  0.00  0.00    -0.303 N 
ATOM      4  HN  UNK N   1      26.938  20.994   3.341  1.00  0.00     0.186 HD
HETATM    5  C   UNK N   1      26.220  19.125   4.001  0.00  0.00     0.045 A 
HETATM    6  C   UNK N   1      26.851  18.025   4.592  0.00  0.00     0.044 A 
HETATM    7  H   UNK N   1      29.145  20.200   4.168  0.00  0.00     0.187 HD
ENDROOT
BRANCH   5   8
HETATM    8  C   UNK N   1      24.773  19.235   3.596  0.00  0.00     0.041 C 
HETATM    9  C   UNK N   1      24.342  20.619   3.158  0.00  0.00     0.030 C 
HETATM   10  C   UNK N   1      22.917  20.578   2.587  0.00  0.00     0.126 C 
HETATM   11  N   UNK N   1      22.042  19.532   3.133  0.00  0.00    -0.350 N 
HETATM   12  C   UNK N   1      20.796  19.373   2.598  0.00  0.00     0.243 C 
HETATM   13  C   UNK N   1      22.469  18.620   4.193  0.00  0.00     0.126 C 
HETATM   14  O   UNK N   1      20.409  20.118   1.707  0.00  0.00    -0.271 OA
HETATM   15  C   UNK N   1      23.858  18.892   4.744  0.00  0.00     0.030 C 
BRANCH  12  16
HETATM   16  C   UNK N   1      19.886  18.270   3.083  0.00  0.00     0.267 C 
BRANCH  16  17
HETATM   17  O   UNK N   1      18.607  18.384   2.533  0.00  0.00    -0.392 OA
HETATM   18  H   UNK N   1      18.413  18.941   1.763  0.00  0.00     0.210 HD
ENDBRANCH  16  17
ENDBRANCH  12  16
ENDBRANCH   5   8
BRANCH   6  19
HETATM   19  C   UNK N   1      26.201  16.716   4.935  0.00  0.00     0.049 A 
HETATM   20  C   UNK N   1      25.974  15.746   3.954  0.00  0.00     0.047 A 
HETATM   21  C   UNK N   1      25.384  14.536   4.306  0.00  0.00     0.091 A 
HETATM   22  N   UNK N   1      25.055  14.297   5.600  0.00  0.00    -0.362 N 
HETATM   23  C   UNK N   1      25.299  15.229   6.555  0.00  0.00     0.180 A 
ATOM     24  HN  UNK N   1      24.619  13.411   5.857  1.00  0.00     0.165 HD
HETATM   25  N   UNK N   1      25.866  16.418   6.217  0.00  0.00    -0.352 N 
ATOM     26  HN  UNK N   1      26.044  17.106   6.949  1.00  0.00     0.166 HD
ENDBRANCH   6  19
BRANCH   1  27
HETATM   27  C   UNK N   1      29.369  17.744   5.325  0.00  0.00    -0.007 A 
HETATM   28  C   UNK N   1      30.469  17.342   4.561  0.00  0.00     0.015 A 
HETATM   29  C   UNK N   1      31.553  16.685   5.140  0.00  0.00     0.024 A 
HETATM   30  C   UNK N   1      31.547  16.408   6.505  0.00  0.00     0.034 A 
HETATM   31  C   UNK N   1      30.449  16.782   7.285  0.00  0.00     0.024 A 
HETATM   32 Cl   UNK N   1      32.915  15.595   7.233  0.00  0.00    -0.084 Cl
HETATM   33  C   UNK N   1      29.363  17.441   6.696  0.00  0.00     0.015 A 
ENDBRANCH   1  27
TORSDOF 5
ENDMDL
MODEL 4
REMARK VINA RESULT:      -7.3      1.447      3.087
REMARK  5 active torsions:
REMARK  status: ('A' for Active; 'I' for Inactive)
REMARK    1  A    between atoms: C_7  and  C_1 
REMARK    2  A    between atoms: C_5  and  C_9 
REMARK    3  A    between atoms: C_6  and  C_8 
REMARK       I    between atoms: N_24  and  C_28 
REMARK    4  A    between atoms: C_28  and  C_30 
REMARK    5  A    between atoms: C_30  and  O_31 
ROOT
HETATM    1  C   UNK N   1      28.732  18.476   7.008  0.00  0.00     0.072 A 
HETATM    2  N   UNK N   1      28.542  18.861   8.289  0.00  0.00    -0.299 N 
HETATM    3  N   UNK N   1      29.570  18.462   9.024  0.00  0.00    -0.303 N 
ATOM      4  HN  UNK N   1      29.678  18.620  10.026  1.00  0.00     0.186 HD
HETATM    5  C   UNK N   1      30.447  17.818   8.234  0.00  0.00     0.045 A 
HETATM    6  C   UNK N   1      29.952  17.778   6.927  0.00  0.00     0.044 A 
HETATM    7  H   UNK N   1      27.761  19.359   8.623  0.00  0.00     0.187 HD
ENDROOT
BRANCH   5   8
HETATM    8  C   UNK N   1      31.720  17.193   8.745  0.00  0.00     0.041 C 
HETATM    9  C   UNK N   1      32.991  17.806   8.194  0.00  0.00     0.030 C 
HETATM   10  C   UNK N   1      34.217  17.232   8.919  0.00  0.00     0.126 C 
HETATM   11  N   UNK N   1      34.069  15.865   9.435  0.00  0.00    -0.350 N 
HETATM   12  C   UNK N   1      35.083  15.331  10.179  0.00  0.00     0.243 C 
HETATM   13  C   UNK N   1      32.860  15.070   9.230  0.00  0.00     0.126 C 
HETATM   14  O   UNK N   1      36.107  15.973  10.373  0.00  0.00    -0.271 OA
HETATM   15  C   UNK N   1      31.801  15.736   8.367  0.00  0.00     0.030 C 
BRANCH  12  16
HETATM   16  C   UNK N   1      34.950  13.954  10.784  0.00  0.00     0.267 C 
BRANCH  16  17
HETATM   17  O   UNK N   1      34.359  14.007  12.048  0.00  0.00    -0.392 OA
HETATM   18  H   UNK N   1      34.778  13.638  12.841  0.00  0.00     0.210 HD
ENDBRANCH  16  17
ENDBRANCH  12  16
ENDBRANCH   5   8
BRANCH   6  19
HETATM   19  C   UNK N   1      30.596  17.087   5.760  0.00  0.00     0.049 A 
HETATM   20  C   UNK N   1      30.122  15.854   5.302  0.00  0.00     0.047 A 
HETATM   21  C   UNK N   1      30.730  15.245   4.209  0.00  0.00     0.091 A 
HETATM   22  N   UNK N   1      31.763  15.861   3.582  0.00  0.00    -0.362 N 
HETATM   23  C   UNK N   1      32.206  17.069   4.012  0.00  0.00     0.180 A 
ATOM     24  HN  UNK N   1      32.211  15.413   2.783  1.00  0.00     0.165 HD
HETATM   25  N   UNK N   1      31.623  17.666   5.085  0.00  0.00    -0.352 N 
ATOM     26  HN  UNK N   1      31.968  18.576   5.394  1.00  0.00     0.166 HD
ENDBRANCH   6  19
BRANCH   1  27
HETATM   27  C   UNK N   1      27.740  18.833   5.951  0.00  0.00    -0.007 A 
HETATM   28  C   UNK N   1      26.924  17.876   5.340  0.00  0.00     0.015 A 
HETATM   29  C   UNK N   1      26.014  18.227   4.344  0.00  0.00     0.024 A 
HETATM   30  C   UNK N   1      25.915  19.554   3.933  0.00  0.00     0.034 A 
HETATM   31  C   UNK N   1      26.735  20.525   4.514  0.00  0.00     0.024 A 
HETATM   32 Cl   UNK N   1      24.762  19.996   2.692  0.00  0.00    -0.084 Cl
HETATM   33  C   UNK N   1      27.648  20.165   5.513  0.00  0.00     0.015 A 
ENDBRANCH   1  27
TORSDOF 5
ENDMDL
MODEL 5
REMARK VINA RESULT:      -7.1      4.574      7.086
REMARK  5 active torsions:
REMARK  status: ('A' for Active; 'I' for Inactive)
REMARK    1  A    between atoms: C_7  and  C_1 
REMARK    2  A    between atoms: C_5  and  C_9 
REMARK    3  A    between atoms: C_6  and  C_8 
REMARK       I    between atoms: N_24  and  C_28 
REMARK    4  A    between atoms: C_28  and  C_30 
REMARK    5  A    between atoms: C_30  and  O_31 
ROOT
HETATM    1  C   UNK N   1      34.014  16.207   9.033  0.00  0.00     0.072 A 
HETATM    2  N   UNK N   1      34.377  17.157   9.922  0.00  0.00    -0.299 N 
HETATM    3  N   UNK N   1      34.985  16.585  10.951  0.00  0.00    -0.303 N 
ATOM      4  HN  UNK N   1      35.357  17.074  11.766  1.00  0.00     0.186 HD
HETATM    5  C   UNK N   1      35.035  15.257  10.746  0.00  0.00     0.045 A 
HETATM    6  C   UNK N   1      34.407  14.952   9.534  0.00  0.00     0.044 A 
HETATM    7  H   UNK N   1      34.213  18.123   9.821  0.00  0.00     0.187 HD
ENDROOT
BRANCH   5   8
HETATM    8  C   UNK N   1      35.625  14.286  11.735  0.00  0.00     0.041 C 
HETATM    9  C   UNK N   1      36.003  14.893  13.070  0.00  0.00     0.030 C 
HETATM   10  C   UNK N   1      36.409  13.792  14.060  0.00  0.00     0.126 C 
HETATM   11  N   UNK N   1      36.992  12.583  13.465  0.00  0.00    -0.350 N 
HETATM   12  C   UNK N   1      37.280  11.524  14.278  0.00  0.00     0.243 C 
HETATM   13  C   UNK N   1      37.228  12.445  12.029  0.00  0.00     0.126 C 
HETATM   14  O   UNK N   1      37.090  11.605  15.484  0.00  0.00    -0.271 OA
HETATM   15  C   UNK N   1      36.904  13.683  11.210  0.00  0.00     0.030 C 
BRANCH  12  16
HETATM   16  C   UNK N   1      37.820  10.237  13.702  0.00  0.00     0.267 C 
BRANCH  16  17
HETATM   17  O   UNK N   1      36.831   9.253  13.637  0.00  0.00    -0.392 OA
HETATM   18  H   UNK N   1      36.604   8.789  12.816  0.00  0.00     0.210 HD
ENDBRANCH  16  17
ENDBRANCH  12  16
ENDBRANCH   5   8
BRANCH   6  19
HETATM   19  C   UNK N   1      34.187  13.574   8.976  0.00  0.00     0.049 A 
HETATM   20  C   UNK N   1      34.853  13.150   7.822  0.00  0.00     0.047 A 
HETATM   21  C   UNK N   1      34.639  11.864   7.339  0.00  0.00     0.091 A 
HETATM   22  N   UNK N   1      33.807  11.023   8.002  0.00  0.00    -0.362 N 
HETATM   23  C   UNK N   1      33.182  11.427   9.136  0.00  0.00     0.180 A 
ATOM     24  HN  UNK N   1      33.648  10.080   7.646  1.00  0.00     0.165 HD
HETATM   25  N   UNK N   1      33.377  12.687   9.609  0.00  0.00    -0.352 N 
ATOM     26  HN  UNK N   1      32.901  12.974  10.465  1.00  0.00     0.166 HD
ENDBRANCH   6  19
BRANCH   1  27
HETATM   27  C   UNK N   1      33.344  16.580   7.752  0.00  0.00    -0.007 A 
HETATM   28  C   UNK N   1      31.980  16.358   7.532  0.00  0.00     0.015 A 
HETATM   29  C   UNK N   1      31.376  16.700   6.323  0.00  0.00     0.024 A 
HETATM   30  C   UNK N   1      32.137  17.265   5.303  0.00  0.00     0.034 A 
HETATM   31  C   UNK N   1      33.505  17.477   5.492  0.00  0.00     0.024 A 
HETATM   32 Cl   UNK N   1      31.373  17.706   3.791  0.00  0.00    -0.084 Cl
HETATM   33  C   UNK N   1      34.107  17.129   6.708  0.00  0.00     0.015 A 
ENDBRANCH   1  27
TORSDOF 5
ENDMDL
MODEL 6
REMARK VINA RESULT:      -7.1      6.005      9.742
REMARK  5 active torsions:
REMARK  status: ('A' for Active; 'I' for Inactive)
REMARK    1  A    between atoms: C_7  and  C_1 
REMARK    2  A    between atoms: C_5  and  C_9 
REMARK    3  A    between atoms: C_6  and  C_8 
REMARK       I    between atoms: N_24  and  C_28 
REMARK    4  A    between atoms: C_28  and  C_30 
REMARK    5  A    between atoms: C_30  and  O_31 
ROOT
HETATM    1  C   UNK N   1      27.589  18.860   6.268  0.00  0.00     0.072 A 
HETATM    2  N   UNK N   1      27.308  20.124   6.650  0.00  0.00    -0.299 N 
HETATM    3  N   UNK N   1      26.151  20.495   6.122  0.00  0.00    -0.303 N 
ATOM      4  HN  UNK N   1      25.706  21.404   6.248  1.00  0.00     0.186 HD
HETATM    5  C   UNK N   1      25.657  19.477   5.394  0.00  0.00     0.045 A 
HETATM    6  C   UNK N   1      26.550  18.402   5.436  0.00  0.00     0.044 A 
HETATM    7  H   UNK N   1      27.875  20.683   7.229  0.00  0.00     0.187 HD
ENDROOT
BRANCH   5   8
HETATM    8  C   UNK N   1      24.369  19.561   4.617  0.00  0.00     0.041 C 
HETATM    9  C   UNK N   1      23.558  18.281   4.596  0.00  0.00     0.030 C 
HETATM   10  C   UNK N   1      22.188  18.530   3.949  0.00  0.00     0.126 C 
HETATM   11  N   UNK N   1      22.142  19.598   2.943  0.00  0.00    -0.350 N 
HETATM   12  C   UNK N   1      20.935  19.941   2.403  0.00  0.00     0.243 C 
HETATM   13  C   UNK N   1      23.329  20.348   2.533  0.00  0.00     0.126 C 
HETATM   14  O   UNK N   1      19.922  19.336   2.729  0.00  0.00    -0.271 OA
HETATM   15  C   UNK N   1      24.627  19.876   3.165  0.00  0.00     0.030 C 
BRANCH  12  16
HETATM   16  C   UNK N   1      20.830  21.077   1.414  0.00  0.00     0.267 C 
BRANCH  16  17
HETATM   17  O   UNK N   1      20.635  20.605   0.114  0.00  0.00    -0.392 OA
HETATM   18  H   UNK N   1      19.756  20.429  -0.256  0.00  0.00     0.210 HD
ENDBRANCH  16  17
ENDBRANCH  12  16
ENDBRANCH   5   8
BRANCH   6  19
HETATM   19  C   UNK N   1      26.403  17.103   4.695  0.00  0.00     0.049 A 
HETATM   20  C   UNK N   1      25.970  15.946   5.350  0.00  0.00     0.047 A 
HETATM   21  C   UNK N   1      25.829  14.762   4.633  0.00  0.00     0.091 A 
HETATM   22  N   UNK N   1      26.091  14.744   3.303  0.00  0.00    -0.362 N 
HETATM   23  C   UNK N   1      26.487  15.873   2.664  0.00  0.00     0.180 A 
ATOM     24  HN  UNK N   1      25.991  13.874   2.778  1.00  0.00     0.165 HD
HETATM   25  N   UNK N   1      26.637  17.032   3.359  0.00  0.00    -0.352 N 
ATOM     26  HN  UNK N   1      26.933  17.872   2.862  1.00  0.00     0.166 HD
ENDBRANCH   6  19
BRANCH   1  27
HETATM   27  C   UNK N   1      28.822  18.173   6.757  0.00  0.00    -0.007 A 
HETATM   28  C   UNK N   1      29.668  17.461   5.901  0.00  0.00     0.015 A 
HETATM   29  C   UNK N   1      30.806  16.814   6.379  0.00  0.00     0.024 A 
HETATM   30  C   UNK N   1      31.112  16.863   7.737  0.00  0.00     0.034 A 
HETATM   31  C   UNK N   1      30.271  17.551   8.615  0.00  0.00     0.024 A 
HETATM   32 Cl   UNK N   1      32.550  16.062   8.333  0.00  0.00    -0.084 Cl
HETATM   33  C   UNK N   1      29.127  18.197   8.128  0.00  0.00     0.015 A 
ENDBRANCH   1  27
TORSDOF 5
ENDMDL
MODEL 7
REMARK VINA RESULT:      -7.0      4.912      8.608
REMARK  5 active torsions:
REMARK  status: ('A' for Active; 'I' for Inactive)
REMARK    1  A    between atoms: C_7  and  C_1 
REMARK    2  A    between atoms: C_5  and  C_9 
REMARK    3  A    between atoms: C_6  and  C_8 
REMARK       I    between atoms: N_24  and  C_28 
REMARK    4  A    between atoms: C_28  and  C_30 
REMARK    5  A    between atoms: C_30  and  O_31 
ROOT
HETATM    1  C   UNK N   1      30.848  17.266   8.317  0.00  0.00     0.072 A 
HETATM    2  N   UNK N   1      30.089  17.882   9.248  0.00  0.00    -0.299 N 
HETATM    3  N   UNK N   1      28.945  18.264   8.699  0.00  0.00    -0.303 N 
ATOM      4  HN  UNK N   1      28.192  18.756   9.180  1.00  0.00     0.186 HD
HETATM    5  C   UNK N   1      28.939  17.899   7.405  0.00  0.00     0.045 A 
HETATM    6  C   UNK N   1      30.148  17.267   7.096  0.00  0.00     0.044 A 
HETATM    7  H   UNK N   1      30.345  18.024  10.188  0.00  0.00     0.187 HD
ENDROOT
BRANCH   5   8
HETATM    8  C   UNK N   1      27.806  18.208   6.460  0.00  0.00     0.041 C 
HETATM    9  C   UNK N   1      27.148  16.993   5.841  0.00  0.00     0.030 C 
HETATM   10  C   UNK N   1      25.895  17.407   5.056  0.00  0.00     0.126 C 
HETATM   11  N   UNK N   1      25.919  18.761   4.488  0.00  0.00    -0.350 N 
HETATM   12  C   UNK N   1      24.797  19.231   3.865  0.00  0.00     0.243 C 
HETATM   13  C   UNK N   1      27.075  19.647   4.605  0.00  0.00     0.126 C 
HETATM   14  O   UNK N   1      23.810  18.517   3.754  0.00  0.00    -0.271 OA
HETATM   15  C   UNK N   1      28.284  19.027   5.287  0.00  0.00     0.030 C 
BRANCH  12  16
HETATM   16  C   UNK N   1      24.752  20.640   3.323  0.00  0.00     0.267 C 
BRANCH  16  17
HETATM   17  O   UNK N   1      24.730  20.649   1.927  0.00  0.00    -0.392 OA
HETATM   18  H   UNK N   1      24.015  21.059   1.415  0.00  0.00     0.210 HD
ENDBRANCH  16  17
ENDBRANCH  12  16
ENDBRANCH   5   8
BRANCH   6  19
HETATM   19  C   UNK N   1      30.565  16.775   5.739  0.00  0.00     0.049 A 
HETATM   20  C   UNK N   1      31.452  17.511   4.948  0.00  0.00     0.047 A 
HETATM   21  C   UNK N   1      31.830  17.022   3.702  0.00  0.00     0.091 A 
HETATM   22  N   UNK N   1      31.356  15.825   3.274  0.00  0.00    -0.362 N 
HETATM   23  C   UNK N   1      30.516  15.100   4.054  0.00  0.00     0.180 A 
ATOM     24  HN  UNK N   1      31.632  15.468   2.360  1.00  0.00     0.165 HD
HETATM   25  N   UNK N   1      30.133  15.576   5.269  0.00  0.00    -0.352 N 
ATOM     26  HN  UNK N   1      29.502  15.017   5.843  1.00  0.00     0.166 HD
ENDBRANCH   6  19
BRANCH   1  27
HETATM   27  C   UNK N   1      32.180  16.693   8.677  0.00  0.00    -0.007 A 
HETATM   28  C   UNK N   1      33.357  17.444   8.608  0.00  0.00     0.015 A 
HETATM   29  C   UNK N   1      34.593  16.888   8.935  0.00  0.00     0.024 A 
HETATM   30  C   UNK N   1      34.669  15.554   9.330  0.00  0.00     0.034 A 
HETATM   31  C   UNK N   1      33.509  14.778   9.386  0.00  0.00     0.024 A 
HETATM   32 Cl   UNK N   1      36.220  14.861   9.753  0.00  0.00    -0.084 Cl
HETATM   33  C   UNK N   1      32.271  15.344   9.055  0.00  0.00     0.015 A 
ENDBRANCH   1  27
TORSDOF 5
ENDMDL
MODEL 8
REMARK VINA RESULT:      -6.9     13.607     16.245
REMARK  5 active torsions:
REMARK  status: ('A' for Active; 'I' for Inactive)
REMARK    1  A    between atoms: C_7  and  C_1 
REMARK    2  A    between atoms: C_5  and  C_9 
REMARK    3  A    between atoms: C_6  and  C_8 
REMARK       I    between atoms: N_24  and  C_28 
REMARK    4  A    between atoms: C_28  and  C_30 
REMARK    5  A    between atoms: C_30  and  O_31 
ROOT
HETATM    1  C   UNK N   1      27.808  21.652  -7.822  0.00  0.00     0.072 A 
HETATM    2  N   UNK N   1      26.514  21.854  -8.154  0.00  0.00    -0.299 N 
HETATM    3  N   UNK N   1      26.063  22.930  -7.527  0.00  0.00    -0.303 N 
ATOM      4  HN  UNK N   1      25.116  23.303  -7.598  1.00  0.00     0.186 HD
HETATM    5  C   UNK N   1      27.055  23.450  -6.782  0.00  0.00     0.045 A 
HETATM    6  C   UNK N   1      28.200  22.657  -6.918  0.00  0.00     0.044 A 
HETATM    7  H   UNK N   1      25.990  21.288  -8.766  0.00  0.00     0.187 HD
ENDROOT
BRANCH   5   8
HETATM    8  C   UNK N   1      26.885  24.660  -5.902  0.00  0.00     0.041 C 
HETATM    9  C   UNK N   1      26.374  24.363  -4.507  0.00  0.00     0.030 C 
HETATM   10  C   UNK N   1      26.423  25.629  -3.641  0.00  0.00     0.126 C 
HETATM   11  N   UNK N   1      26.278  26.901  -4.362  0.00  0.00    -0.350 N 
HETATM   12  C   UNK N   1      26.414  28.069  -3.667  0.00  0.00     0.243 C 
HETATM   13  C   UNK N   1      26.045  26.969  -5.803  0.00  0.00     0.126 C 
HETATM   14  O   UNK N   1      26.614  28.047  -2.459  0.00  0.00    -0.271 OA
HETATM   15  C   UNK N   1      25.879  25.621  -6.484  0.00  0.00     0.030 C 
BRANCH  12  16
HETATM   16  C   UNK N   1      26.338  29.399  -4.377  0.00  0.00     0.267 C 
BRANCH  16  17
HETATM   17  O   UNK N   1      25.980  30.426  -3.500  0.00  0.00    -0.392 OA
HETATM   18  H   UNK N   1      26.624  30.894  -2.948  0.00  0.00     0.210 HD
ENDBRANCH  16  17
ENDBRANCH  12  16
ENDBRANCH   5   8
BRANCH   6  19
HETATM   19  C   UNK N   1      29.501  22.856  -6.194  0.00  0.00     0.049 A 
HETATM   20  C   UNK N   1      29.847  22.054  -5.103  0.00  0.00     0.047 A 
HETATM   21  C   UNK N   1      31.066  22.252  -4.463  0.00  0.00     0.091 A 
HETATM   22  N   UNK N   1      31.918  23.206  -4.915  0.00  0.00    -0.362 N 
HETATM   23  C   UNK N   1      31.592  23.966  -5.989  0.00  0.00     0.180 A 
ATOM     24  HN  UNK N   1      32.811  23.353  -4.443  1.00  0.00     0.165 HD
HETATM   25  N   UNK N   1      30.398  23.785  -6.614  0.00  0.00    -0.352 N 
ATOM     26  HN  UNK N   1      30.169  24.365  -7.423  1.00  0.00     0.166 HD
ENDBRANCH   6  19
BRANCH   1  27
HETATM   27  C   UNK N   1      28.582  20.525  -8.423  0.00  0.00    -0.007 A 
HETATM   28  C   UNK N   1      29.012  19.430  -7.668  0.00  0.00     0.015 A 
HETATM   29  C   UNK N   1      29.746  18.395  -8.244  0.00  0.00     0.024 A 
HETATM   30  C   UNK N   1      30.072  18.446  -9.597  0.00  0.00     0.034 A 
HETATM   31  C   UNK N   1      29.671  19.541 -10.368  0.00  0.00     0.024 A 
HETATM   32 Cl   UNK N   1      30.982  17.138 -10.322  0.00  0.00    -0.084 Cl
HETATM   33  C   UNK N   1      28.935  20.578  -9.782  0.00  0.00     0.015 A 
ENDBRANCH   1  27
TORSDOF 5
ENDMDL
MODEL 9
REMARK VINA RESULT:      -6.8      9.623     14.763
REMARK  5 active torsions:
REMARK  status: ('A' for Active; 'I' for Inactive)
REMARK    1  A    between atoms: C_7  and  C_1 
REMARK    2  A    between atoms: C_5  and  C_9 
REMARK    3  A    between atoms: C_6  and  C_8 
REMARK       I    between atoms: N_24  and  C_28 
REMARK    4  A    between atoms: C_28  and  C_30 
REMARK    5  A    between atoms: C_30  and  O_31 
ROOT
HETATM    1  C   UNK N   1      35.499  11.878  18.872  0.00  0.00     0.072 A 
HETATM    2  N   UNK N   1      35.152  13.163  19.100  0.00  0.00    -0.299 N 
HETATM    3  N   UNK N   1      35.013  13.793  17.943  0.00  0.00    -0.303 N 
ATOM      4  HN  UNK N   1      34.759  14.774  17.829  1.00  0.00     0.186 HD
HETATM    5  C   UNK N   1      35.261  12.928  16.943  0.00  0.00     0.045 A 
HETATM    6  C   UNK N   1      35.598  11.682  17.481  0.00  0.00     0.044 A 
HETATM    7  H   UNK N   1      35.023  13.567  19.989  0.00  0.00     0.187 HD
ENDROOT
BRANCH   5   8
HETATM    8  C   UNK N   1      35.232  13.313  15.487  0.00  0.00     0.041 C 
HETATM    9  C   UNK N   1      34.915  12.177  14.537  0.00  0.00     0.030 C 
HETATM   10  C   UNK N   1      34.721  12.712  13.111  0.00  0.00     0.126 C 
HETATM   11  N   UNK N   1      35.471  13.930  12.781  0.00  0.00    -0.350 N 
HETATM   12  C   UNK N   1      35.267  14.518  11.565  0.00  0.00     0.243 C 
HETATM   13  C   UNK N   1      36.391  14.571  13.720  0.00  0.00     0.126 C 
HETATM   14  O   UNK N   1      34.501  14.009  10.757  0.00  0.00    -0.271 OA
HETATM   15  C   UNK N   1      36.575  13.830  15.034  0.00  0.00     0.030 C 
BRANCH  12  16
HETATM   16  C   UNK N   1      35.967  15.807  11.206  0.00  0.00     0.267 C 
BRANCH  16  17
HETATM   17  O   UNK N   1      35.067  16.872  11.129  0.00  0.00    -0.392 OA
HETATM   18  H   UNK N   1      34.829  17.300  10.292  0.00  0.00     0.210 HD
ENDBRANCH  16  17
ENDBRANCH  12  16
ENDBRANCH   5   8
BRANCH   6  19
HETATM   19  C   UNK N   1      36.014  10.467  16.701  0.00  0.00     0.049 A 
HETATM   20  C   UNK N   1      35.177   9.351  16.607  0.00  0.00     0.047 A 
HETATM   21  C   UNK N   1      35.584   8.247  15.865  0.00  0.00     0.091 A 
HETATM   22  N   UNK N   1      36.777   8.270  15.220  0.00  0.00    -0.362 N 
HETATM   23  C   UNK N   1      37.576   9.364  15.291  0.00  0.00     0.180 A 
ATOM     24  HN  UNK N   1      37.077   7.459  14.679  1.00  0.00     0.165 HD
HETATM   25  N   UNK N   1      37.190  10.443  16.023  0.00  0.00    -0.352 N 
ATOM     26  HN  UNK N   1      37.803  11.258  16.064  1.00  0.00     0.166 HD
ENDBRANCH   6  19
BRANCH   1  27
HETATM   27  C   UNK N   1      35.680  10.924  20.006  0.00  0.00    -0.007 A 
HETATM   28  C   UNK N   1      36.934  10.419  20.362  0.00  0.00     0.015 A 
HETATM   29  C   UNK N   1      37.081   9.518  21.416  0.00  0.00     0.024 A 
HETATM   30  C   UNK N   1      35.961   9.098  22.130  0.00  0.00     0.034 A 
HETATM   31  C   UNK N   1      34.695   9.573  21.779  0.00  0.00     0.024 A 
HETATM   32 Cl   UNK N   1      36.149   7.978  23.461  0.00  0.00    -0.084 Cl
HETATM   33  C   UNK N   1      34.554  10.477  20.718  0.00  0.00     0.015 A 
ENDBRANCH   1  27
TORSDOF 5
ENDMDL
