MODEL 1
REMARK VINA RESULT:      -7.3      0.000      0.000
REMARK  8 active torsions:
REMARK  status: ('A' for Active; 'I' for Inactive)
REMARK    1  A    between atoms: C_4  and  N_7 
REMARK    2  A    between atoms: N_7  and  C_8 
REMARK    3  A    between atoms: C_8  and  C_9 
REMARK    4  A    between atoms: C_9  and  O_10 
REMARK    5  A    between atoms: O_10  and  C_11 
REMARK    6  A    between atoms: C_13  and  N_18 
REMARK    7  A    between atoms: N_18  and  S_19 
REMARK    8  A    between atoms: S_19  and  C_22 
ROOT
HETATM    1  C   UNK N   1      35.565  15.388  10.879  0.00  0.00     0.071 A 
HETATM    2  C   UNK N   1      34.851  14.517  11.706  0.00  0.00     0.066 A 
HETATM    3  C   UNK N   1      35.368  13.261  12.040  0.00  0.00     0.045 A 
HETATM    4  C   UNK N   1      36.615  12.873  11.534  0.00  0.00     0.037 A 
HETATM    5  C   UNK N   1      37.327  13.729  10.688  0.00  0.00    -0.057 A 
HETATM    6  C   UNK N   1      36.808  14.984  10.363  0.00  0.00     0.043 A 
HETATM    7  C   UNK N   1      38.637  13.300  10.131  0.00  0.00     0.048 C 
ENDROOT
BRANCH   1   8
HETATM    8  O   UNK N   1      35.035  16.603  10.595  0.00  0.00    -0.349 OA
BRANCH   8   9
HETATM    9  C   UNK N   1      34.782  17.062   9.319  0.00  0.00     0.195 C 
BRANCH   9  10
HETATM   10  C   UNK N   1      33.405  16.633   8.836  0.00  0.00     0.146 C 
BRANCH  10  11
HETATM   11  N   UNK N   1      32.501  17.755   8.928  0.00  0.00    -0.388 N 
HETATM   12  H   UNK N   1      32.812  18.583   9.360  0.00  0.00     0.159 HD
BRANCH  11  13
HETATM   13  C   UNK N   1      31.179  17.702   8.415  0.00  0.00     0.030 A 
HETATM   14  C   UNK N   1      30.857  16.883   7.325  0.00  0.00     0.046 A 
HETATM   15  C   UNK N   1      29.547  16.860   6.845  0.00  0.00     0.089 A 
HETATM   16  N   UNK N   1      28.592  17.632   7.429  0.00  0.00    -0.375 N 
HETATM   17  C   UNK N   1      28.881  18.436   8.489  0.00  0.00     0.089 A 
HETATM   18  H   UNK N   1      27.673  17.608   7.080  0.00  0.00     0.164 HD
HETATM   19  C   UNK N   1      30.180  18.483   9.002  0.00  0.00     0.046 A 
ENDBRANCH  11  13
ENDBRANCH  10  11
ENDBRANCH   9  10
ENDBRANCH   8   9
ENDBRANCH   1   8
BRANCH   3  20
HETATM   20  N   UNK N   1      34.618  12.414  12.891  0.00  0.00    -0.281 N 
HETATM   21  H   UNK N   1      33.803  11.999  12.528  0.00  0.00     0.179 HD
BRANCH  20  22
HETATM   22  S   UNK N   1      35.055  12.054  14.556  0.00  0.00     0.263 S 
HETATM   23  O   UNK N   1      33.833  11.322  15.129  0.00  0.00    -0.200 OA
HETATM   24  O   UNK N   1      36.037  10.881  14.413  0.00  0.00    -0.200 OA
BRANCH  22  25
HETATM   25  C   UNK N   1      35.707  13.269  15.705  0.00  0.00     0.079 A 
HETATM   26  C   UNK N   1      35.140  13.383  16.981  0.00  0.00     0.025 A 
HETATM   27  C   UNK N   1      35.594  14.363  17.868  0.00  0.00     0.002 A 
HETATM   28  C   UNK N   1      36.614  15.238  17.479  0.00  0.00     0.000 A 
HETATM   29  C   UNK N   1      37.178  15.129  16.205  0.00  0.00     0.002 A 
HETATM   30  C   UNK N   1      36.722  14.149  15.318  0.00  0.00     0.025 A 
ENDBRANCH  22  25
ENDBRANCH  20  22
ENDBRANCH   3  20
TORSDOF 8
ENDMDL
MODEL 2
REMARK VINA RESULT:      -7.2     17.822     20.685
REMARK  8 active torsions:
REMARK  status: ('A' for Active; 'I' for Inactive)
REMARK    1  A    between atoms: C_4  and  N_7 
REMARK    2  A    between atoms: N_7  and  C_8 
REMARK    3  A    between atoms: C_8  and  C_9 
REMARK    4  A    between atoms: C_9  and  O_10 
REMARK    5  A    between atoms: O_10  and  C_11 
REMARK    6  A    between atoms: C_13  and  N_18 
REMARK    7  A    between atoms: N_18  and  S_19 
REMARK    8  A    between atoms: S_19  and  C_22 
ROOT
HETATM    1  C   UNK N   1      29.103  28.092  -4.667  0.00  0.00     0.071 A 
HETATM    2  C   UNK N   1      29.696  27.186  -3.782  0.00  0.00     0.066 A 
HETATM    3  C   UNK N   1      30.040  25.897  -4.201  0.00  0.00     0.045 A 
HETATM    4  C   UNK N   1      29.781  25.510  -5.521  0.00  0.00     0.037 A 
HETATM    5  C   UNK N   1      29.168  26.401  -6.408  0.00  0.00    -0.057 A 
HETATM    6  C   UNK N   1      28.832  27.689  -5.985  0.00  0.00     0.043 A 
HETATM    7  C   UNK N   1      28.870  25.975  -7.800  0.00  0.00     0.048 C 
ENDROOT
BRANCH   1   8
HETATM    8  O   UNK N   1      28.803  29.337  -4.224  0.00  0.00    -0.349 OA
BRANCH   8   9
HETATM    9  C   UNK N   1      28.059  29.602  -3.093  0.00  0.00     0.195 C 
BRANCH   9  10
HETATM   10  C   UNK N   1      26.569  29.635  -3.402  0.00  0.00     0.146 C 
BRANCH  10  11
HETATM   11  N   UNK N   1      25.984  28.365  -3.041  0.00  0.00    -0.388 N 
HETATM   12  H   UNK N   1      25.694  28.221  -2.112  0.00  0.00     0.159 HD
BRANCH  11  13
HETATM   13  C   UNK N   1      25.814  27.319  -3.984  0.00  0.00     0.030 A 
HETATM   14  C   UNK N   1      25.201  27.552  -5.222  0.00  0.00     0.046 A 
HETATM   15  C   UNK N   1      25.046  26.498  -6.124  0.00  0.00     0.089 A 
HETATM   16  N   UNK N   1      25.483  25.252  -5.797  0.00  0.00    -0.375 N 
HETATM   17  C   UNK N   1      26.081  25.001  -4.601  0.00  0.00     0.089 A 
HETATM   18  H   UNK N   1      25.366  24.517  -6.440  0.00  0.00     0.164 HD
HETATM   19  C   UNK N   1      26.258  26.031  -3.674  0.00  0.00     0.046 A 
ENDBRANCH  11  13
ENDBRANCH  10  11
ENDBRANCH   9  10
ENDBRANCH   8   9
ENDBRANCH   1   8
BRANCH   3  20
HETATM   20  N   UNK N   1      30.650  25.015  -3.277  0.00  0.00    -0.281 N 
HETATM   21  H   UNK N   1      31.410  25.351  -2.750  0.00  0.00     0.179 HD
BRANCH  20  22
HETATM   22  S   UNK N   1      30.132  23.355  -3.010  0.00  0.00     0.263 S 
HETATM   23  O   UNK N   1      30.658  23.004  -1.611  0.00  0.00    -0.200 OA
HETATM   24  O   UNK N   1      28.631  23.502  -2.712  0.00  0.00    -0.200 OA
BRANCH  22  25
HETATM   25  C   UNK N   1      30.401  22.022  -4.180  0.00  0.00     0.079 A 
HETATM   26  C   UNK N   1      31.372  21.050  -3.905  0.00  0.00     0.025 A 
HETATM   27  C   UNK N   1      31.638  20.038  -4.832  0.00  0.00     0.002 A 
HETATM   28  C   UNK N   1      30.938  19.998  -6.041  0.00  0.00     0.000 A 
HETATM   29  C   UNK N   1      29.971  20.969  -6.321  0.00  0.00     0.002 A 
HETATM   30  C   UNK N   1      29.707  21.982  -5.394  0.00  0.00     0.025 A 
ENDBRANCH  22  25
ENDBRANCH  20  22
ENDBRANCH   3  20
TORSDOF 8
ENDMDL
MODEL 3
REMARK VINA RESULT:      -7.2     13.361     16.709
REMARK  8 active torsions:
REMARK  status: ('A' for Active; 'I' for Inactive)
REMARK    1  A    between atoms: C_4  and  N_7 
REMARK    2  A    between atoms: N_7  and  C_8 
REMARK    3  A    between atoms: C_8  and  C_9 
REMARK    4  A    between atoms: C_9  and  O_10 
REMARK    5  A    between atoms: O_10  and  C_11 
REMARK    6  A    between atoms: C_13  and  N_18 
REMARK    7  A    between atoms: N_18  and  S_19 
REMARK    8  A    between atoms: S_19  and  C_22 
ROOT
HETATM    1  C   UNK N   1      19.946  15.771   4.178  0.00  0.00     0.071 A 
HETATM    2  C   UNK N   1      19.833  17.115   3.813  0.00  0.00     0.066 A 
HETATM    3  C   UNK N   1      20.073  17.523   2.496  0.00  0.00     0.045 A 
HETATM    4  C   UNK N   1      20.436  16.570   1.536  0.00  0.00     0.037 A 
HETATM    5  C   UNK N   1      20.574  15.226   1.896  0.00  0.00    -0.057 A 
HETATM    6  C   UNK N   1      20.327  14.824   3.211  0.00  0.00     0.043 A 
HETATM    7  C   UNK N   1      20.986  14.224   0.879  0.00  0.00     0.048 C 
ENDROOT
BRANCH   1   8
HETATM    8  O   UNK N   1      19.687  15.417   5.460  0.00  0.00    -0.349 OA
BRANCH   8   9
HETATM    9  C   UNK N   1      20.157  16.096   6.565  0.00  0.00     0.195 C 
BRANCH   9  10
HETATM   10  C   UNK N   1      21.157  15.260   7.349  0.00  0.00     0.146 C 
BRANCH  10  11
HETATM   11  N   UNK N   1      20.668  15.079   8.695  0.00  0.00    -0.388 N 
HETATM   12  H   UNK N   1      20.025  15.729   9.060  0.00  0.00     0.159 HD
BRANCH  11  13
HETATM   13  C   UNK N   1      21.083  13.993   9.509  0.00  0.00     0.030 A 
HETATM   14  C   UNK N   1      20.192  13.366  10.390  0.00  0.00     0.046 A 
HETATM   15  C   UNK N   1      20.637  12.303  11.178  0.00  0.00     0.089 A 
HETATM   16  N   UNK N   1      21.928  11.885  11.093  0.00  0.00    -0.375 N 
HETATM   17  C   UNK N   1      22.812  12.478  10.246  0.00  0.00     0.089 A 
HETATM   18  H   UNK N   1      22.230  11.136  11.656  0.00  0.00     0.164 HD
HETATM   19  C   UNK N   1      22.404  13.542   9.437  0.00  0.00     0.046 A 
ENDBRANCH  11  13
ENDBRANCH  10  11
ENDBRANCH   9  10
ENDBRANCH   8   9
ENDBRANCH   1   8
BRANCH   3  20
HETATM   20  N   UNK N   1      19.936  18.892   2.165  0.00  0.00    -0.281 N 
HETATM   21  H   UNK N   1      19.165  19.159   1.614  0.00  0.00     0.179 HD
BRANCH  20  22
HETATM   22  S   UNK N   1      21.056  20.147   2.681  0.00  0.00     0.263 S 
HETATM   23  O   UNK N   1      20.990  21.205   1.570  0.00  0.00    -0.200 OA
HETATM   24  O   UNK N   1      20.283  20.868   3.796  0.00  0.00    -0.200 OA
BRANCH  22  25
HETATM   25  C   UNK N   1      22.743  19.830   3.204  0.00  0.00     0.079 A 
HETATM   26  C   UNK N   1      23.004  18.762   4.072  0.00  0.00     0.025 A 
HETATM   27  C   UNK N   1      24.302  18.536   4.539  0.00  0.00     0.002 A 
HETATM   28  C   UNK N   1      25.343  19.381   4.144  0.00  0.00     0.000 A 
HETATM   29  C   UNK N   1      25.085  20.450   3.281  0.00  0.00     0.002 A 
HETATM   30  C   UNK N   1      23.785  20.677   2.816  0.00  0.00     0.025 A 
ENDBRANCH  22  25
ENDBRANCH  20  22
ENDBRANCH   3  20
TORSDOF 8
ENDMDL
MODEL 4
REMARK VINA RESULT:      -7.2      3.747     10.042
REMARK  8 active torsions:
REMARK  status: ('A' for Active; 'I' for Inactive)
REMARK    1  A    between atoms: C_4  and  N_7 
REMARK    2  A    between atoms: N_7  and  C_8 
REMARK    3  A    between atoms: C_8  and  C_9 
REMARK    4  A    between atoms: C_9  and  O_10 
REMARK    5  A    between atoms: O_10  and  C_11 
REMARK    6  A    between atoms: C_13  and  N_18 
REMARK    7  A    between atoms: N_18  and  S_19 
REMARK    8  A    between atoms: S_19  and  C_22 
ROOT
HETATM    1  C   UNK N   1      33.664  17.182   7.944  0.00  0.00     0.071 A 
HETATM    2  C   UNK N   1      32.376  17.028   8.465  0.00  0.00     0.066 A 
HETATM    3  C   UNK N   1      31.259  17.018   7.623  0.00  0.00     0.045 A 
HETATM    4  C   UNK N   1      31.437  17.169   6.242  0.00  0.00     0.037 A 
HETATM    5  C   UNK N   1      32.719  17.345   5.713  0.00  0.00    -0.057 A 
HETATM    6  C   UNK N   1      33.831  17.348   6.559  0.00  0.00     0.043 A 
HETATM    7  C   UNK N   1      32.899  17.532   4.250  0.00  0.00     0.048 C 
ENDROOT
BRANCH   1   8
HETATM    8  O   UNK N   1      34.720  17.168   8.794  0.00  0.00    -0.349 OA
BRANCH   8   9
HETATM    9  C   UNK N   1      35.183  16.041   9.440  0.00  0.00     0.195 C 
BRANCH   9  10
HETATM   10  C   UNK N   1      35.638  16.359  10.857  0.00  0.00     0.146 C 
BRANCH  10  11
HETATM   11  N   UNK N   1      35.133  15.346  11.754  0.00  0.00    -0.388 N 
HETATM   12  H   UNK N   1      34.190  15.387  12.035  0.00  0.00     0.159 HD
BRANCH  11  13
HETATM   13  C   UNK N   1      35.951  14.295  12.242  0.00  0.00     0.030 A 
HETATM   14  C   UNK N   1      35.963  13.958  13.602  0.00  0.00     0.046 A 
HETATM   15  C   UNK N   1      36.783  12.921  14.047  0.00  0.00     0.089 A 
HETATM   16  N   UNK N   1      37.569  12.246  13.165  0.00  0.00    -0.375 N 
HETATM   17  C   UNK N   1      37.574  12.555  11.840  0.00  0.00     0.089 A 
HETATM   18  H   UNK N   1      38.144  11.518  13.492  0.00  0.00     0.164 HD
HETATM   19  C   UNK N   1      36.763  13.584  11.355  0.00  0.00     0.046 A 
ENDBRANCH  11  13
ENDBRANCH  10  11
ENDBRANCH   9  10
ENDBRANCH   8   9
ENDBRANCH   1   8
BRANCH   3  20
HETATM   20  N   UNK N   1      29.973  16.848   8.190  0.00  0.00    -0.281 N 
HETATM   21  H   UNK N   1      29.739  15.960   8.546  0.00  0.00     0.179 HD
BRANCH  20  22
HETATM   22  S   UNK N   1      28.768  18.125   8.299  0.00  0.00     0.263 S 
HETATM   23  O   UNK N   1      27.644  17.525   9.157  0.00  0.00    -0.200 OA
HETATM   24  O   UNK N   1      29.390  19.105   9.306  0.00  0.00    -0.200 OA
BRANCH  22  25
HETATM   25  C   UNK N   1      28.125  19.019   6.883  0.00  0.00     0.079 A 
HETATM   26  C   UNK N   1      27.508  20.261   7.075  0.00  0.00     0.025 A 
HETATM   27  C   UNK N   1      26.947  20.945   5.992  0.00  0.00     0.002 A 
HETATM   28  C   UNK N   1      26.998  20.385   4.712  0.00  0.00     0.000 A 
HETATM   29  C   UNK N   1      27.609  19.142   4.517  0.00  0.00     0.002 A 
HETATM   30  C   UNK N   1      28.168  18.459   5.602  0.00  0.00     0.025 A 
ENDBRANCH  22  25
ENDBRANCH  20  22
ENDBRANCH   3  20
TORSDOF 8
ENDMDL
MODEL 5
REMARK VINA RESULT:      -7.2      4.916      8.430
REMARK  8 active torsions:
REMARK  status: ('A' for Active; 'I' for Inactive)
REMARK    1  A    between atoms: C_4  and  N_7 
REMARK    2  A    between atoms: N_7  and  C_8 
REMARK    3  A    between atoms: C_8  and  C_9 
REMARK    4  A    between atoms: C_9  and  O_10 
REMARK    5  A    between atoms: O_10  and  C_11 
REMARK    6  A    between atoms: C_13  and  N_18 
REMARK    7  A    between atoms: N_18  and  S_19 
REMARK    8  A    between atoms: S_19  and  C_22 
ROOT
HETATM    1  C   UNK N   1      35.176  11.130  17.241  0.00  0.00     0.071 A 
HETATM    2  C   UNK N   1      35.195  10.503  18.491  0.00  0.00     0.066 A 
HETATM    3  C   UNK N   1      35.232  11.256  19.669  0.00  0.00     0.045 A 
HETATM    4  C   UNK N   1      35.256  12.654  19.592  0.00  0.00     0.037 A 
HETATM    5  C   UNK N   1      35.260  13.290  18.347  0.00  0.00    -0.057 A 
HETATM    6  C   UNK N   1      35.217  12.533  17.174  0.00  0.00     0.043 A 
HETATM    7  C   UNK N   1      35.314  14.773  18.272  0.00  0.00     0.048 C 
ENDROOT
BRANCH   1   8
HETATM    8  O   UNK N   1      35.122  10.363  16.125  0.00  0.00    -0.349 OA
BRANCH   8   9
HETATM    9  C   UNK N   1      34.142  10.462  15.159  0.00  0.00     0.195 C 
BRANCH   9  10
HETATM   10  C   UNK N   1      34.735  10.439  13.759  0.00  0.00     0.146 C 
BRANCH  10  11
HETATM   11  N   UNK N   1      34.226  11.564  13.011  0.00  0.00    -0.388 N 
HETATM   12  H   UNK N   1      33.292  11.547  12.702  0.00  0.00     0.159 HD
BRANCH  11  13
HETATM   13  C   UNK N   1      35.029  12.694  12.708  0.00  0.00     0.030 A 
HETATM   14  C   UNK N   1      35.524  13.523  13.723  0.00  0.00     0.046 A 
HETATM   15  C   UNK N   1      36.307  14.629  13.388  0.00  0.00     0.089 A 
HETATM   16  N   UNK N   1      36.583  14.899  12.084  0.00  0.00    -0.375 N 
HETATM   17  C   UNK N   1      36.114  14.108  11.081  0.00  0.00     0.089 A 
HETATM   18  H   UNK N   1      37.135  15.683  11.861  0.00  0.00     0.164 HD
HETATM   19  C   UNK N   1      35.330  12.990  11.377  0.00  0.00     0.046 A 
ENDBRANCH  11  13
ENDBRANCH  10  11
ENDBRANCH   9  10
ENDBRANCH   8   9
ENDBRANCH   1   8
BRANCH   3  20
HETATM   20  N   UNK N   1      35.237  10.582  20.914  0.00  0.00    -0.281 N 
HETATM   21  H   UNK N   1      36.092  10.509  21.396  0.00  0.00     0.179 HD
BRANCH  20  22
HETATM   22  S   UNK N   1      33.809   9.870  21.654  0.00  0.00     0.263 S 
HETATM   23  O   UNK N   1      34.267   9.452  23.058  0.00  0.00    -0.200 OA
HETATM   24  O   UNK N   1      32.947  11.095  21.997  0.00  0.00    -0.200 OA
BRANCH  22  25
HETATM   25  C   UNK N   1      32.802   8.605  20.874  0.00  0.00     0.079 A 
HETATM   26  C   UNK N   1      33.425   7.514  20.256  0.00  0.00     0.025 A 
HETATM   27  C   UNK N   1      32.661   6.550  19.591  0.00  0.00     0.002 A 
HETATM   28  C   UNK N   1      31.270   6.679  19.537  0.00  0.00     0.000 A 
HETATM   29  C   UNK N   1      30.645   7.770  20.148  0.00  0.00     0.002 A 
HETATM   30  C   UNK N   1      31.411   8.734  20.812  0.00  0.00     0.025 A 
ENDBRANCH  22  25
ENDBRANCH  20  22
ENDBRANCH   3  20
TORSDOF 8
ENDMDL
MODEL 6
REMARK VINA RESULT:      -7.1     17.660     21.733
REMARK  8 active torsions:
REMARK  status: ('A' for Active; 'I' for Inactive)
REMARK    1  A    between atoms: C_4  and  N_7 
REMARK    2  A    between atoms: N_7  and  C_8 
REMARK    3  A    between atoms: C_8  and  C_9 
REMARK    4  A    between atoms: C_9  and  O_10 
REMARK    5  A    between atoms: O_10  and  C_11 
REMARK    6  A    between atoms: C_13  and  N_18 
REMARK    7  A    between atoms: N_18  and  S_19 
REMARK    8  A    between atoms: S_19  and  C_22 
ROOT
HETATM    1  C   UNK N   1      25.845  24.676  -5.629  0.00  0.00     0.071 A 
HETATM    2  C   UNK N   1      26.622  23.971  -4.705  0.00  0.00     0.066 A 
HETATM    3  C   UNK N   1      27.086  24.589  -3.539  0.00  0.00     0.045 A 
HETATM    4  C   UNK N   1      26.769  25.932  -3.299  0.00  0.00     0.037 A 
HETATM    5  C   UNK N   1      26.010  26.652  -4.227  0.00  0.00    -0.057 A 
HETATM    6  C   UNK N   1      25.546  26.028  -5.387  0.00  0.00     0.043 A 
HETATM    7  C   UNK N   1      25.702  28.084  -3.981  0.00  0.00     0.048 C 
ENDROOT
BRANCH   1   8
HETATM    8  O   UNK N   1      25.402  24.034  -6.737  0.00  0.00    -0.349 OA
BRANCH   8   9
HETATM    9  C   UNK N   1      26.217  23.366  -7.627  0.00  0.00     0.195 C 
BRANCH   9  10
HETATM   10  C   UNK N   1      25.804  23.630  -9.067  0.00  0.00     0.146 C 
BRANCH  10  11
HETATM   11  N   UNK N   1      25.506  25.034  -9.223  0.00  0.00    -0.388 N 
HETATM   12  H   UNK N   1      24.595  25.352  -9.026  0.00  0.00     0.159 HD
BRANCH  11  13
HETATM   13  C   UNK N   1      26.483  25.969  -9.650  0.00  0.00     0.030 A 
HETATM   14  C   UNK N   1      26.603  26.326 -11.000  0.00  0.00     0.046 A 
HETATM   15  C   UNK N   1      27.580  27.247 -11.384  0.00  0.00     0.089 A 
HETATM   16  N   UNK N   1      28.411  27.788 -10.453  0.00  0.00    -0.375 N 
HETATM   17  C   UNK N   1      28.314  27.456  -9.137  0.00  0.00     0.089 A 
HETATM   18  H   UNK N   1      29.097  28.434 -10.737  0.00  0.00     0.164 HD
HETATM   19  C   UNK N   1      27.347  26.541  -8.712  0.00  0.00     0.046 A 
ENDBRANCH  11  13
ENDBRANCH  10  11
ENDBRANCH   9  10
ENDBRANCH   8   9
ENDBRANCH   1   8
BRANCH   3  20
HETATM   20  N   UNK N   1      27.860  23.836  -2.624  0.00  0.00    -0.281 N 
HETATM   21  H   UNK N   1      27.428  23.535  -1.792  0.00  0.00     0.179 HD
BRANCH  20  22
HETATM   22  S   UNK N   1      29.545  23.402  -2.883  0.00  0.00     0.263 S 
HETATM   23  O   UNK N   1      30.260  24.741  -3.110  0.00  0.00    -0.200 OA
HETATM   24  O   UNK N   1      30.038  23.062  -1.468  0.00  0.00    -0.200 OA
BRANCH  22  25
HETATM   25  C   UNK N   1      30.088  22.147  -4.045  0.00  0.00     0.079 A 
HETATM   26  C   UNK N   1      30.982  21.156  -3.620  0.00  0.00     0.025 A 
HETATM   27  C   UNK N   1      31.463  20.206  -4.525  0.00  0.00     0.002 A 
HETATM   28  C   UNK N   1      31.056  20.247  -5.862  0.00  0.00     0.000 A 
HETATM   29  C   UNK N   1      30.167  21.238  -6.291  0.00  0.00     0.002 A 
HETATM   30  C   UNK N   1      29.688  22.189  -5.384  0.00  0.00     0.025 A 
ENDBRANCH  22  25
ENDBRANCH  20  22
ENDBRANCH   3  20
TORSDOF 8
ENDMDL
MODEL 7
REMARK VINA RESULT:      -7.0     18.460     20.257
REMARK  8 active torsions:
REMARK  status: ('A' for Active; 'I' for Inactive)
REMARK    1  A    between atoms: C_4  and  N_7 
REMARK    2  A    between atoms: N_7  and  C_8 
REMARK    3  A    between atoms: C_8  and  C_9 
REMARK    4  A    between atoms: C_9  and  O_10 
REMARK    5  A    between atoms: O_10  and  C_11 
REMARK    6  A    between atoms: C_13  and  N_18 
REMARK    7  A    between atoms: N_18  and  S_19 
REMARK    8  A    between atoms: S_19  and  C_22 
ROOT
HETATM    1  C   UNK N   1      28.895  22.230  -7.139  0.00  0.00     0.071 A 
HETATM    2  C   UNK N   1      29.100  22.259  -5.756  0.00  0.00     0.066 A 
HETATM    3  C   UNK N   1      29.960  21.344  -5.140  0.00  0.00     0.045 A 
HETATM    4  C   UNK N   1      30.619  20.386  -5.919  0.00  0.00     0.037 A 
HETATM    5  C   UNK N   1      30.404  20.334  -7.300  0.00  0.00    -0.057 A 
HETATM    6  C   UNK N   1      29.549  21.254  -7.910  0.00  0.00     0.043 A 
HETATM    7  C   UNK N   1      31.085  19.297  -8.118  0.00  0.00     0.048 C 
ENDROOT
BRANCH   1   8
HETATM    8  O   UNK N   1      28.067  23.145  -7.697  0.00  0.00    -0.349 OA
BRANCH   8   9
HETATM    9  C   UNK N   1      26.691  23.042  -7.714  0.00  0.00     0.195 C 
BRANCH   9  10
HETATM   10  C   UNK N   1      26.029  24.399  -7.526  0.00  0.00     0.146 C 
BRANCH  10  11
HETATM   11  N   UNK N   1      25.387  24.437  -6.234  0.00  0.00    -0.388 N 
HETATM   12  H   UNK N   1      24.800  23.692  -5.972  0.00  0.00     0.159 HD
BRANCH  11  13
HETATM   13  C   UNK N   1      25.577  25.513  -5.329  0.00  0.00     0.030 A 
HETATM   14  C   UNK N   1      26.302  25.342  -4.142  0.00  0.00     0.046 A 
HETATM   15  C   UNK N   1      26.465  26.422  -3.273  0.00  0.00     0.089 A 
HETATM   16  N   UNK N   1      25.919  27.630  -3.576  0.00  0.00    -0.375 N 
HETATM   17  C   UNK N   1      25.210  27.820  -4.722  0.00  0.00     0.089 A 
HETATM   18  H   UNK N   1      26.039  28.383  -2.954  0.00  0.00     0.164 HD
HETATM   19  C   UNK N   1      25.029  26.765  -5.620  0.00  0.00     0.046 A 
ENDBRANCH  11  13
ENDBRANCH  10  11
ENDBRANCH   9  10
ENDBRANCH   8   9
ENDBRANCH   1   8
BRANCH   3  20
HETATM   20  N   UNK N   1      30.149  21.417  -3.738  0.00  0.00    -0.281 N 
HETATM   21  H   UNK N   1      29.743  20.714  -3.181  0.00  0.00     0.179 HD
BRANCH  20  22
HETATM   22  S   UNK N   1      31.066  22.683  -2.932  0.00  0.00     0.263 S 
HETATM   23  O   UNK N   1      30.320  22.922  -1.612  0.00  0.00    -0.200 OA
HETATM   24  O   UNK N   1      32.308  21.940  -2.417  0.00  0.00    -0.200 OA
BRANCH  22  25
HETATM   25  C   UNK N   1      31.549  24.223  -3.717  0.00  0.00     0.079 A 
HETATM   26  C   UNK N   1      30.838  25.395  -3.428  0.00  0.00     0.025 A 
HETATM   27  C   UNK N   1      31.161  26.592  -4.074  0.00  0.00     0.002 A 
HETATM   28  C   UNK N   1      32.193  26.619  -5.017  0.00  0.00     0.000 A 
HETATM   29  C   UNK N   1      32.901  25.450  -5.311  0.00  0.00     0.002 A 
HETATM   30  C   UNK N   1      32.576  24.253  -4.665  0.00  0.00     0.025 A 
ENDBRANCH  22  25
ENDBRANCH  20  22
ENDBRANCH   3  20
TORSDOF 8
ENDMDL
MODEL 8
REMARK VINA RESULT:      -7.0      4.889     10.185
REMARK  8 active torsions:
REMARK  status: ('A' for Active; 'I' for Inactive)
REMARK    1  A    between atoms: C_4  and  N_7 
REMARK    2  A    between atoms: N_7  and  C_8 
REMARK    3  A    between atoms: C_8  and  C_9 
REMARK    4  A    between atoms: C_9  and  O_10 
REMARK    5  A    between atoms: O_10  and  C_11 
REMARK    6  A    between atoms: C_13  and  N_18 
REMARK    7  A    between atoms: N_18  and  S_19 
REMARK    8  A    between atoms: S_19  and  C_22 
ROOT
HETATM    1  C   UNK N   1      33.927  17.034   5.855  0.00  0.00     0.071 A 
HETATM    2  C   UNK N   1      32.784  17.623   5.305  0.00  0.00     0.066 A 
HETATM    3  C   UNK N   1      32.028  16.952   4.338  0.00  0.00     0.045 A 
HETATM    4  C   UNK N   1      32.425  15.678   3.915  0.00  0.00     0.037 A 
HETATM    5  C   UNK N   1      33.579  15.090   4.443  0.00  0.00    -0.057 A 
HETATM    6  C   UNK N   1      34.327  15.762   5.411  0.00  0.00     0.043 A 
HETATM    7  C   UNK N   1      34.011  13.750   3.969  0.00  0.00     0.048 C 
ENDROOT
BRANCH   1   8
HETATM    8  O   UNK N   1      34.621  17.712   6.801  0.00  0.00    -0.349 OA
BRANCH   8   9
HETATM    9  C   UNK N   1      34.068  18.213   7.962  0.00  0.00     0.195 C 
BRANCH   9  10
HETATM   10  C   UNK N   1      33.651  17.096   8.907  0.00  0.00     0.146 C 
BRANCH  10  11
HETATM   11  N   UNK N   1      34.607  17.008   9.985  0.00  0.00    -0.388 N 
HETATM   12  H   UNK N   1      34.918  17.838  10.415  0.00  0.00     0.159 HD
BRANCH  11  13
HETATM   13  C   UNK N   1      35.111  15.765  10.446  0.00  0.00     0.030 A 
HETATM   14  C   UNK N   1      34.324  14.908  11.226  0.00  0.00     0.046 A 
HETATM   15  C   UNK N   1      34.855  13.694  11.666  0.00  0.00     0.089 A 
HETATM   16  N   UNK N   1      36.130  13.350  11.342  0.00  0.00    -0.375 N 
HETATM   17  C   UNK N   1      36.914  14.166  10.585  0.00  0.00     0.089 A 
HETATM   18  H   UNK N   1      36.493  12.493  11.659  0.00  0.00     0.164 HD
HETATM   19  C   UNK N   1      36.417  15.387  10.123  0.00  0.00     0.046 A 
ENDBRANCH  11  13
ENDBRANCH  10  11
ENDBRANCH   9  10
ENDBRANCH   8   9
ENDBRANCH   1   8
BRANCH   3  20
HETATM   20  N   UNK N   1      30.870  17.579   3.816  0.00  0.00    -0.281 N 
HETATM   21  H   UNK N   1      30.976  18.164   3.032  0.00  0.00     0.179 HD
BRANCH  20  22
HETATM   22  S   UNK N   1      29.255  17.374   4.482  0.00  0.00     0.263 S 
HETATM   23  O   UNK N   1      28.524  16.490   3.461  0.00  0.00    -0.200 OA
HETATM   24  O   UNK N   1      29.472  16.362   5.618  0.00  0.00    -0.200 OA
BRANCH  22  25
HETATM   25  C   UNK N   1      28.227  18.730   5.051  0.00  0.00     0.079 A 
HETATM   26  C   UNK N   1      27.524  19.500   4.116  0.00  0.00     0.025 A 
HETATM   27  C   UNK N   1      26.766  20.597   4.534  0.00  0.00     0.002 A 
HETATM   28  C   UNK N   1      26.714  20.933   5.890  0.00  0.00     0.000 A 
HETATM   29  C   UNK N   1      27.418  20.169   6.826  0.00  0.00     0.002 A 
HETATM   30  C   UNK N   1      28.177  19.072   6.406  0.00  0.00     0.025 A 
ENDBRANCH  22  25
ENDBRANCH  20  22
ENDBRANCH   3  20
TORSDOF 8
ENDMDL
MODEL 9
REMARK VINA RESULT:      -6.9     17.477     21.222
REMARK  8 active torsions:
REMARK  status: ('A' for Active; 'I' for Inactive)
REMARK    1  A    between atoms: C_4  and  N_7 
REMARK    2  A    between atoms: N_7  and  C_8 
REMARK    3  A    between atoms: C_8  and  C_9 
REMARK    4  A    between atoms: C_9  and  O_10 
REMARK    5  A    between atoms: O_10  and  C_11 
REMARK    6  A    between atoms: C_13  and  N_18 
REMARK    7  A    between atoms: N_18  and  S_19 
REMARK    8  A    between atoms: S_19  and  C_22 
ROOT
HETATM    1  C   UNK N   1      29.766  21.525  -5.911  0.00  0.00     0.071 A 
HETATM    2  C   UNK N   1      28.826  22.347  -6.541  0.00  0.00     0.066 A 
HETATM    3  C   UNK N   1      28.121  21.900  -7.663  0.00  0.00     0.045 A 
HETATM    4  C   UNK N   1      28.366  20.615  -8.163  0.00  0.00     0.037 A 
HETATM    5  C   UNK N   1      29.320  19.794  -7.554  0.00  0.00    -0.057 A 
HETATM    6  C   UNK N   1      30.016  20.243  -6.430  0.00  0.00     0.043 A 
HETATM    7  C   UNK N   1      29.596  18.442  -8.106  0.00  0.00     0.048 C 
ENDROOT
BRANCH   1   8
HETATM    8  O   UNK N   1      30.413  21.991  -4.816  0.00  0.00    -0.349 OA
BRANCH   8   9
HETATM    9  C   UNK N   1      30.700  21.232  -3.700  0.00  0.00     0.195 C 
BRANCH   9  10
HETATM   10  C   UNK N   1      31.824  21.849  -2.881  0.00  0.00     0.146 C 
BRANCH  10  11
HETATM   11  N   UNK N   1      32.863  20.865  -2.688  0.00  0.00    -0.388 N 
HETATM   12  H   UNK N   1      32.945  20.424  -1.812  0.00  0.00     0.159 HD
BRANCH  11  13
HETATM   13  C   UNK N   1      33.770  20.514  -3.722  0.00  0.00     0.030 A 
HETATM   14  C   UNK N   1      34.458  21.496  -4.446  0.00  0.00     0.046 A 
HETATM   15  C   UNK N   1      35.339  21.113  -5.459  0.00  0.00     0.089 A 
HETATM   16  N   UNK N   1      35.522  19.796  -5.742  0.00  0.00    -0.375 N 
HETATM   17  C   UNK N   1      34.865  18.824  -5.053  0.00  0.00     0.089 A 
HETATM   18  H   UNK N   1      36.144  19.539  -6.460  0.00  0.00     0.164 HD
HETATM   19  C   UNK N   1      33.978  19.167  -4.028  0.00  0.00     0.046 A 
ENDBRANCH  11  13
ENDBRANCH  10  11
ENDBRANCH   9  10
ENDBRANCH   8   9
ENDBRANCH   1   8
BRANCH   3  20
HETATM   20  N   UNK N   1      27.169  22.759  -8.263  0.00  0.00    -0.281 N 
HETATM   21  H   UNK N   1      27.292  22.995  -9.211  0.00  0.00     0.179 HD
BRANCH  20  22
HETATM   22  S   UNK N   1      25.778  23.429  -7.420  0.00  0.00     0.263 S 
HETATM   23  O   UNK N   1      24.727  23.646  -8.517  0.00  0.00    -0.200 OA
HETATM   24  O   UNK N   1      25.182  22.206  -6.705  0.00  0.00    -0.200 OA
BRANCH  22  25
HETATM   25  C   UNK N   1      25.867  24.821  -6.291  0.00  0.00     0.079 A 
HETATM   26  C   UNK N   1      26.233  24.604  -4.957  0.00  0.00     0.025 A 
HETATM   27  C   UNK N   1      26.250  25.666  -4.049  0.00  0.00     0.002 A 
HETATM   28  C   UNK N   1      25.893  26.950  -4.471  0.00  0.00     0.000 A 
HETATM   29  C   UNK N   1      25.523  27.170  -5.801  0.00  0.00     0.002 A 
HETATM   30  C   UNK N   1      25.505  26.106  -6.708  0.00  0.00     0.025 A 
ENDBRANCH  22  25
ENDBRANCH  20  22
ENDBRANCH   3  20
TORSDOF 8
ENDMDL
