REMARK  8 active torsions:
REMARK  status: ('A' for Active; 'I' for Inactive)
REMARK    1  A    between atoms: C_4  and  N_7 
REMARK    2  A    between atoms: N_7  and  C_8 
REMARK    3  A    between atoms: C_8  and  C_9 
REMARK    4  A    between atoms: C_9  and  O_10 
REMARK    5  A    between atoms: O_10  and  C_11 
REMARK    6  A    between atoms: C_13  and  N_18 
REMARK    7  A    between atoms: N_18  and  S_19 
REMARK    8  A    between atoms: S_19  and  C_22 
ROOT
HETATM    1  C   UNK N   1      -0.849   0.486   0.541  0.00  0.00     0.071 A 
HETATM    2  C   UNK N   1       0.270   1.323   0.585  0.00  0.00     0.066 A 
HETATM    3  C   UNK N   1       1.549   0.823   0.318  0.00  0.00     0.045 A 
HETATM    4  C   UNK N   1       1.707  -0.533   0.008  0.00  0.00     0.037 A 
HETATM    5  C   UNK N   1       0.597  -1.383  -0.017  0.00  0.00    -0.057 A 
HETATM    6  C   UNK N   1      -0.678  -0.877   0.245  0.00  0.00     0.043 A 
HETATM    7  C   UNK N   1       0.775  -2.827  -0.319  0.00  0.00     0.048 C 
ENDROOT
BRANCH   1   8
HETATM    8  O   UNK N   1      -2.072   1.015   0.789  0.00  0.00    -0.349 OA
BRANCH   8   9
HETATM    9  C   UNK N   1      -3.236   0.279   0.869  0.00  0.00     0.195 C 
BRANCH   9  10
HETATM   10  C   UNK N   1      -3.760  -0.086  -0.512  0.00  0.00     0.146 C 
BRANCH  10  11
HETATM   11  N   UNK N   1      -5.154  -0.447  -0.408  0.00  0.00    -0.388 N 
HETATM   12  H   UNK N   1      -5.403  -1.399  -0.439  0.00  0.00     0.159 HD
BRANCH  11  13
HETATM   13  C   UNK N   1      -6.176   0.526  -0.261  0.00  0.00     0.030 A 
HETATM   14  C   UNK N   1      -5.891   1.895  -0.351  0.00  0.00     0.046 A 
HETATM   15  C   UNK N   1      -6.921   2.824  -0.197  0.00  0.00     0.089 A 
HETATM   16  N   UNK N   1      -8.191   2.401   0.044  0.00  0.00    -0.375 N 
HETATM   17  C   UNK N   1      -8.492   1.077   0.136  0.00  0.00     0.089 A 
HETATM   18  H   UNK N   1      -8.908   3.066   0.153  0.00  0.00     0.164 HD
HETATM   19  C   UNK N   1      -7.489   0.116  -0.017  0.00  0.00     0.046 A 
ENDBRANCH  11  13
ENDBRANCH  10  11
ENDBRANCH   9  10
ENDBRANCH   8   9
ENDBRANCH   1   8
BRANCH   3  20
HETATM   20  N   UNK N   1       2.654   1.707   0.361  0.00  0.00    -0.281 N 
HETATM   21  H   UNK N   1       2.556   2.545   0.868  0.00  0.00     0.179 HD
BRANCH  20  22
HETATM   22  S   UNK N   1       4.193   1.399  -0.434  0.00  0.00     0.263 S 
HETATM   23  O   UNK N   1       3.888   1.529  -1.933  0.00  0.00    -0.200 OA
HETATM   24  O   UNK N   1       4.974   2.701  -0.197  0.00  0.00    -0.200 OA
BRANCH  22  25
HETATM   25  C   UNK N   1       5.235  -0.019  -0.083  0.00  0.00     0.079 A 
HETATM   26  C   UNK N   1       6.626   0.141  -0.049  0.00  0.00     0.025 A 
HETATM   27  C   UNK N   1       7.457  -0.963   0.163  0.00  0.00     0.002 A 
HETATM   28  C   UNK N   1       6.899  -2.233   0.336  0.00  0.00     0.000 A 
HETATM   29  C   UNK N   1       5.511  -2.397   0.298  0.00  0.00     0.002 A 
HETATM   30  C   UNK N   1       4.681  -1.292   0.084  0.00  0.00     0.025 A 
ENDBRANCH  22  25
ENDBRANCH  20  22
ENDBRANCH   3  20
TORSDOF 8
