MODEL 1
REMARK VINA RESULT:      -8.3      0.000      0.000
REMARK  5 active torsions:
REMARK  status: ('A' for Active; 'I' for Inactive)
REMARK    1  A    between atoms: C_2  and  O_1 
REMARK    2  A    between atoms: C_2  and  C_4 
REMARK    3  A    between atoms: C_18  and  N_17 
REMARK    4  A    between atoms: C_19  and  C_18 
REMARK    5  A    between atoms: C_22  and  C_21 
REMARK       I    between atoms: N_23  and  C_22 
ROOT
HETATM    1  C   UNK N   1      28.595  18.527   7.390  0.00  0.00     0.065 A 
HETATM    2  C   UNK N   1      29.386  17.687   6.537  0.00  0.00     0.063 A 
HETATM    3  C   UNK N   1      29.260  17.812   5.163  0.00  0.00     0.000 A 
HETATM    4  C   UNK N   1      30.097  16.899   4.582  0.00  0.00    -0.023 A 
HETATM    5  C   UNK N   1      30.302  16.682   3.114  0.00  0.00     0.041 C 
HETATM    6  C   UNK N   1      31.753  16.928   2.720  0.00  0.00     0.005 C 
HETATM    7  C   UNK N   1      32.637  15.741   3.089  0.00  0.00     0.001 C 
HETATM    8  C   UNK N   1      32.968  15.731   4.576  0.00  0.00     0.006 C 
HETATM    9  C   UNK N   1      31.797  15.209   5.390  0.00  0.00     0.058 C 
HETATM   10  C   UNK N   1      30.754  16.253   5.613  0.00  0.00     0.019 A 
HETATM   11  C   UNK N   1      28.434  18.746   4.550  0.00  0.00     0.014 A 
HETATM   12  C   UNK N   1      27.697  19.604   5.365  0.00  0.00     0.002 A 
HETATM   13  C   UNK N   1      27.768  19.486   6.763  0.00  0.00     0.021 A 
HETATM   14  N   UNK N   1      30.334  16.743   6.822  0.00  0.00    -0.344 N 
ENDROOT
BRANCH  14  15
HETATM   15  C   UNK N   1      30.942  16.496   8.145  0.00  0.00     0.167 C 
BRANCH  15  16
HETATM   16  C   UNK N   1      32.408  16.735   8.410  0.00  0.00    -0.039 A 
HETATM   17  C   UNK N   1      33.058  15.974   9.393  0.00  0.00     0.026 A 
HETATM   18  C   UNK N   1      34.353  16.320   9.827  0.00  0.00     0.032 A 
HETATM   19  C   UNK N   1      34.992  17.433   9.265  0.00  0.00     0.017 A 
HETATM   20  C   UNK N   1      34.347  18.197   8.295  0.00  0.00     0.002 A 
HETATM   21  C   UNK N   1      33.053  17.866   7.900  0.00  0.00     0.009 A 
BRANCH  18  22
HETATM   22  C   UNK N   1      35.016  15.562  10.910  0.00  0.00     0.249 C 
HETATM   23  O   UNK N   1      34.379  14.775  11.590  0.00  0.00    -0.268 OA
HETATM   24  N   UNK N   1      36.326  15.758  11.174  0.00  0.00    -0.366 N 
HETATM   25  H   UNK N   1      36.764  15.277  11.913  0.00  0.00     0.159 HD
HETATM   26  H   UNK N   1      36.846  16.386  10.623  0.00  0.00     0.159 HD
ENDBRANCH  18  22
ENDBRANCH  15  16
ENDBRANCH  14  15
BRANCH   1  27
HETATM   27  C   UNK N   1      28.497  18.448   8.874  0.00  0.00     0.178 C 
HETATM   28  O   UNK N   1      29.379  18.865   9.599  0.00  0.00    -0.646 OA
BRANCH  27  29
HETATM   29  O   UNK N   1      27.457  17.794   9.434  0.00  0.00    -0.773 OA
HETATM   30  H   UNK N   1      27.459  16.860   9.500  0.00  0.00     0.167 HD
ENDBRANCH  27  29
ENDBRANCH   1  27
TORSDOF 5
ENDMDL
MODEL 2
REMARK VINA RESULT:      -7.9      2.999      7.164
REMARK  5 active torsions:
REMARK  status: ('A' for Active; 'I' for Inactive)
REMARK    1  A    between atoms: C_2  and  O_1 
REMARK    2  A    between atoms: C_2  and  C_4 
REMARK    3  A    between atoms: C_18  and  N_17 
REMARK    4  A    between atoms: C_19  and  C_18 
REMARK    5  A    between atoms: C_22  and  C_21 
REMARK       I    between atoms: N_23  and  C_22 
ROOT
HETATM    1  C   UNK N   1      29.420  18.110   7.884  0.00  0.00     0.065 A 
HETATM    2  C   UNK N   1      29.705  17.469   6.632  0.00  0.00     0.063 A 
HETATM    3  C   UNK N   1      30.991  17.022   6.381  0.00  0.00     0.000 A 
HETATM    4  C   UNK N   1      31.006  16.471   5.127  0.00  0.00    -0.023 A 
HETATM    5  C   UNK N   1      32.181  15.848   4.438  0.00  0.00     0.041 C 
HETATM    6  C   UNK N   1      31.909  14.387   4.104  0.00  0.00     0.005 C 
HETATM    7  C   UNK N   1      31.027  14.256   2.867  0.00  0.00     0.001 C 
HETATM    8  C   UNK N   1      29.564  14.526   3.194  0.00  0.00     0.006 C 
HETATM    9  C   UNK N   1      29.300  16.017   3.316  0.00  0.00     0.058 C 
HETATM   10  C   UNK N   1      29.712  16.557   4.645  0.00  0.00     0.019 A 
HETATM   11  C   UNK N   1      32.029  17.117   7.298  0.00  0.00     0.014 A 
HETATM   12  C   UNK N   1      31.756  17.691   8.540  0.00  0.00     0.002 A 
HETATM   13  C   UNK N   1      30.475  18.190   8.821  0.00  0.00     0.021 A 
HETATM   14  N   UNK N   1      28.900  17.156   5.571  0.00  0.00    -0.344 N 
ENDROOT
BRANCH  14  15
HETATM   15  C   UNK N   1      27.425  17.229   5.550  0.00  0.00     0.167 C 
BRANCH  15  16
HETATM   16  C   UNK N   1      26.689  18.375   4.901  0.00  0.00    -0.039 A 
HETATM   17  C   UNK N   1      25.296  18.296   4.753  0.00  0.00     0.026 A 
HETATM   18  C   UNK N   1      24.607  19.229   3.954  0.00  0.00     0.032 A 
HETATM   19  C   UNK N   1      25.324  20.244   3.307  0.00  0.00     0.017 A 
HETATM   20  C   UNK N   1      26.709  20.321   3.444  0.00  0.00     0.002 A 
HETATM   21  C   UNK N   1      27.383  19.370   4.207  0.00  0.00     0.009 A 
BRANCH  18  22
HETATM   22  C   UNK N   1      23.148  19.113   3.740  0.00  0.00     0.249 C 
HETATM   23  O   UNK N   1      22.499  20.082   3.381  0.00  0.00    -0.268 OA
HETATM   24  N   UNK N   1      22.518  17.942   3.971  0.00  0.00    -0.366 N 
HETATM   25  H   UNK N   1      21.543  17.868   3.859  0.00  0.00     0.159 HD
HETATM   26  H   UNK N   1      23.038  17.155   4.254  0.00  0.00     0.159 HD
ENDBRANCH  18  22
ENDBRANCH  15  16
ENDBRANCH  14  15
BRANCH   1  27
HETATM   27  C   UNK N   1      28.143  18.767   8.278  0.00  0.00     0.178 C 
HETATM   28  O   UNK N   1      27.767  19.802   7.763  0.00  0.00    -0.646 OA
BRANCH  27  29
HETATM   29  O   UNK N   1      27.436  18.268   9.314  0.00  0.00    -0.773 OA
HETATM   30  H   UNK N   1      27.515  17.367   9.558  0.00  0.00     0.167 HD
ENDBRANCH  27  29
ENDBRANCH   1  27
TORSDOF 5
ENDMDL
MODEL 3
REMARK VINA RESULT:      -7.8      8.539     11.468
REMARK  5 active torsions:
REMARK  status: ('A' for Active; 'I' for Inactive)
REMARK    1  A    between atoms: C_2  and  O_1 
REMARK    2  A    between atoms: C_2  and  C_4 
REMARK    3  A    between atoms: C_18  and  N_17 
REMARK    4  A    between atoms: C_19  and  C_18 
REMARK    5  A    between atoms: C_22  and  C_21 
REMARK       I    between atoms: N_23  and  C_22 
ROOT
HETATM    1  C   UNK N   1      20.480  15.716   8.435  0.00  0.00     0.065 A 
HETATM    2  C   UNK N   1      21.624  15.660   7.571  0.00  0.00     0.063 A 
HETATM    3  C   UNK N   1      22.478  14.572   7.653  0.00  0.00     0.000 A 
HETATM    4  C   UNK N   1      23.488  14.765   6.750  0.00  0.00    -0.023 A 
HETATM    5  C   UNK N   1      24.635  13.839   6.480  0.00  0.00     0.041 C 
HETATM    6  C   UNK N   1      24.634  13.373   5.030  0.00  0.00     0.005 C 
HETATM    7  C   UNK N   1      25.193  14.447   4.103  0.00  0.00     0.001 C 
HETATM    8  C   UNK N   1      24.166  15.537   3.826  0.00  0.00     0.006 C 
HETATM    9  C   UNK N   1      24.063  16.497   4.999  0.00  0.00     0.058 C 
HETATM   10  C   UNK N   1      23.215  15.955   6.100  0.00  0.00     0.019 A 
HETATM   11  C   UNK N   1      22.266  13.493   8.501  0.00  0.00     0.014 A 
HETATM   12  C   UNK N   1      21.130  13.507   9.310  0.00  0.00     0.002 A 
HETATM   13  C   UNK N   1      20.259  14.608   9.285  0.00  0.00     0.021 A 
HETATM   14  N   UNK N   1      22.060  16.506   6.588  0.00  0.00    -0.344 N 
ENDROOT
BRANCH  14  15
HETATM   15  C   UNK N   1      21.299  17.637   6.018  0.00  0.00     0.167 C 
BRANCH  15  16
HETATM   16  C   UNK N   1      21.077  17.784   4.533  0.00  0.00    -0.039 A 
HETATM   17  C   UNK N   1      21.304  19.030   3.929  0.00  0.00     0.026 A 
HETATM   18  C   UNK N   1      20.892  19.268   2.602  0.00  0.00     0.032 A 
HETATM   19  C   UNK N   1      20.254  18.247   1.886  0.00  0.00     0.017 A 
HETATM   20  C   UNK N   1      20.017  17.011   2.485  0.00  0.00     0.002 A 
HETATM   21  C   UNK N   1      20.397  16.800   3.809  0.00  0.00     0.009 A 
BRANCH  18  22
HETATM   22  C   UNK N   1      21.069  20.598   1.982  0.00  0.00     0.249 C 
HETATM   23  O   UNK N   1      21.777  21.437   2.515  0.00  0.00    -0.268 OA
HETATM   24  N   UNK N   1      20.423  20.907   0.837  0.00  0.00    -0.366 N 
HETATM   25  H   UNK N   1      20.515  21.801   0.436  0.00  0.00     0.159 HD
HETATM   26  H   UNK N   1      19.856  20.231   0.399  0.00  0.00     0.159 HD
ENDBRANCH  18  22
ENDBRANCH  15  16
ENDBRANCH  14  15
BRANCH   1  27
HETATM   27  C   UNK N   1      19.530  16.854   8.583  0.00  0.00     0.178 C 
HETATM   28  O   UNK N   1      19.859  17.901   9.104  0.00  0.00    -0.646 OA
BRANCH  27  29
HETATM   29  O   UNK N   1      18.236  16.684   8.238  0.00  0.00    -0.773 OA
HETATM   30  H   UNK N   1      17.902  17.045   7.441  0.00  0.00     0.167 HD
ENDBRANCH  27  29
ENDBRANCH   1  27
TORSDOF 5
ENDMDL
MODEL 4
REMARK VINA RESULT:      -7.8     12.531     15.601
REMARK  5 active torsions:
REMARK  status: ('A' for Active; 'I' for Inactive)
REMARK    1  A    between atoms: C_2  and  O_1 
REMARK    2  A    between atoms: C_2  and  C_4 
REMARK    3  A    between atoms: C_18  and  N_17 
REMARK    4  A    between atoms: C_19  and  C_18 
REMARK    5  A    between atoms: C_22  and  C_21 
REMARK       I    between atoms: N_23  and  C_22 
ROOT
HETATM    1  C   UNK N   1      30.271  22.703  -3.916  0.00  0.00     0.065 A 
HETATM    2  C   UNK N   1      29.332  22.663  -5.000  0.00  0.00     0.063 A 
HETATM    3  C   UNK N   1      29.565  21.804  -6.061  0.00  0.00     0.000 A 
HETATM    4  C   UNK N   1      28.547  21.967  -6.962  0.00  0.00    -0.023 A 
HETATM    5  C   UNK N   1      28.374  21.235  -8.257  0.00  0.00     0.041 C 
HETATM    6  C   UNK N   1      27.067  20.453  -8.275  0.00  0.00     0.005 C 
HETATM    7  C   UNK N   1      25.878  21.366  -8.553  0.00  0.00     0.001 C 
HETATM    8  C   UNK N   1      25.473  22.150  -7.311  0.00  0.00     0.006 C 
HETATM    9  C   UNK N   1      26.413  23.320  -7.077  0.00  0.00     0.058 C 
HETATM   10  C   UNK N   1      27.684  22.900  -6.417  0.00  0.00     0.019 A 
HETATM   11  C   UNK N   1      30.644  20.932  -6.120  0.00  0.00     0.014 A 
HETATM   12  C   UNK N   1      31.538  20.921  -5.049  0.00  0.00     0.002 A 
HETATM   13  C   UNK N   1      31.359  21.803  -3.972  0.00  0.00     0.021 A 
HETATM   14  N   UNK N   1      28.151  23.324  -5.201  0.00  0.00    -0.344 N 
ENDROOT
BRANCH  14  15
HETATM   15  C   UNK N   1      27.426  24.128  -4.196  0.00  0.00     0.167 C 
BRANCH  15  16
HETATM   16  C   UNK N   1      26.756  25.433  -4.548  0.00  0.00    -0.039 A 
HETATM   17  C   UNK N   1      27.112  26.595  -3.846  0.00  0.00     0.026 A 
HETATM   18  C   UNK N   1      26.354  27.775  -3.983  0.00  0.00     0.032 A 
HETATM   19  C   UNK N   1      25.239  27.782  -4.831  0.00  0.00     0.017 A 
HETATM   20  C   UNK N   1      24.875  26.628  -5.522  0.00  0.00     0.002 A 
HETATM   21  C   UNK N   1      25.611  25.457  -5.350  0.00  0.00     0.009 A 
BRANCH  18  22
HETATM   22  C   UNK N   1      26.685  28.983  -3.197  0.00  0.00     0.249 C 
HETATM   23  O   UNK N   1      27.347  28.890  -2.176  0.00  0.00    -0.268 OA
HETATM   24  N   UNK N   1      26.230  30.193  -3.585  0.00  0.00    -0.366 N 
HETATM   25  H   UNK N   1      26.423  30.996  -3.048  0.00  0.00     0.159 HD
HETATM   26  H   UNK N   1      25.702  30.274  -4.412  0.00  0.00     0.159 HD
ENDBRANCH  18  22
ENDBRANCH  15  16
ENDBRANCH  14  15
BRANCH   1  27
HETATM   27  C   UNK N   1      30.261  23.647  -2.763  0.00  0.00     0.178 C 
HETATM   28  O   UNK N   1      30.454  24.838  -2.906  0.00  0.00    -0.646 OA
BRANCH  27  29
HETATM   29  O   UNK N   1      30.150  23.157  -1.510  0.00  0.00    -0.773 OA
HETATM   30  H   UNK N   1      30.651  22.412  -1.241  0.00  0.00     0.167 HD
ENDBRANCH  27  29
ENDBRANCH   1  27
TORSDOF 5
ENDMDL
MODEL 5
REMARK VINA RESULT:      -7.7     14.334     16.784
REMARK  5 active torsions:
REMARK  status: ('A' for Active; 'I' for Inactive)
REMARK    1  A    between atoms: C_2  and  O_1 
REMARK    2  A    between atoms: C_2  and  C_4 
REMARK    3  A    between atoms: C_18  and  N_17 
REMARK    4  A    between atoms: C_19  and  C_18 
REMARK    5  A    between atoms: C_22  and  C_21 
REMARK       I    between atoms: N_23  and  C_22 
ROOT
HETATM    1  C   UNK N   1      26.586  22.179  -7.573  0.00  0.00     0.065 A 
HETATM    2  C   UNK N   1      27.390  22.747  -6.528  0.00  0.00     0.063 A 
HETATM    3  C   UNK N   1      28.694  22.311  -6.369  0.00  0.00     0.000 A 
HETATM    4  C   UNK N   1      29.234  22.986  -5.307  0.00  0.00    -0.023 A 
HETATM    5  C   UNK N   1      30.628  22.848  -4.776  0.00  0.00     0.041 C 
HETATM    6  C   UNK N   1      31.376  24.173  -4.848  0.00  0.00     0.005 C 
HETATM    7  C   UNK N   1      30.962  25.106  -3.715  0.00  0.00     0.001 C 
HETATM    8  C   UNK N   1      29.619  25.768  -3.998  0.00  0.00     0.006 C 
HETATM    9  C   UNK N   1      28.473  24.809  -3.728  0.00  0.00     0.058 C 
HETATM   10  C   UNK N   1      28.257  23.854  -4.855  0.00  0.00     0.019 A 
HETATM   11  C   UNK N   1      29.298  21.377  -7.200  0.00  0.00     0.014 A 
HETATM   12  C   UNK N   1      28.547  20.853  -8.253  0.00  0.00     0.002 A 
HETATM   13  C   UNK N   1      27.208  21.240  -8.426  0.00  0.00     0.021 A 
HETATM   14  N   UNK N   1      27.122  23.726  -5.610  0.00  0.00    -0.344 N 
ENDROOT
BRANCH  14  15
HETATM   15  C   UNK N   1      25.944  24.618  -5.612  0.00  0.00     0.167 C 
BRANCH  15  16
HETATM   16  C   UNK N   1      26.077  26.119  -5.539  0.00  0.00    -0.039 A 
HETATM   17  C   UNK N   1      26.936  26.774  -6.434  0.00  0.00     0.026 A 
HETATM   18  C   UNK N   1      27.261  28.132  -6.251  0.00  0.00     0.032 A 
HETATM   19  C   UNK N   1      26.716  28.830  -5.165  0.00  0.00     0.017 A 
HETATM   20  C   UNK N   1      25.871  28.181  -4.267  0.00  0.00     0.002 A 
HETATM   21  C   UNK N   1      25.585  26.828  -4.439  0.00  0.00     0.009 A 
BRANCH  18  22
HETATM   22  C   UNK N   1      28.217  28.810  -7.153  0.00  0.00     0.249 C 
HETATM   23  O   UNK N   1      28.653  29.914  -6.870  0.00  0.00    -0.268 OA
HETATM   24  N   UNK N   1      28.590  28.227  -8.312  0.00  0.00    -0.366 N 
HETATM   25  H   UNK N   1      29.203  28.688  -8.929  0.00  0.00     0.159 HD
HETATM   26  H   UNK N   1      28.247  27.334  -8.542  0.00  0.00     0.159 HD
ENDBRANCH  18  22
ENDBRANCH  15  16
ENDBRANCH  14  15
BRANCH   1  27
HETATM   27  C   UNK N   1      25.136  22.422  -7.813  0.00  0.00     0.178 C 
HETATM   28  O   UNK N   1      24.747  23.282  -8.579  0.00  0.00    -0.646 OA
BRANCH  27  29
HETATM   29  O   UNK N   1      24.223  21.751  -7.079  0.00  0.00    -0.773 OA
HETATM   30  H   UNK N   1      24.194  21.849  -6.147  0.00  0.00     0.167 HD
ENDBRANCH  27  29
ENDBRANCH   1  27
TORSDOF 5
ENDMDL
MODEL 6
REMARK VINA RESULT:      -7.7      2.353      5.859
REMARK  5 active torsions:
REMARK  status: ('A' for Active; 'I' for Inactive)
REMARK    1  A    between atoms: C_2  and  O_1 
REMARK    2  A    between atoms: C_2  and  C_4 
REMARK    3  A    between atoms: C_18  and  N_17 
REMARK    4  A    between atoms: C_19  and  C_18 
REMARK    5  A    between atoms: C_22  and  C_21 
REMARK       I    between atoms: N_23  and  C_22 
ROOT
HETATM    1  C   UNK N   1      33.872  14.662   8.824  0.00  0.00     0.065 A 
HETATM    2  C   UNK N   1      33.735  15.299   7.545  0.00  0.00     0.063 A 
HETATM    3  C   UNK N   1      34.012  14.574   6.398  0.00  0.00     0.000 A 
HETATM    4  C   UNK N   1      33.826  15.403   5.325  0.00  0.00    -0.023 A 
HETATM    5  C   UNK N   1      33.997  15.046   3.880  0.00  0.00     0.041 C 
HETATM    6  C   UNK N   1      32.695  15.231   3.112  0.00  0.00     0.005 C 
HETATM    7  C   UNK N   1      32.444  16.700   2.791  0.00  0.00     0.001 C 
HETATM    8  C   UNK N   1      31.916  17.455   4.004  0.00  0.00     0.006 C 
HETATM    9  C   UNK N   1      33.041  17.781   4.972  0.00  0.00     0.058 C 
HETATM   10  C   UNK N   1      33.400  16.616   5.833  0.00  0.00     0.019 A 
HETATM   11  C   UNK N   1      34.376  13.234   6.407  0.00  0.00     0.014 A 
HETATM   12  C   UNK N   1      34.463  12.585   7.638  0.00  0.00     0.002 A 
HETATM   13  C   UNK N   1      34.227  13.294   8.827  0.00  0.00     0.021 A 
HETATM   14  N   UNK N   1      33.326  16.557   7.200  0.00  0.00    -0.344 N 
ENDROOT
BRANCH  14  15
HETATM   15  C   UNK N   1      32.701  17.545   8.104  0.00  0.00     0.167 C 
BRANCH  15  16
HETATM   16  C   UNK N   1      31.211  17.586   8.337  0.00  0.00    -0.039 A 
HETATM   17  C   UNK N   1      30.358  16.961   7.415  0.00  0.00     0.026 A 
HETATM   18  C   UNK N   1      28.966  17.171   7.471  0.00  0.00     0.032 A 
HETATM   19  C   UNK N   1      28.436  18.010   8.461  0.00  0.00     0.017 A 
HETATM   20  C   UNK N   1      29.280  18.640   9.372  0.00  0.00     0.002 A 
HETATM   21  C   UNK N   1      30.658  18.453   9.284  0.00  0.00     0.009 A 
BRANCH  18  22
HETATM   22  C   UNK N   1      28.068  16.569   6.463  0.00  0.00     0.249 C 
HETATM   23  O   UNK N   1      28.438  15.613   5.801  0.00  0.00    -0.268 OA
HETATM   24  N   UNK N   1      26.842  17.092   6.244  0.00  0.00    -0.366 N 
HETATM   25  H   UNK N   1      26.252  16.712   5.553  0.00  0.00     0.159 HD
HETATM   26  H   UNK N   1      26.535  17.858   6.780  0.00  0.00     0.159 HD
ENDBRANCH  18  22
ENDBRANCH  15  16
ENDBRANCH  14  15
BRANCH   1  27
HETATM   27  C   UNK N   1      33.748  15.309  10.160  0.00  0.00     0.178 C 
HETATM   28  O   UNK N   1      34.656  15.951  10.650  0.00  0.00    -0.646 OA
BRANCH  27  29
HETATM   29  O   UNK N   1      32.643  15.084  10.902  0.00  0.00    -0.773 OA
HETATM   30  H   UNK N   1      32.296  14.219  10.994  0.00  0.00     0.167 HD
ENDBRANCH  27  29
ENDBRANCH   1  27
TORSDOF 5
ENDMDL
MODEL 7
REMARK VINA RESULT:      -7.6      3.074      5.006
REMARK  5 active torsions:
REMARK  status: ('A' for Active; 'I' for Inactive)
REMARK    1  A    between atoms: C_2  and  O_1 
REMARK    2  A    between atoms: C_2  and  C_4 
REMARK    3  A    between atoms: C_18  and  N_17 
REMARK    4  A    between atoms: C_19  and  C_18 
REMARK    5  A    between atoms: C_22  and  C_21 
REMARK       I    between atoms: N_23  and  C_22 
ROOT
HETATM    1  C   UNK N   1      28.205  14.909   3.801  0.00  0.00     0.065 A 
HETATM    2  C   UNK N   1      28.029  16.295   4.129  0.00  0.00     0.063 A 
HETATM    3  C   UNK N   1      27.032  17.016   3.493  0.00  0.00     0.000 A 
HETATM    4  C   UNK N   1      27.083  18.302   3.962  0.00  0.00    -0.023 A 
HETATM    5  C   UNK N   1      26.185  19.433   3.565  0.00  0.00     0.041 C 
HETATM    6  C   UNK N   1      25.422  19.975   4.768  0.00  0.00     0.005 C 
HETATM    7  C   UNK N   1      26.303  20.881   5.621  0.00  0.00     0.001 C 
HETATM    8  C   UNK N   1      27.252  20.074   6.498  0.00  0.00     0.006 C 
HETATM    9  C   UNK N   1      28.432  19.560   5.692  0.00  0.00     0.058 C 
HETATM   10  C   UNK N   1      28.091  18.337   4.908  0.00  0.00     0.019 A 
HETATM   11  C   UNK N   1      26.148  16.461   2.578  0.00  0.00     0.014 A 
HETATM   12  C   UNK N   1      26.272  15.102   2.287  0.00  0.00     0.002 A 
HETATM   13  C   UNK N   1      27.293  14.344   2.881  0.00  0.00     0.021 A 
HETATM   14  N   UNK N   1      28.670  17.101   5.029  0.00  0.00    -0.344 N 
ENDROOT
BRANCH  14  15
HETATM   15  C   UNK N   1      29.610  16.655   6.077  0.00  0.00     0.167 C 
BRANCH  15  16
HETATM   16  C   UNK N   1      31.098  16.876   5.965  0.00  0.00    -0.039 A 
HETATM   17  C   UNK N   1      31.832  17.189   7.119  0.00  0.00     0.026 A 
HETATM   18  C   UNK N   1      33.168  17.625   7.022  0.00  0.00     0.032 A 
HETATM   19  C   UNK N   1      33.764  17.743   5.759  0.00  0.00     0.017 A 
HETATM   20  C   UNK N   1      33.036  17.442   4.610  0.00  0.00     0.002 A 
HETATM   21  C   UNK N   1      31.705  17.046   4.716  0.00  0.00     0.009 A 
BRANCH  18  22
HETATM   22  C   UNK N   1      33.925  18.019   8.229  0.00  0.00     0.249 C 
HETATM   23  O   UNK N   1      34.692  18.968   8.192  0.00  0.00    -0.268 OA
HETATM   24  N   UNK N   1      33.799  17.314   9.373  0.00  0.00    -0.366 N 
HETATM   25  H   UNK N   1      34.323  17.555  10.171  0.00  0.00     0.159 HD
HETATM   26  H   UNK N   1      33.176  16.552   9.410  0.00  0.00     0.159 HD
ENDBRANCH  18  22
ENDBRANCH  15  16
ENDBRANCH  14  15
BRANCH   1  27
HETATM   27  C   UNK N   1      29.295  14.012   4.277  0.00  0.00     0.178 C 
HETATM   28  O   UNK N   1      29.184  13.346   5.288  0.00  0.00    -0.646 OA
BRANCH  27  29
HETATM   29  O   UNK N   1      30.485  14.023   3.639  0.00  0.00    -0.773 OA
HETATM   30  H   UNK N   1      30.695  13.364   3.007  0.00  0.00     0.167 HD
ENDBRANCH  27  29
ENDBRANCH   1  27
TORSDOF 5
ENDMDL
MODEL 8
REMARK VINA RESULT:      -7.5      3.301      5.841
REMARK  5 active torsions:
REMARK  status: ('A' for Active; 'I' for Inactive)
REMARK    1  A    between atoms: C_2  and  O_1 
REMARK    2  A    between atoms: C_2  and  C_4 
REMARK    3  A    between atoms: C_18  and  N_17 
REMARK    4  A    between atoms: C_19  and  C_18 
REMARK    5  A    between atoms: C_22  and  C_21 
REMARK       I    between atoms: N_23  and  C_22 
ROOT
HETATM    1  C   UNK N   1      27.745  14.740   3.362  0.00  0.00     0.065 A 
HETATM    2  C   UNK N   1      27.582  16.150   3.573  0.00  0.00     0.063 A 
HETATM    3  C   UNK N   1      26.326  16.713   3.425  0.00  0.00     0.000 A 
HETATM    4  C   UNK N   1      26.440  18.057   3.659  0.00  0.00    -0.023 A 
HETATM    5  C   UNK N   1      25.334  19.067   3.624  0.00  0.00     0.041 C 
HETATM    6  C   UNK N   1      25.174  19.753   4.975  0.00  0.00     0.005 C 
HETATM    7  C   UNK N   1      26.239  20.824   5.182  0.00  0.00     0.001 C 
HETATM    8  C   UNK N   1      27.579  20.212   5.573  0.00  0.00     0.006 C 
HETATM    9  C   UNK N   1      28.287  19.636   4.359  0.00  0.00     0.058 C 
HETATM   10  C   UNK N   1      27.763  18.289   3.985  0.00  0.00     0.019 A 
HETATM   11  C   UNK N   1      25.186  15.978   3.126  0.00  0.00     0.014 A 
HETATM   12  C   UNK N   1      25.318  14.598   2.968  0.00  0.00     0.002 A 
HETATM   13  C   UNK N   1      26.580  13.993   3.072  0.00  0.00     0.021 A 
HETATM   14  N   UNK N   1      28.472  17.118   3.950  0.00  0.00    -0.344 N 
ENDROOT
BRANCH  14  15
HETATM   15  C   UNK N   1      29.843  16.888   4.451  0.00  0.00     0.167 C 
BRANCH  15  16
HETATM   16  C   UNK N   1      30.176  16.941   5.922  0.00  0.00    -0.039 A 
HETATM   17  C   UNK N   1      29.139  17.103   6.852  0.00  0.00     0.026 A 
HETATM   18  C   UNK N   1      29.426  17.386   8.202  0.00  0.00     0.032 A 
HETATM   19  C   UNK N   1      30.760  17.503   8.613  0.00  0.00     0.017 A 
HETATM   20  C   UNK N   1      31.793  17.352   7.691  0.00  0.00     0.002 A 
HETATM   21  C   UNK N   1      31.496  17.108   6.351  0.00  0.00     0.009 A 
BRANCH  18  22
HETATM   22  C   UNK N   1      28.337  17.624   9.174  0.00  0.00     0.249 C 
HETATM   23  O   UNK N   1      28.152  16.843  10.094  0.00  0.00    -0.268 OA
HETATM   24  N   UNK N   1      27.518  18.688   9.033  0.00  0.00    -0.366 N 
HETATM   25  H   UNK N   1      26.774  18.833   9.661  0.00  0.00     0.159 HD
HETATM   26  H   UNK N   1      27.667  19.325   8.297  0.00  0.00     0.159 HD
ENDBRANCH  18  22
ENDBRANCH  15  16
ENDBRANCH  14  15
BRANCH   1  27
HETATM   27  C   UNK N   1      29.028  13.984   3.346  0.00  0.00     0.178 C 
HETATM   28  O   UNK N   1      29.440  13.396   4.327  0.00  0.00    -0.646 OA
BRANCH  27  29
HETATM   29  O   UNK N   1      29.817  14.044   2.252  0.00  0.00    -0.773 OA
HETATM   30  H   UNK N   1      30.725  13.819   2.304  0.00  0.00     0.167 HD
ENDBRANCH  27  29
ENDBRANCH   1  27
TORSDOF 5
ENDMDL
MODEL 9
REMARK VINA RESULT:      -7.1      7.896     11.142
REMARK  5 active torsions:
REMARK  status: ('A' for Active; 'I' for Inactive)
REMARK    1  A    between atoms: C_2  and  O_1 
REMARK    2  A    between atoms: C_2  and  C_4 
REMARK    3  A    between atoms: C_18  and  N_17 
REMARK    4  A    between atoms: C_19  and  C_18 
REMARK    5  A    between atoms: C_22  and  C_21 
REMARK       I    between atoms: N_23  and  C_22 
ROOT
HETATM    1  C   UNK N   1      21.059  15.392   7.673  0.00  0.00     0.065 A 
HETATM    2  C   UNK N   1      22.237  15.658   6.897  0.00  0.00     0.063 A 
HETATM    3  C   UNK N   1      23.202  14.672   6.779  0.00  0.00     0.000 A 
HETATM    4  C   UNK N   1      24.221  15.174   6.014  0.00  0.00    -0.023 A 
HETATM    5  C   UNK N   1      25.473  14.458   5.612  0.00  0.00     0.041 C 
HETATM    6  C   UNK N   1      25.584  14.355   4.096  0.00  0.00     0.005 C 
HETATM    7  C   UNK N   1      26.056  15.669   3.484  0.00  0.00     0.001 C 
HETATM    8  C   UNK N   1      24.926  16.687   3.403  0.00  0.00     0.006 C 
HETATM    9  C   UNK N   1      24.669  17.323   4.759  0.00  0.00     0.058 C 
HETATM   10  C   UNK N   1      23.842  16.452   5.644  0.00  0.00     0.019 A 
HETATM   11  C   UNK N   1      23.079  13.406   7.336  0.00  0.00     0.014 A 
HETATM   12  C   UNK N   1      21.916  13.114   8.049  0.00  0.00     0.002 A 
HETATM   13  C   UNK N   1      20.930  14.097   8.225  0.00  0.00     0.021 A 
HETATM   14  N   UNK N   1      22.614  16.753   6.171  0.00  0.00    -0.344 N 
ENDROOT
BRANCH  14  15
HETATM   15  C   UNK N   1      21.756  17.907   5.832  0.00  0.00     0.167 C 
BRANCH  15  16
HETATM   16  C   UNK N   1      21.109  18.052   4.476  0.00  0.00    -0.039 A 
HETATM   17  C   UNK N   1      20.878  16.904   3.703  0.00  0.00     0.026 A 
HETATM   18  C   UNK N   1      20.493  17.016   2.352  0.00  0.00     0.032 A 
HETATM   19  C   UNK N   1      20.339  18.287   1.784  0.00  0.00     0.017 A 
HETATM   20  C   UNK N   1      20.576  19.430   2.545  0.00  0.00     0.002 A 
HETATM   21  C   UNK N   1      20.991  19.306   3.869  0.00  0.00     0.009 A 
BRANCH  18  22
HETATM   22  C   UNK N   1      20.313  15.812   1.514  0.00  0.00     0.249 C 
HETATM   23  O   UNK N   1      21.160  15.501   0.692  0.00  0.00    -0.268 OA
HETATM   24  N   UNK N   1      19.195  15.064   1.628  0.00  0.00    -0.366 N 
HETATM   25  H   UNK N   1      19.057  14.278   1.052  0.00  0.00     0.159 HD
HETATM   26  H   UNK N   1      18.511  15.306   2.294  0.00  0.00     0.159 HD
ENDBRANCH  18  22
ENDBRANCH  15  16
ENDBRANCH  14  15
BRANCH   1  27
HETATM   27  C   UNK N   1      19.983  16.362   8.021  0.00  0.00     0.178 C 
HETATM   28  O   UNK N   1      18.895  16.335   7.481  0.00  0.00    -0.646 OA
BRANCH  27  29
HETATM   29  O   UNK N   1      20.256  17.373   8.873  0.00  0.00    -0.773 OA
HETATM   30  H   UNK N   1      19.663  17.588   9.565  0.00  0.00     0.167 HD
ENDBRANCH  27  29
ENDBRANCH   1  27
TORSDOF 5
ENDMDL
