MODEL 1
REMARK VINA RESULT:      -7.7      0.000      0.000
REMARK  10 active torsions:
REMARK  status: ('A' for Active; 'I' for Inactive)
REMARK       I    between atoms: C_1  and  N_17 
REMARK       I    between atoms: N_18  and  C_1 
REMARK    1  A    between atoms: O_2  and  N_18 
REMARK    2  A    between atoms: C_19  and  O_2 
REMARK    3  A    between atoms: C_3  and  N_20 
REMARK    4  A    between atoms: C_3  and  C_19 
REMARK    5  A    between atoms: C_4  and  C_5 
REMARK       I    between atoms: C_4  and  N_20 
REMARK    6  A    between atoms: C_5  and  C_6 
REMARK    7  A    between atoms: C_8  and  N_25 
REMARK    8  A    between atoms: C_11  and  C_12 
REMARK    9  A    between atoms: N_25  and  C_11 
REMARK   10  A    between atoms: C_26  and  C_12 
ROOT
HETATM    1  C   UNK N   1      26.100  18.541   4.463  0.00  0.00     0.013 A 
HETATM    2  C   UNK N   1      26.762  18.122   5.637  0.00  0.00     0.151 A 
HETATM    3  C   UNK N   1      27.582  19.022   6.351  0.00  0.00     0.068 A 
HETATM    4  C   UNK N   1      27.734  20.328   5.878  0.00  0.00     0.034 A 
HETATM    5  C   UNK N   1      27.084  20.748   4.718  0.00  0.00     0.027 A 
HETATM    6  C   UNK N   1      26.265  19.869   4.009  0.00  0.00     0.043 A 
HETATM    7 Cl   UNK N   1      25.428  20.482   2.587  0.00  0.00    -0.084 Cl
HETATM    8  F   UNK N   1      26.585  16.851   6.080  0.00  0.00    -0.203 F 
ENDROOT
BRANCH   1   9
HETATM    9  C   UNK N   1      25.173  17.573   3.773  0.00  0.00     0.146 C 
BRANCH   9  10
HETATM   10  C   UNK N   1      23.730  17.570   4.199  0.00  0.00     0.222 C 
HETATM   11  N   UNK N   1      22.864  16.763   3.538  0.00  0.00    -0.359 N 
HETATM   12  H   UNK N   1      23.199  16.231   2.780  0.00  0.00     0.162 HD
HETATM   13  O   UNK N   1      23.350  18.247   5.144  0.00  0.00    -0.273 OA
BRANCH  11  14
HETATM   14  C   UNK N   1      21.471  16.647   3.901  0.00  0.00     0.151 C 
BRANCH  14  15
HETATM   15  C   UNK N   1      20.606  17.299   2.837  0.00  0.00     0.221 C 
BRANCH  15  16
HETATM   16  O   UNK N   1      20.679  18.686   2.963  0.00  0.00    -0.265 OA
BRANCH  16  17
HETATM   17  N   UNK N   1      20.523  19.154   1.720  0.00  0.00    -0.097 N 
HETATM   18  C   UNK N   1      20.646  20.537   1.453  0.00  0.00     0.689 C 
HETATM   19  N   UNK N   1      20.976  21.435   2.496  0.00  0.00    -0.233 N 
HETATM   20  N   UNK N   1      20.455  20.979   0.270  0.00  0.00    -0.233 N 
HETATM   21  H   UNK N   1      21.110  22.390   2.300  0.00  0.00     0.174 HD
HETATM   22  H   UNK N   1      21.070  21.103   3.419  0.00  0.00     0.174 HD
HETATM   23  H   UNK N   1      20.194  20.363  -0.452  0.00  0.00     0.174 HD
ATOM     24  HN  UNK N   1      20.572  21.973   0.073  1.00  0.00     0.174 HD
HETATM   25  H   UNK N   1      20.323  18.530   0.985  0.00  0.00     0.213 HD
ENDBRANCH  16  17
ENDBRANCH  15  16
ENDBRANCH  14  15
ENDBRANCH  11  14
ENDBRANCH   9  10
ENDBRANCH   1   9
BRANCH   3  26
HETATM   26  N   UNK N   1      28.249  18.668   7.560  0.00  0.00    -0.381 N 
HETATM   27  H   UNK N   1      28.243  19.334   8.285  0.00  0.00     0.160 HD
BRANCH  26  28
HETATM   28  C   UNK N   1      28.934  17.417   7.820  0.00  0.00     0.204 C 
BRANCH  28  29
HETATM   29  C   UNK N   1      30.241  17.651   8.591  0.00  0.00     0.286 C 
HETATM   30  F   UNK N   1      30.210  18.894   9.207  0.00  0.00    -0.199 F 
HETATM   31  F   UNK N   1      30.355  16.687   9.577  0.00  0.00    -0.199 F 
BRANCH  29  32
HETATM   32  C   UNK N   1      31.446  17.577   7.681  0.00  0.00     0.015 A 
HETATM   33  C   UNK N   1      31.330  17.089   6.370  0.00  0.00     0.013 A 
HETATM   34  C   UNK N   1      32.465  16.980   5.555  0.00  0.00     0.001 A 
HETATM   35  C   UNK N   1      33.717  17.372   6.038  0.00  0.00     0.000 A 
HETATM   36  C   UNK N   1      33.839  17.870   7.337  0.00  0.00     0.001 A 
HETATM   37  C   UNK N   1      32.711  17.963   8.157  0.00  0.00     0.013 A 
ENDBRANCH  29  32
ENDBRANCH  28  29
ENDBRANCH  26  28
ENDBRANCH   3  26
TORSDOF 10
ENDMDL
MODEL 2
REMARK VINA RESULT:      -7.5      1.144      1.402
REMARK  10 active torsions:
REMARK  status: ('A' for Active; 'I' for Inactive)
REMARK       I    between atoms: C_1  and  N_17 
REMARK       I    between atoms: N_18  and  C_1 
REMARK    1  A    between atoms: O_2  and  N_18 
REMARK    2  A    between atoms: C_19  and  O_2 
REMARK    3  A    between atoms: C_3  and  N_20 
REMARK    4  A    between atoms: C_3  and  C_19 
REMARK    5  A    between atoms: C_4  and  C_5 
REMARK       I    between atoms: C_4  and  N_20 
REMARK    6  A    between atoms: C_5  and  C_6 
REMARK    7  A    between atoms: C_8  and  N_25 
REMARK    8  A    between atoms: C_11  and  C_12 
REMARK    9  A    between atoms: N_25  and  C_11 
REMARK   10  A    between atoms: C_26  and  C_12 
ROOT
HETATM    1  C   UNK N   1      25.623  18.426   4.192  0.00  0.00     0.013 A 
HETATM    2  C   UNK N   1      26.244  17.828   5.310  0.00  0.00     0.151 A 
HETATM    3  C   UNK N   1      27.208  18.542   6.055  0.00  0.00     0.068 A 
HETATM    4  C   UNK N   1      27.543  19.842   5.667  0.00  0.00     0.034 A 
HETATM    5  C   UNK N   1      26.935  20.437   4.562  0.00  0.00     0.027 A 
HETATM    6  C   UNK N   1      25.975  19.743   3.824  0.00  0.00     0.043 A 
HETATM    7 Cl   UNK N   1      25.206  20.576   2.478  0.00  0.00    -0.084 Cl
HETATM    8  F   UNK N   1      25.888  16.569   5.672  0.00  0.00    -0.203 F 
ENDROOT
BRANCH   1   9
HETATM    9  C   UNK N   1      24.544  17.659   3.471  0.00  0.00     0.146 C 
BRANCH   9  10
HETATM   10  C   UNK N   1      23.120  17.909   3.885  0.00  0.00     0.222 C 
HETATM   11  N   UNK N   1      22.222  16.902   3.750  0.00  0.00    -0.359 N 
HETATM   12  H   UNK N   1      22.522  16.052   3.355  0.00  0.00     0.162 HD
HETATM   13  O   UNK N   1      22.783  18.981   4.369  0.00  0.00    -0.273 OA
BRANCH  11  14
HETATM   14  C   UNK N   1      20.844  17.023   4.165  0.00  0.00     0.151 C 
BRANCH  14  15
HETATM   15  C   UNK N   1      19.986  17.440   2.985  0.00  0.00     0.221 C 
BRANCH  15  16
HETATM   16  O   UNK N   1      19.679  18.796   3.089  0.00  0.00    -0.265 OA
BRANCH  16  17
HETATM   17  N   UNK N   1      19.779  19.269   1.842  0.00  0.00    -0.097 N 
HETATM   18  C   UNK N   1      20.552  20.422   1.572  0.00  0.00     0.689 C 
HETATM   19  N   UNK N   1      21.259  21.063   2.616  0.00  0.00    -0.233 N 
HETATM   20  N   UNK N   1      20.609  20.890   0.385  0.00  0.00    -0.233 N 
HETATM   21  H   UNK N   1      21.837  21.836   2.419  0.00  0.00     0.174 HD
HETATM   22  H   UNK N   1      21.173  20.736   3.542  0.00  0.00     0.174 HD
HETATM   23  H   UNK N   1      20.093  20.467  -0.338  0.00  0.00     0.174 HD
ATOM     24  HN  UNK N   1      21.190  21.705   0.186  1.00  0.00     0.174 HD
HETATM   25  H   UNK N   1      19.313  18.810   1.107  0.00  0.00     0.213 HD
ENDBRANCH  16  17
ENDBRANCH  15  16
ENDBRANCH  14  15
ENDBRANCH  11  14
ENDBRANCH   9  10
ENDBRANCH   1   9
BRANCH   3  26
HETATM   26  N   UNK N   1      27.843  18.006   7.212  0.00  0.00    -0.381 N 
HETATM   27  H   UNK N   1      27.273  17.520   7.851  0.00  0.00     0.160 HD
BRANCH  26  28
HETATM   28  C   UNK N   1      29.253  18.110   7.535  0.00  0.00     0.204 C 
BRANCH  28  29
HETATM   29  C   UNK N   1      30.103  17.251   6.588  0.00  0.00     0.286 C 
HETATM   30  F   UNK N   1      29.725  15.920   6.691  0.00  0.00    -0.199 F 
HETATM   31  F   UNK N   1      29.873  17.662   5.287  0.00  0.00    -0.199 F 
BRANCH  29  32
HETATM   32  C   UNK N   1      31.578  17.374   6.896  0.00  0.00     0.015 A 
HETATM   33  C   UNK N   1      32.541  17.209   5.887  0.00  0.00     0.013 A 
HETATM   34  C   UNK N   1      33.905  17.277   6.197  0.00  0.00     0.001 A 
HETATM   35  C   UNK N   1      34.317  17.525   7.510  0.00  0.00     0.000 A 
HETATM   36  C   UNK N   1      33.366  17.703   8.517  0.00  0.00     0.001 A 
HETATM   37  C   UNK N   1      32.004  17.618   8.213  0.00  0.00     0.013 A 
ENDBRANCH  29  32
ENDBRANCH  28  29
ENDBRANCH  26  28
ENDBRANCH   3  26
TORSDOF 10
ENDMDL
MODEL 3
REMARK VINA RESULT:      -7.5      8.239     11.649
REMARK  10 active torsions:
REMARK  status: ('A' for Active; 'I' for Inactive)
REMARK       I    between atoms: C_1  and  N_17 
REMARK       I    between atoms: N_18  and  C_1 
REMARK    1  A    between atoms: O_2  and  N_18 
REMARK    2  A    between atoms: C_19  and  O_2 
REMARK    3  A    between atoms: C_3  and  N_20 
REMARK    4  A    between atoms: C_3  and  C_19 
REMARK    5  A    between atoms: C_4  and  C_5 
REMARK       I    between atoms: C_4  and  N_20 
REMARK    6  A    between atoms: C_5  and  C_6 
REMARK    7  A    between atoms: C_8  and  N_25 
REMARK    8  A    between atoms: C_11  and  C_12 
REMARK    9  A    between atoms: N_25  and  C_11 
REMARK   10  A    between atoms: C_26  and  C_12 
ROOT
HETATM    1  C   UNK N   1      35.007  13.980  10.404  0.00  0.00     0.013 A 
HETATM    2  C   UNK N   1      34.870  12.714  11.013  0.00  0.00     0.151 A 
HETATM    3  C   UNK N   1      35.147  12.553  12.388  0.00  0.00     0.068 A 
HETATM    4  C   UNK N   1      35.564  13.660  13.133  0.00  0.00     0.034 A 
HETATM    5  C   UNK N   1      35.704  14.912  12.536  0.00  0.00     0.027 A 
HETATM    6  C   UNK N   1      35.425  15.084  11.180  0.00  0.00     0.043 A 
HETATM    7 Cl   UNK N   1      35.565  16.703  10.505  0.00  0.00    -0.084 Cl
HETATM    8  F   UNK N   1      34.449  11.661  10.267  0.00  0.00    -0.203 F 
ENDROOT
BRANCH   1   9
HETATM    9  C   UNK N   1      34.627  14.125   8.952  0.00  0.00     0.146 C 
BRANCH   9  10
HETATM   10  C   UNK N   1      33.218  14.553   8.642  0.00  0.00     0.222 C 
HETATM   11  N   UNK N   1      33.017  15.796   8.141  0.00  0.00    -0.359 N 
HETATM   12  H   UNK N   1      33.793  16.391   8.027  0.00  0.00     0.162 HD
HETATM   13  O   UNK N   1      32.278  13.787   8.800  0.00  0.00    -0.273 OA
BRANCH  11  14
HETATM   14  C   UNK N   1      31.712  16.284   7.762  0.00  0.00     0.151 C 
BRANCH  14  15
HETATM   15  C   UNK N   1      31.447  17.620   8.434  0.00  0.00     0.221 C 
BRANCH  15  16
HETATM   16  O   UNK N   1      30.301  17.525   9.224  0.00  0.00    -0.265 OA
BRANCH  16  17
HETATM   17  N   UNK N   1      29.539  18.559   8.850  0.00  0.00    -0.097 N 
HETATM   18  C   UNK N   1      28.146  18.395   8.671  0.00  0.00     0.689 C 
HETATM   19  N   UNK N   1      27.540  17.142   8.926  0.00  0.00    -0.233 N 
HETATM   20  N   UNK N   1      27.432  19.378   8.275  0.00  0.00    -0.233 N 
HETATM   21  H   UNK N   1      26.563  17.041   8.849  0.00  0.00     0.174 HD
HETATM   22  H   UNK N   1      28.096  16.369   9.179  0.00  0.00     0.174 HD
HETATM   23  H   UNK N   1      27.854  20.242   8.066  0.00  0.00     0.174 HD
ATOM     24  HN  UNK N   1      26.423  19.266   8.175  1.00  0.00     0.174 HD
HETATM   25  H   UNK N   1      29.951  19.440   8.700  0.00  0.00     0.213 HD
ENDBRANCH  16  17
ENDBRANCH  15  16
ENDBRANCH  14  15
ENDBRANCH  11  14
ENDBRANCH   9  10
ENDBRANCH   1   9
BRANCH   3  26
HETATM   26  N   UNK N   1      34.994  11.310  13.068  0.00  0.00    -0.381 N 
HETATM   27  H   UNK N   1      34.357  10.666  12.684  0.00  0.00     0.160 HD
BRANCH  26  28
HETATM   28  C   UNK N   1      35.693  10.906  14.273  0.00  0.00     0.204 C 
BRANCH  28  29
HETATM   29  C   UNK N   1      34.707  10.558  15.396  0.00  0.00     0.286 C 
HETATM   30  F   UNK N   1      33.404  10.756  14.958  0.00  0.00    -0.199 F 
HETATM   31  F   UNK N   1      34.851   9.220  15.717  0.00  0.00    -0.199 F 
BRANCH  29  32
HETATM   32  C   UNK N   1      34.949  11.395  16.631  0.00  0.00     0.015 A 
HETATM   33  C   UNK N   1      35.184  10.791  17.876  0.00  0.00     0.013 A 
HETATM   34  C   UNK N   1      35.358  11.579  19.021  0.00  0.00     0.001 A 
HETATM   35  C   UNK N   1      35.313  12.974  18.928  0.00  0.00     0.000 A 
HETATM   36  C   UNK N   1      35.091  13.583  17.691  0.00  0.00     0.001 A 
HETATM   37  C   UNK N   1      34.901  12.798  16.551  0.00  0.00     0.013 A 
ENDBRANCH  29  32
ENDBRANCH  28  29
ENDBRANCH  26  28
ENDBRANCH   3  26
TORSDOF 10
ENDMDL
MODEL 4
REMARK VINA RESULT:      -7.4      8.420     12.428
REMARK  10 active torsions:
REMARK  status: ('A' for Active; 'I' for Inactive)
REMARK       I    between atoms: C_1  and  N_17 
REMARK       I    between atoms: N_18  and  C_1 
REMARK    1  A    between atoms: O_2  and  N_18 
REMARK    2  A    between atoms: C_19  and  O_2 
REMARK    3  A    between atoms: C_3  and  N_20 
REMARK    4  A    between atoms: C_3  and  C_19 
REMARK    5  A    between atoms: C_4  and  C_5 
REMARK       I    between atoms: C_4  and  N_20 
REMARK    6  A    between atoms: C_5  and  C_6 
REMARK    7  A    between atoms: C_8  and  N_25 
REMARK    8  A    between atoms: C_11  and  C_12 
REMARK    9  A    between atoms: N_25  and  C_11 
REMARK   10  A    between atoms: C_26  and  C_12 
ROOT
HETATM    1  C   UNK N   1      35.675  13.126   9.864  0.00  0.00     0.013 A 
HETATM    2  C   UNK N   1      35.731  13.158  11.274  0.00  0.00     0.151 A 
HETATM    3  C   UNK N   1      36.950  12.911  11.943  0.00  0.00     0.068 A 
HETATM    4  C   UNK N   1      38.094  12.628  11.193  0.00  0.00     0.034 A 
HETATM    5  C   UNK N   1      38.044  12.592   9.799  0.00  0.00     0.027 A 
HETATM    6  C   UNK N   1      36.848  12.843   9.128  0.00  0.00     0.043 A 
HETATM    7 Cl   UNK N   1      36.870  12.841   7.368  0.00  0.00    -0.084 Cl
HETATM    8  F   UNK N   1      34.607  13.449  11.975  0.00  0.00    -0.203 F 
ENDROOT
BRANCH   1   9
HETATM    9  C   UNK N   1      34.374  13.471   9.186  0.00  0.00     0.146 C 
BRANCH   9  10
HETATM   10  C   UNK N   1      33.872  14.883   9.325  0.00  0.00     0.222 C 
HETATM   11  N   UNK N   1      34.723  15.901   9.046  0.00  0.00    -0.359 N 
HETATM   12  H   UNK N   1      35.650  15.685   8.795  0.00  0.00     0.162 HD
HETATM   13  O   UNK N   1      32.713  15.112   9.643  0.00  0.00    -0.273 OA
BRANCH  11  14
HETATM   14  C   UNK N   1      34.326  17.288   9.098  0.00  0.00     0.151 C 
BRANCH  14  15
HETATM   15  C   UNK N   1      34.087  17.809   7.691  0.00  0.00     0.221 C 
BRANCH  15  16
HETATM   16  O   UNK N   1      32.719  17.816   7.424  0.00  0.00    -0.265 OA
BRANCH  16  17
HETATM   17  N   UNK N   1      32.137  18.016   8.610  0.00  0.00    -0.097 N 
HETATM   18  C   UNK N   1      30.729  17.960   8.738  0.00  0.00     0.689 C 
HETATM   19  N   UNK N   1      29.927  17.651   7.615  0.00  0.00    -0.233 N 
HETATM   20  N   UNK N   1      30.180  18.193   9.868  0.00  0.00    -0.233 N 
HETATM   21  H   UNK N   1      28.951  17.563   7.715  0.00  0.00     0.174 HD
HETATM   22  H   UNK N   1      30.344  17.524   6.732  0.00  0.00     0.174 HD
HETATM   23  H   UNK N   1      30.732  18.440  10.644  0.00  0.00     0.174 HD
ATOM     24  HN  UNK N   1      29.167  18.124   9.965  1.00  0.00     0.174 HD
HETATM   25  H   UNK N   1      32.692  18.203   9.401  0.00  0.00     0.213 HD
ENDBRANCH  16  17
ENDBRANCH  15  16
ENDBRANCH  14  15
ENDBRANCH  11  14
ENDBRANCH   9  10
ENDBRANCH   1   9
BRANCH   3  26
HETATM   26  N   UNK N   1      37.077  12.962  13.361  0.00  0.00    -0.381 N 
HETATM   27  H   UNK N   1      37.553  13.736  13.739  0.00  0.00     0.160 HD
BRANCH  26  28
HETATM   28  C   UNK N   1      36.570  11.980  14.299  0.00  0.00     0.204 C 
BRANCH  28  29
HETATM   29  C   UNK N   1      35.311  12.492  15.012  0.00  0.00     0.286 C 
HETATM   30  F   UNK N   1      35.137  13.844  14.750  0.00  0.00    -0.199 F 
HETATM   31  F   UNK N   1      34.211  11.816  14.515  0.00  0.00    -0.199 F 
BRANCH  29  32
HETATM   32  C   UNK N   1      35.391  12.282  16.506  0.00  0.00     0.015 A 
HETATM   33  C   UNK N   1      35.695  11.020  17.041  0.00  0.00     0.013 A 
HETATM   34  C   UNK N   1      35.716  10.829  18.429  0.00  0.00     0.001 A 
HETATM   35  C   UNK N   1      35.451  11.898  19.290  0.00  0.00     0.000 A 
HETATM   36  C   UNK N   1      35.160  13.159  18.767  0.00  0.00     0.001 A 
HETATM   37  C   UNK N   1      35.121  13.348  17.382  0.00  0.00     0.013 A 
ENDBRANCH  29  32
ENDBRANCH  28  29
ENDBRANCH  26  28
ENDBRANCH   3  26
TORSDOF 10
ENDMDL
MODEL 5
REMARK VINA RESULT:      -7.3      2.556      3.358
REMARK  10 active torsions:
REMARK  status: ('A' for Active; 'I' for Inactive)
REMARK       I    between atoms: C_1  and  N_17 
REMARK       I    between atoms: N_18  and  C_1 
REMARK    1  A    between atoms: O_2  and  N_18 
REMARK    2  A    between atoms: C_19  and  O_2 
REMARK    3  A    between atoms: C_3  and  N_20 
REMARK    4  A    between atoms: C_3  and  C_19 
REMARK    5  A    between atoms: C_4  and  C_5 
REMARK       I    between atoms: C_4  and  N_20 
REMARK    6  A    between atoms: C_5  and  C_6 
REMARK    7  A    between atoms: C_8  and  N_25 
REMARK    8  A    between atoms: C_11  and  C_12 
REMARK    9  A    between atoms: N_25  and  C_11 
REMARK   10  A    between atoms: C_26  and  C_12 
ROOT
HETATM    1  C   UNK N   1      27.415  19.640   4.640  0.00  0.00     0.013 A 
HETATM    2  C   UNK N   1      27.939  18.338   4.495  0.00  0.00     0.151 A 
HETATM    3  C   UNK N   1      28.385  17.621   5.627  0.00  0.00     0.068 A 
HETATM    4  C   UNK N   1      28.308  18.220   6.887  0.00  0.00     0.034 A 
HETATM    5  C   UNK N   1      27.794  19.508   7.035  0.00  0.00     0.027 A 
HETATM    6  C   UNK N   1      27.343  20.222   5.925  0.00  0.00     0.043 A 
HETATM    7 Cl   UNK N   1      26.651  21.818   6.192  0.00  0.00    -0.084 Cl
HETATM    8  F   UNK N   1      27.988  17.776   3.260  0.00  0.00    -0.203 F 
ENDROOT
BRANCH   1   9
HETATM    9  C   UNK N   1      26.878  20.341   3.418  0.00  0.00     0.146 C 
BRANCH   9  10
HETATM   10  C   UNK N   1      25.403  20.224   3.142  0.00  0.00     0.222 C 
HETATM   11  N   UNK N   1      24.673  19.363   3.892  0.00  0.00    -0.359 N 
HETATM   12  H   UNK N   1      25.135  18.818   4.569  0.00  0.00     0.162 HD
HETATM   13  O   UNK N   1      24.865  20.916   2.290  0.00  0.00    -0.273 OA
BRANCH  11  14
HETATM   14  C   UNK N   1      23.244  19.214   3.743  0.00  0.00     0.151 C 
BRANCH  14  15
HETATM   15  C   UNK N   1      22.763  18.024   4.553  0.00  0.00     0.221 C 
BRANCH  15  16
HETATM   16  O   UNK N   1      21.982  17.197   3.747  0.00  0.00    -0.265 OA
BRANCH  16  17
HETATM   17  N   UNK N   1      21.152  18.026   3.104  0.00  0.00    -0.097 N 
HETATM   18  C   UNK N   1      19.757  17.798   3.118  0.00  0.00     0.689 C 
HETATM   19  N   UNK N   1      19.223  16.710   3.848  0.00  0.00    -0.233 N 
HETATM   20  N   UNK N   1      18.976  18.572   2.468  0.00  0.00    -0.233 N 
HETATM   21  H   UNK N   1      18.248  16.581   3.899  0.00  0.00     0.174 HD
HETATM   22  H   UNK N   1      19.827  16.081   4.306  0.00  0.00     0.174 HD
HETATM   23  H   UNK N   1      19.346  19.310   1.932  0.00  0.00     0.174 HD
ATOM     24  HN  UNK N   1      17.967  18.424   2.502  1.00  0.00     0.174 HD
HETATM   25  H   UNK N   1      21.516  18.801   2.619  0.00  0.00     0.213 HD
ENDBRANCH  16  17
ENDBRANCH  15  16
ENDBRANCH  14  15
ENDBRANCH  11  14
ENDBRANCH   9  10
ENDBRANCH   1   9
BRANCH   3  26
HETATM   26  N   UNK N   1      28.891  16.291   5.550  0.00  0.00    -0.381 N 
HETATM   27  H   UNK N   1      28.542  15.641   6.201  0.00  0.00     0.160 HD
BRANCH  26  28
HETATM   28  C   UNK N   1      29.873  15.807   4.598  0.00  0.00     0.204 C 
BRANCH  28  29
HETATM   29  C   UNK N   1      31.256  16.415   4.870  0.00  0.00     0.286 C 
HETATM   30  F   UNK N   1      32.195  15.852   4.018  0.00  0.00    -0.199 F 
HETATM   31  F   UNK N   1      31.203  17.774   4.612  0.00  0.00    -0.199 F 
BRANCH  29  32
HETATM   32  C   UNK N   1      31.689  16.198   6.302  0.00  0.00     0.015 A 
HETATM   33  C   UNK N   1      31.956  17.287   7.147  0.00  0.00     0.013 A 
HETATM   34  C   UNK N   1      32.405  17.070   8.457  0.00  0.00     0.001 A 
HETATM   35  C   UNK N   1      32.575  15.767   8.934  0.00  0.00     0.000 A 
HETATM   36  C   UNK N   1      32.301  14.678   8.104  0.00  0.00     0.001 A 
HETATM   37  C   UNK N   1      31.869  14.893   6.792  0.00  0.00     0.013 A 
ENDBRANCH  29  32
ENDBRANCH  28  29
ENDBRANCH  26  28
ENDBRANCH   3  26
TORSDOF 10
ENDMDL
MODEL 6
REMARK VINA RESULT:      -7.2      4.484      7.830
REMARK  10 active torsions:
REMARK  status: ('A' for Active; 'I' for Inactive)
REMARK       I    between atoms: C_1  and  N_17 
REMARK       I    between atoms: N_18  and  C_1 
REMARK    1  A    between atoms: O_2  and  N_18 
REMARK    2  A    between atoms: C_19  and  O_2 
REMARK    3  A    between atoms: C_3  and  N_20 
REMARK    4  A    between atoms: C_3  and  C_19 
REMARK    5  A    between atoms: C_4  and  C_5 
REMARK       I    between atoms: C_4  and  N_20 
REMARK    6  A    between atoms: C_5  and  C_6 
REMARK    7  A    between atoms: C_8  and  N_25 
REMARK    8  A    between atoms: C_11  and  C_12 
REMARK    9  A    between atoms: N_25  and  C_11 
REMARK   10  A    between atoms: C_26  and  C_12 
ROOT
HETATM    1  C   UNK N   1      20.980  17.873   3.939  0.00  0.00     0.013 A 
HETATM    2  C   UNK N   1      21.394  17.589   5.258  0.00  0.00     0.151 A 
HETATM    3  C   UNK N   1      21.714  16.266   5.635  0.00  0.00     0.068 A 
HETATM    4  C   UNK N   1      21.607  15.244   4.688  0.00  0.00     0.034 A 
HETATM    5  C   UNK N   1      21.195  15.517   3.384  0.00  0.00     0.027 A 
HETATM    6  C   UNK N   1      20.885  16.822   3.000  0.00  0.00     0.043 A 
HETATM    7 Cl   UNK N   1      20.431  17.104   1.323  0.00  0.00    -0.084 Cl
HETATM    8  F   UNK N   1      21.502  18.605   6.152  0.00  0.00    -0.203 F 
ENDROOT
BRANCH   1   9
HETATM    9  C   UNK N   1      20.723  19.308   3.557  0.00  0.00     0.146 C 
BRANCH   9  10
HETATM   10  C   UNK N   1      21.909  20.143   3.158  0.00  0.00     0.222 C 
HETATM   11  N   UNK N   1      23.151  19.668   3.423  0.00  0.00    -0.359 N 
HETATM   12  H   UNK N   1      23.237  18.810   3.897  0.00  0.00     0.162 HD
HETATM   13  O   UNK N   1      21.763  21.207   2.574  0.00  0.00    -0.273 OA
BRANCH  11  14
HETATM   14  C   UNK N   1      24.354  20.367   3.035  0.00  0.00     0.151 C 
BRANCH  14  15
HETATM   15  C   UNK N   1      25.570  19.519   3.363  0.00  0.00     0.221 C 
BRANCH  15  16
HETATM   16  O   UNK N   1      26.584  20.335   3.865  0.00  0.00    -0.265 OA
BRANCH  16  17
HETATM   17  N   UNK N   1      26.119  20.780   5.037  0.00  0.00    -0.097 N 
HETATM   18  C   UNK N   1      26.745  20.403   6.248  0.00  0.00     0.689 C 
HETATM   19  N   UNK N   1      27.896  19.580   6.225  0.00  0.00    -0.233 N 
HETATM   20  N   UNK N   1      26.269  20.800   7.365  0.00  0.00    -0.233 N 
HETATM   21  H   UNK N   1      28.361  19.359   7.065  0.00  0.00     0.174 HD
HETATM   22  H   UNK N   1      28.233  19.229   5.369  0.00  0.00     0.174 HD
HETATM   23  H   UNK N   1      25.450  21.345   7.386  0.00  0.00     0.174 HD
ATOM     24  HN  UNK N   1      26.738  20.551   8.235  1.00  0.00     0.174 HD
HETATM   25  H   UNK N   1      25.336  21.376   5.057  0.00  0.00     0.213 HD
ENDBRANCH  16  17
ENDBRANCH  15  16
ENDBRANCH  14  15
ENDBRANCH  11  14
ENDBRANCH   9  10
ENDBRANCH   1   9
BRANCH   3  26
HETATM   26  N   UNK N   1      22.170  15.923   6.940  0.00  0.00    -0.381 N 
HETATM   27  H   UNK N   1      22.792  16.549   7.376  0.00  0.00     0.160 HD
BRANCH  26  28
HETATM   28  C   UNK N   1      21.803  14.735   7.686  0.00  0.00     0.204 C 
BRANCH  28  29
HETATM   29  C   UNK N   1      22.975  13.748   7.771  0.00  0.00     0.286 C 
HETATM   30  F   UNK N   1      22.843  12.774   6.791  0.00  0.00    -0.199 F 
HETATM   31  F   UNK N   1      24.153  14.435   7.535  0.00  0.00    -0.199 F 
BRANCH  29  32
HETATM   32  C   UNK N   1      23.050  13.084   9.126  0.00  0.00     0.015 A 
HETATM   33  C   UNK N   1      21.884  12.811   9.860  0.00  0.00     0.013 A 
HETATM   34  C   UNK N   1      21.972  12.241  11.137  0.00  0.00     0.001 A 
HETATM   35  C   UNK N   1      23.220  11.925  11.681  0.00  0.00     0.000 A 
HETATM   36  C   UNK N   1      24.384  12.181  10.953  0.00  0.00     0.001 A 
HETATM   37  C   UNK N   1      24.299  12.766   9.687  0.00  0.00     0.013 A 
ENDBRANCH  29  32
ENDBRANCH  28  29
ENDBRANCH  26  28
ENDBRANCH   3  26
TORSDOF 10
ENDMDL
MODEL 7
REMARK VINA RESULT:      -7.2      8.471     12.081
REMARK  10 active torsions:
REMARK  status: ('A' for Active; 'I' for Inactive)
REMARK       I    between atoms: C_1  and  N_17 
REMARK       I    between atoms: N_18  and  C_1 
REMARK    1  A    between atoms: O_2  and  N_18 
REMARK    2  A    between atoms: C_19  and  O_2 
REMARK    3  A    between atoms: C_3  and  N_20 
REMARK    4  A    between atoms: C_3  and  C_19 
REMARK    5  A    between atoms: C_4  and  C_5 
REMARK       I    between atoms: C_4  and  N_20 
REMARK    6  A    between atoms: C_5  and  C_6 
REMARK    7  A    between atoms: C_8  and  N_25 
REMARK    8  A    between atoms: C_11  and  C_12 
REMARK    9  A    between atoms: N_25  and  C_11 
REMARK   10  A    between atoms: C_26  and  C_12 
ROOT
HETATM    1  C   UNK N   1      35.037  14.086  10.585  0.00  0.00     0.013 A 
HETATM    2  C   UNK N   1      34.913  12.803  11.160  0.00  0.00     0.151 A 
HETATM    3  C   UNK N   1      35.282  12.587  12.506  0.00  0.00     0.068 A 
HETATM    4  C   UNK N   1      35.776  13.657  13.256  0.00  0.00     0.034 A 
HETATM    5  C   UNK N   1      35.904  14.927  12.693  0.00  0.00     0.027 A 
HETATM    6  C   UNK N   1      35.535  15.152  11.367  0.00  0.00     0.043 A 
HETATM    7 Cl   UNK N   1      35.666  16.791  10.738  0.00  0.00    -0.084 Cl
HETATM    8  F   UNK N   1      34.416  11.786  10.410  0.00  0.00    -0.203 F 
ENDROOT
BRANCH   1   9
HETATM    9  C   UNK N   1      34.561  14.291   9.170  0.00  0.00     0.146 C 
BRANCH   9  10
HETATM   10  C   UNK N   1      33.105  14.615   8.967  0.00  0.00     0.222 C 
HETATM   11  N   UNK N   1      32.682  15.875   9.233  0.00  0.00    -0.359 N 
HETATM   12  H   UNK N   1      33.331  16.527   9.583  0.00  0.00     0.162 HD
HETATM   13  O   UNK N   1      32.327  13.777   8.535  0.00  0.00    -0.273 OA
BRANCH  11  14
HETATM   14  C   UNK N   1      31.319  16.302   9.023  0.00  0.00     0.151 C 
BRANCH  14  15
HETATM   15  C   UNK N   1      31.292  17.500   8.090  0.00  0.00     0.221 C 
BRANCH  15  16
HETATM   16  O   UNK N   1      30.937  17.083   6.808  0.00  0.00    -0.265 OA
BRANCH  16  17
HETATM   17  N   UNK N   1      32.059  17.192   6.088  0.00  0.00    -0.097 N 
HETATM   18  C   UNK N   1      32.636  16.052   5.481  0.00  0.00     0.689 C 
HETATM   19  N   UNK N   1      32.007  14.790   5.599  0.00  0.00    -0.233 N 
HETATM   20  N   UNK N   1      33.730  16.159   4.829  0.00  0.00    -0.233 N 
HETATM   21  H   UNK N   1      32.382  14.007   5.135  0.00  0.00     0.174 HD
HETATM   22  H   UNK N   1      31.193  14.695   6.146  0.00  0.00     0.174 HD
HETATM   23  H   UNK N   1      34.187  17.029   4.772  0.00  0.00     0.174 HD
ATOM     24  HN  UNK N   1      34.129  15.342   4.368  1.00  0.00     0.174 HD
HETATM   25  H   UNK N   1      32.485  18.073   5.978  0.00  0.00     0.213 HD
ENDBRANCH  16  17
ENDBRANCH  15  16
ENDBRANCH  14  15
ENDBRANCH  11  14
ENDBRANCH   9  10
ENDBRANCH   1   9
BRANCH   3  26
HETATM   26  N   UNK N   1      35.147  11.325  13.152  0.00  0.00    -0.381 N 
HETATM   27  H   UNK N   1      34.568  10.659  12.716  0.00  0.00     0.160 HD
BRANCH  26  28
HETATM   28  C   UNK N   1      35.787  10.929  14.392  0.00  0.00     0.204 C 
BRANCH  28  29
HETATM   29  C   UNK N   1      34.748  10.555  15.457  0.00  0.00     0.286 C 
HETATM   30  F   UNK N   1      33.468  10.757  14.960  0.00  0.00    -0.199 F 
HETATM   31  F   UNK N   1      34.883   9.211  15.758  0.00  0.00    -0.199 F 
BRANCH  29  32
HETATM   32  C   UNK N   1      34.925  11.368  16.719  0.00  0.00     0.015 A 
HETATM   33  C   UNK N   1      34.910  12.771  16.681  0.00  0.00     0.013 A 
HETATM   34  C   UNK N   1      35.125  13.511  17.851  0.00  0.00     0.001 A 
HETATM   35  C   UNK N   1      35.341  12.856  19.067  0.00  0.00     0.000 A 
HETATM   36  C   UNK N   1      35.345  11.460  19.116  0.00  0.00     0.001 A 
HETATM   37  C   UNK N   1      35.148  10.721  17.947  0.00  0.00     0.013 A 
ENDBRANCH  29  32
ENDBRANCH  28  29
ENDBRANCH  26  28
ENDBRANCH   3  26
TORSDOF 10
ENDMDL
MODEL 8
REMARK VINA RESULT:      -7.2      2.254      3.146
REMARK  10 active torsions:
REMARK  status: ('A' for Active; 'I' for Inactive)
REMARK       I    between atoms: C_1  and  N_17 
REMARK       I    between atoms: N_18  and  C_1 
REMARK    1  A    between atoms: O_2  and  N_18 
REMARK    2  A    between atoms: C_19  and  O_2 
REMARK    3  A    between atoms: C_3  and  N_20 
REMARK    4  A    between atoms: C_3  and  C_19 
REMARK    5  A    between atoms: C_4  and  C_5 
REMARK       I    between atoms: C_4  and  N_20 
REMARK    6  A    between atoms: C_5  and  C_6 
REMARK    7  A    between atoms: C_8  and  N_25 
REMARK    8  A    between atoms: C_11  and  C_12 
REMARK    9  A    between atoms: N_25  and  C_11 
REMARK   10  A    between atoms: C_26  and  C_12 
ROOT
HETATM    1  C   UNK N   1      27.788  19.237   5.301  0.00  0.00     0.013 A 
HETATM    2  C   UNK N   1      28.628  18.105   5.249  0.00  0.00     0.151 A 
HETATM    3  C   UNK N   1      29.224  17.606   6.428  0.00  0.00     0.068 A 
HETATM    4  C   UNK N   1      28.976  18.253   7.642  0.00  0.00     0.034 A 
HETATM    5  C   UNK N   1      28.149  19.374   7.699  0.00  0.00     0.027 A 
HETATM    6  C   UNK N   1      27.549  19.869   6.541  0.00  0.00     0.043 A 
HETATM    7 Cl   UNK N   1      26.469  21.251   6.694  0.00  0.00    -0.084 Cl
HETATM    8  F   UNK N   1      28.839  17.489   4.057  0.00  0.00    -0.203 F 
ENDROOT
BRANCH   1   9
HETATM    9  C   UNK N   1      27.111  19.691   4.033  0.00  0.00     0.146 C 
BRANCH   9  10
HETATM   10  C   UNK N   1      25.765  19.097   3.713  0.00  0.00     0.222 C 
HETATM   11  N   UNK N   1      24.656  19.824   3.993  0.00  0.00    -0.359 N 
HETATM   12  H   UNK N   1      24.764  20.701   4.428  0.00  0.00     0.162 HD
HETATM   13  O   UNK N   1      25.671  18.002   3.177  0.00  0.00    -0.273 OA
BRANCH  11  14
HETATM   14  C   UNK N   1      23.323  19.368   3.679  0.00  0.00     0.151 C 
BRANCH  14  15
HETATM   15  C   UNK N   1      22.655  20.344   2.726  0.00  0.00     0.221 C 
BRANCH  15  16
HETATM   16  O   UNK N   1      21.356  19.915   2.455  0.00  0.00    -0.265 OA
BRANCH  16  17
HETATM   17  N   UNK N   1      21.212  18.787   3.158  0.00  0.00    -0.097 N 
HETATM   18  C   UNK N   1      19.972  18.108   3.179  0.00  0.00     0.689 C 
HETATM   19  N   UNK N   1      18.882  18.597   2.422  0.00  0.00    -0.233 N 
HETATM   20  N   UNK N   1      19.832  17.053   3.886  0.00  0.00    -0.233 N 
HETATM   21  H   UNK N   1      18.034  18.097   2.397  0.00  0.00     0.174 HD
HETATM   22  H   UNK N   1      18.971  19.440   1.919  0.00  0.00     0.174 HD
HETATM   23  H   UNK N   1      20.578  16.727   4.440  0.00  0.00     0.174 HD
ATOM     24  HN  UNK N   1      18.946  16.548   3.878  1.00  0.00     0.174 HD
HETATM   25  H   UNK N   1      21.976  18.426   3.664  0.00  0.00     0.213 HD
ENDBRANCH  16  17
ENDBRANCH  15  16
ENDBRANCH  14  15
ENDBRANCH  11  14
ENDBRANCH   9  10
ENDBRANCH   1   9
BRANCH   3  26
HETATM   26  N   UNK N   1      30.053  16.448   6.446  0.00  0.00    -0.381 N 
HETATM   27  H   UNK N   1      29.948  15.811   5.703  0.00  0.00     0.160 HD
BRANCH  26  28
HETATM   28  C   UNK N   1      31.038  16.120   7.458  0.00  0.00     0.204 C 
BRANCH  28  29
HETATM   29  C   UNK N   1      32.416  16.690   7.095  0.00  0.00     0.286 C 
HETATM   30  F   UNK N   1      32.446  18.054   7.352  0.00  0.00    -0.199 F 
HETATM   31  F   UNK N   1      33.373  16.084   7.890  0.00  0.00    -0.199 F 
BRANCH  29  32
HETATM   32  C   UNK N   1      32.754  16.451   5.641  0.00  0.00     0.015 A 
HETATM   33  C   UNK N   1      32.520  17.442   4.674  0.00  0.00     0.013 A 
HETATM   34  C   UNK N   1      32.792  17.187   3.323  0.00  0.00     0.001 A 
HETATM   35  C   UNK N   1      33.311  15.950   2.932  0.00  0.00     0.000 A 
HETATM   36  C   UNK N   1      33.557  14.963   3.889  0.00  0.00     0.001 A 
HETATM   37  C   UNK N   1      33.271  15.209   5.234  0.00  0.00     0.013 A 
ENDBRANCH  29  32
ENDBRANCH  28  29
ENDBRANCH  26  28
ENDBRANCH   3  26
TORSDOF 10
ENDMDL
MODEL 9
REMARK VINA RESULT:      -7.2      2.762      3.465
REMARK  10 active torsions:
REMARK  status: ('A' for Active; 'I' for Inactive)
REMARK       I    between atoms: C_1  and  N_17 
REMARK       I    between atoms: N_18  and  C_1 
REMARK    1  A    between atoms: O_2  and  N_18 
REMARK    2  A    between atoms: C_19  and  O_2 
REMARK    3  A    between atoms: C_3  and  N_20 
REMARK    4  A    between atoms: C_3  and  C_19 
REMARK    5  A    between atoms: C_4  and  C_5 
REMARK       I    between atoms: C_4  and  N_20 
REMARK    6  A    between atoms: C_5  and  C_6 
REMARK    7  A    between atoms: C_8  and  N_25 
REMARK    8  A    between atoms: C_11  and  C_12 
REMARK    9  A    between atoms: N_25  and  C_11 
REMARK   10  A    between atoms: C_26  and  C_12 
ROOT
HETATM    1  C   UNK N   1      26.006  18.971   4.625  0.00  0.00     0.013 A 
HETATM    2  C   UNK N   1      26.673  17.978   3.876  0.00  0.00     0.151 A 
HETATM    3  C   UNK N   1      28.084  17.925   3.864  0.00  0.00     0.068 A 
HETATM    4  C   UNK N   1      28.808  18.870   4.594  0.00  0.00     0.034 A 
HETATM    5  C   UNK N   1      28.154  19.856   5.334  0.00  0.00     0.027 A 
HETATM    6  C   UNK N   1      26.761  19.912   5.360  0.00  0.00     0.043 A 
HETATM    7 Cl   UNK N   1      26.001  21.144   6.361  0.00  0.00    -0.084 Cl
HETATM    8  F   UNK N   1      25.942  17.064   3.188  0.00  0.00    -0.203 F 
ENDROOT
BRANCH   1   9
HETATM    9  C   UNK N   1      24.499  18.946   4.675  0.00  0.00     0.146 C 
BRANCH   9  10
HETATM   10  C   UNK N   1      23.757  19.704   3.608  0.00  0.00     0.222 C 
HETATM   11  N   UNK N   1      22.424  19.493   3.476  0.00  0.00    -0.359 N 
HETATM   12  H   UNK N   1      21.992  18.827   4.057  0.00  0.00     0.162 HD
HETATM   13  O   UNK N   1      24.329  20.521   2.901  0.00  0.00    -0.273 OA
BRANCH  11  14
HETATM   14  C   UNK N   1      21.611  20.206   2.519  0.00  0.00     0.151 C 
BRANCH  14  15
HETATM   15  C   UNK N   1      20.144  20.074   2.889  0.00  0.00     0.221 C 
BRANCH  15  16
HETATM   16  O   UNK N   1      19.850  18.737   3.155  0.00  0.00    -0.265 OA
BRANCH  16  17
HETATM   17  N   UNK N   1      19.209  18.301   2.066  0.00  0.00    -0.097 N 
HETATM   18  C   UNK N   1      19.696  17.188   1.343  0.00  0.00     0.689 C 
HETATM   19  N   UNK N   1      20.848  16.499   1.793  0.00  0.00    -0.233 N 
HETATM   20  N   UNK N   1      19.101  16.804   0.281  0.00  0.00    -0.233 N 
HETATM   21  H   UNK N   1      21.158  15.694   1.318  0.00  0.00     0.174 HD
HETATM   22  H   UNK N   1      21.340  16.826   2.581  0.00  0.00     0.174 HD
HETATM   23  H   UNK N   1      18.318  17.300  -0.053  0.00  0.00     0.174 HD
ATOM     24  HN  UNK N   1      19.436  15.983  -0.223  1.00  0.00     0.174 HD
HETATM   25  H   UNK N   1      18.391  18.759   1.765  0.00  0.00     0.213 HD
ENDBRANCH  16  17
ENDBRANCH  15  16
ENDBRANCH  14  15
ENDBRANCH  11  14
ENDBRANCH   9  10
ENDBRANCH   1   9
BRANCH   3  26
HETATM   26  N   UNK N   1      28.813  16.926   3.156  0.00  0.00    -0.381 N 
HETATM   27  H   UNK N   1      28.806  16.979   2.173  0.00  0.00     0.160 HD
BRANCH  26  28
HETATM   28  C   UNK N   1      29.568  15.840   3.751  0.00  0.00     0.204 C 
BRANCH  28  29
HETATM   29  C   UNK N   1      31.076  16.030   3.536  0.00  0.00     0.286 C 
HETATM   30  F   UNK N   1      31.653  14.827   3.153  0.00  0.00    -0.199 F 
HETATM   31  F   UNK N   1      31.269  16.941   2.513  0.00  0.00    -0.199 F 
BRANCH  29  32
HETATM   32  C   UNK N   1      31.759  16.533   4.787  0.00  0.00     0.015 A 
HETATM   33  C   UNK N   1      31.100  16.511   6.026  0.00  0.00     0.013 A 
HETATM   34  C   UNK N   1      31.728  17.027   7.168  0.00  0.00     0.001 A 
HETATM   35  C   UNK N   1      33.021  17.552   7.082  0.00  0.00     0.000 A 
HETATM   36  C   UNK N   1      33.688  17.566   5.856  0.00  0.00     0.001 A 
HETATM   37  C   UNK N   1      33.057  17.069   4.712  0.00  0.00     0.013 A 
ENDBRANCH  29  32
ENDBRANCH  28  29
ENDBRANCH  26  28
ENDBRANCH   3  26
TORSDOF 10
ENDMDL
