REMARK  10 active torsions:
REMARK  status: ('A' for Active; 'I' for Inactive)
REMARK    1  A    between atoms: C_5  and  C_6 
REMARK    2  A    between atoms: C_6  and  O_7 
REMARK    3  A    between atoms: O_7  and  C_8 
REMARK    4  A    between atoms: C_8  and  C_9 
REMARK    5  A    between atoms: C_9  and  N_10 
REMARK    6  A    between atoms: N_10  and  C_11 
REMARK    7  A    between atoms: C_11  and  C_12 
REMARK    8  A    between atoms: C_12  and  N_13 
REMARK    9  A    between atoms: N_13  and  S_14 
REMARK   10  A    between atoms: S_14  and  C_17 
ROOT
HETATM    1  N   UNK N   1       1.956  -1.191  -0.275  0.00  0.00    -0.314 N 
HETATM    2  H   UNK N   1       2.614  -1.946  -0.086  0.00  0.00     0.172 HD
ENDROOT
BRANCH   1   3
HETATM    3  C   UNK N   1       0.728  -1.338  -1.046  0.00  0.00     0.151 C 
BRANCH   3   4
HETATM    4  C   UNK N   1      -0.427  -1.783  -0.151  0.00  0.00     0.134 C 
BRANCH   4   5
HETATM    5  N   UNK N   1      -1.060  -0.640   0.494  0.00  0.00    -0.418 N 
HETATM    6  H   UNK N   1      -0.968  -0.371   1.474  0.00  0.00     0.153 HD
BRANCH   5   7
HETATM    7  C   UNK N   1      -1.847   0.046  -0.519  0.00  0.00     0.140 C 
BRANCH   7   8
HETATM    8  C   UNK N   1      -2.176   1.461  -0.067  0.00  0.00     0.187 C 
BRANCH   8   9
HETATM    9  O   UNK N   1      -3.321   1.472   0.735  0.00  0.00    -0.385 OA
BRANCH   9  10
HETATM   10  C   UNK N   1      -4.376   1.703  -0.154  0.00  0.00     0.206 C 
BRANCH  10  11
HETATM   11  C   UNK N   1      -5.358   0.581  -0.093  0.00  0.00    -0.035 A 
HETATM   12  C   UNK N   1      -6.706   0.852   0.160  0.00  0.00     0.011 A 
HETATM   13  C   UNK N   1      -7.632  -0.194   0.211  0.00  0.00     0.024 A 
HETATM   14  C   UNK N   1      -7.210  -1.513   0.013  0.00  0.00     0.034 A 
HETATM   15 Cl   UNK N   1      -8.367  -2.823   0.081  0.00  0.00    -0.084 Cl
HETATM   16  C   UNK N   1      -5.863  -1.785  -0.242  0.00  0.00     0.024 A 
HETATM   17  C   UNK N   1      -4.939  -0.740  -0.299  0.00  0.00     0.011 A 
ENDBRANCH  10  11
ENDBRANCH   9  10
ENDBRANCH   8   9
ENDBRANCH   7   8
ENDBRANCH   5   7
ENDBRANCH   4   5
ENDBRANCH   3   4
ENDBRANCH   1   3
BRANCH   1  18
HETATM   18  S   UNK N   1       2.150   0.484   0.293  0.00  0.00     0.259 S 
HETATM   19  O   UNK N   1       1.772   0.430   1.780  0.00  0.00    -0.201 OA
HETATM   20  O   UNK N   1       0.988   1.303  -0.293  0.00  0.00    -0.201 OA
BRANCH  18  21
HETATM   21  C   UNK N   1       3.726   1.320   0.068  0.00  0.00     0.090 A 
HETATM   22  C   UNK N   1       3.731   2.719  -0.002  0.00  0.00     0.026 A 
HETATM   23  C   UNK N   1       4.931   3.421  -0.139  0.00  0.00     0.002 A 
HETATM   24  C   UNK N   1       6.143   2.731  -0.199  0.00  0.00     0.014 A 
HETATM   25  C   UNK N   1       6.156   1.336  -0.131  0.00  0.00    -0.009 A 
HETATM   26  C   UNK N   1       7.365   0.642  -0.185  0.00  0.00     0.100 A 
HETATM   27  C   UNK N   1       4.946   0.618   0.001  0.00  0.00     0.000 A 
HETATM   28  N   UNK N   1       7.375  -0.717  -0.116  0.00  0.00    -0.374 N 
HETATM   29  C   UNK N   1       6.224  -1.432   0.007  0.00  0.00     0.088 A 
ATOM     30  HN  UNK N   1       8.267  -1.211  -0.157  1.00  0.00     0.164 HD
HETATM   31  C   UNK N   1       4.992  -0.779   0.070  0.00  0.00     0.031 A 
ENDBRANCH  18  21
ENDBRANCH   1  18
TORSDOF 10
