MODEL 1
REMARK VINA RESULT:      -7.2      0.000      0.000
REMARK  10 active torsions:
REMARK  status: ('A' for Active; 'I' for Inactive)
REMARK    1  A    between atoms: C_5  and  C_6 
REMARK    2  A    between atoms: C_6  and  O_7 
REMARK    3  A    between atoms: O_7  and  C_8 
REMARK    4  A    between atoms: C_8  and  C_9 
REMARK    5  A    between atoms: C_9  and  N_10 
REMARK    6  A    between atoms: N_10  and  C_11 
REMARK    7  A    between atoms: C_11  and  C_12 
REMARK    8  A    between atoms: C_12  and  N_13 
REMARK    9  A    between atoms: N_13  and  S_14 
REMARK   10  A    between atoms: S_14  and  C_17 
ROOT
HETATM    1  N   UNK N   1      34.132  16.625   9.682  0.00  0.00    -0.314 N 
HETATM    2  H   UNK N   1      33.430  16.874  10.378  0.00  0.00     0.172 HD
ENDROOT
BRANCH   1   3
HETATM    3  C   UNK N   1      35.443  16.068   9.992  0.00  0.00     0.151 C 
BRANCH   3   4
HETATM    4  C   UNK N   1      35.475  15.512  11.414  0.00  0.00     0.134 C 
BRANCH   4   5
HETATM    5  N   UNK N   1      36.726  14.811  11.673  0.00  0.00    -0.418 N 
HETATM    6  H   UNK N   1      37.611  14.951  11.183  0.00  0.00     0.153 HD
BRANCH   5   7
HETATM    7  C   UNK N   1      36.480  13.875  12.759  0.00  0.00     0.140 C 
BRANCH   7   8
HETATM    8  C   UNK N   1      35.052  13.356  12.698  0.00  0.00     0.187 C 
BRANCH   8   9
HETATM    9  O   UNK N   1      34.669  12.809  13.927  0.00  0.00    -0.385 OA
BRANCH   9  10
HETATM   10  C   UNK N   1      35.381  13.545  14.880  0.00  0.00     0.206 C 
BRANCH  10  11
HETATM   11  C   UNK N   1      35.341  12.854  16.202  0.00  0.00    -0.035 A 
HETATM   12  C   UNK N   1      35.261  13.607  17.377  0.00  0.00     0.011 A 
HETATM   13  C   UNK N   1      35.216  12.965  18.618  0.00  0.00     0.024 A 
HETATM   14  C   UNK N   1      35.254  11.568  18.685  0.00  0.00     0.034 A 
HETATM   15 Cl   UNK N   1      35.202  10.764  20.237  0.00  0.00    -0.084 Cl
HETATM   16  C   UNK N   1      35.332  10.814  17.511  0.00  0.00     0.024 A 
HETATM   17  C   UNK N   1      35.372  11.455  16.271  0.00  0.00     0.011 A 
ENDBRANCH  10  11
ENDBRANCH   9  10
ENDBRANCH   8   9
ENDBRANCH   7   8
ENDBRANCH   5   7
ENDBRANCH   4   5
ENDBRANCH   3   4
ENDBRANCH   1   3
BRANCH   1  18
HETATM   18  S   UNK N   1      33.922  16.808   7.925  0.00  0.00     0.259 S 
HETATM   19  O   UNK N   1      34.917  15.812   7.314  0.00  0.00    -0.201 OA
HETATM   20  O   UNK N   1      34.548  18.155   7.528  0.00  0.00    -0.201 OA
BRANCH  18  21
HETATM   21  C   UNK N   1      32.289  16.600   7.200  0.00  0.00     0.090 A 
HETATM   22  C   UNK N   1      32.152  15.728   6.113  0.00  0.00     0.026 A 
HETATM   23  C   UNK N   1      30.900  15.501   5.535  0.00  0.00     0.002 A 
HETATM   24  C   UNK N   1      29.768  16.139   6.045  0.00  0.00     0.014 A 
HETATM   25  C   UNK N   1      29.887  17.012   7.129  0.00  0.00    -0.009 A 
HETATM   26  C   UNK N   1      28.757  17.647   7.645  0.00  0.00     0.100 A 
HETATM   27  C   UNK N   1      31.150  17.252   7.714  0.00  0.00     0.000 A 
HETATM   28  N   UNK N   1      28.876  18.496   8.703  0.00  0.00    -0.374 N 
HETATM   29  C   UNK N   1      30.081  18.747   9.282  0.00  0.00     0.088 A 
ATOM     30  HN  UNK N   1      28.041  18.953   9.069  1.00  0.00     0.164 HD
HETATM   31  C   UNK N   1      31.237  18.130   8.801  0.00  0.00     0.031 A 
ENDBRANCH  18  21
ENDBRANCH   1  18
TORSDOF 10
ENDMDL
MODEL 2
REMARK VINA RESULT:      -6.9      4.445     10.696
REMARK  10 active torsions:
REMARK  status: ('A' for Active; 'I' for Inactive)
REMARK    1  A    between atoms: C_5  and  C_6 
REMARK    2  A    between atoms: C_6  and  O_7 
REMARK    3  A    between atoms: O_7  and  C_8 
REMARK    4  A    between atoms: C_8  and  C_9 
REMARK    5  A    between atoms: C_9  and  N_10 
REMARK    6  A    between atoms: N_10  and  C_11 
REMARK    7  A    between atoms: C_11  and  C_12 
REMARK    8  A    between atoms: C_12  and  N_13 
REMARK    9  A    between atoms: N_13  and  S_14 
REMARK   10  A    between atoms: S_14  and  C_17 
ROOT
HETATM    1  N   UNK N   1      36.105  11.380  12.812  0.00  0.00    -0.314 N 
HETATM    2  H   UNK N   1      35.628  10.519  12.548  0.00  0.00     0.172 HD
ENDROOT
BRANCH   1   3
HETATM    3  C   UNK N   1      37.131  12.036  12.011  0.00  0.00     0.151 C 
BRANCH   3   4
HETATM    4  C   UNK N   1      36.524  13.134  11.140  0.00  0.00     0.134 C 
BRANCH   4   5
HETATM    5  N   UNK N   1      37.016  14.447  11.534  0.00  0.00    -0.418 N 
HETATM    6  H   UNK N   1      37.963  14.672  11.839  0.00  0.00     0.153 HD
BRANCH   5   7
HETATM    7  C   UNK N   1      35.905  15.378  11.413  0.00  0.00     0.140 C 
BRANCH   7   8
HETATM    8  C   UNK N   1      35.569  15.615   9.948  0.00  0.00     0.187 C 
BRANCH   8   9
HETATM    9  O   UNK N   1      34.243  16.035   9.804  0.00  0.00    -0.385 OA
BRANCH   9  10
HETATM   10  C   UNK N   1      34.328  17.259   9.132  0.00  0.00     0.206 C 
BRANCH  10  11
HETATM   11  C   UNK N   1      33.432  17.255   7.938  0.00  0.00    -0.035 A 
HETATM   12  C   UNK N   1      33.981  17.382   6.659  0.00  0.00     0.011 A 
HETATM   13  C   UNK N   1      33.147  17.372   5.536  0.00  0.00     0.024 A 
HETATM   14  C   UNK N   1      31.764  17.240   5.693  0.00  0.00     0.034 A 
HETATM   15 Cl   UNK N   1      30.719  17.232   4.290  0.00  0.00    -0.084 Cl
HETATM   16  C   UNK N   1      31.214  17.112   6.972  0.00  0.00     0.024 A 
HETATM   17  C   UNK N   1      32.047  17.115   8.092  0.00  0.00     0.011 A 
ENDBRANCH  10  11
ENDBRANCH   9  10
ENDBRANCH   8   9
ENDBRANCH   7   8
ENDBRANCH   5   7
ENDBRANCH   4   5
ENDBRANCH   3   4
ENDBRANCH   1   3
BRANCH   1  18
HETATM   18  S   UNK N   1      35.797  12.288  14.311  0.00  0.00     0.259 S 
HETATM   19  O   UNK N   1      34.546  13.122  14.002  0.00  0.00    -0.201 OA
HETATM   20  O   UNK N   1      36.877  13.377  14.417  0.00  0.00    -0.201 OA
BRANCH  18  21
HETATM   21  C   UNK N   1      35.601  11.399  15.862  0.00  0.00     0.090 A 
HETATM   22  C   UNK N   1      35.652   9.999  15.835  0.00  0.00     0.026 A 
HETATM   23  C   UNK N   1      35.543   9.260  17.016  0.00  0.00     0.002 A 
HETATM   24  C   UNK N   1      35.390   9.914  18.239  0.00  0.00     0.014 A 
HETATM   25  C   UNK N   1      35.337  11.309  18.284  0.00  0.00    -0.009 A 
HETATM   26  C   UNK N   1      35.190  11.967  19.505  0.00  0.00     0.100 A 
HETATM   27  C   UNK N   1      35.440  12.064  17.093  0.00  0.00     0.000 A 
HETATM   28  N   UNK N   1      35.142  13.327  19.545  0.00  0.00    -0.374 N 
HETATM   29  C   UNK N   1      35.234  14.076  18.414  0.00  0.00     0.088 A 
ATOM     30  HN  UNK N   1      35.034  13.794  20.446  1.00  0.00     0.164 HD
HETATM   31  C   UNK N   1      35.387  13.460  17.171  0.00  0.00     0.031 A 
ENDBRANCH  18  21
ENDBRANCH   1  18
TORSDOF 10
ENDMDL
MODEL 3
REMARK VINA RESULT:      -6.9      4.900     10.960
REMARK  10 active torsions:
REMARK  status: ('A' for Active; 'I' for Inactive)
REMARK    1  A    between atoms: C_5  and  C_6 
REMARK    2  A    between atoms: C_6  and  O_7 
REMARK    3  A    between atoms: O_7  and  C_8 
REMARK    4  A    between atoms: C_8  and  C_9 
REMARK    5  A    between atoms: C_9  and  N_10 
REMARK    6  A    between atoms: N_10  and  C_11 
REMARK    7  A    between atoms: C_11  and  C_12 
REMARK    8  A    between atoms: C_12  and  N_13 
REMARK    9  A    between atoms: N_13  and  S_14 
REMARK   10  A    between atoms: S_14  and  C_17 
ROOT
HETATM    1  N   UNK N   1      35.847  10.699  13.811  0.00  0.00    -0.314 N 
HETATM    2  H   UNK N   1      35.643   9.795  13.389  0.00  0.00     0.172 HD
ENDROOT
BRANCH   1   3
HETATM    3  C   UNK N   1      37.134  11.379  13.726  0.00  0.00     0.151 C 
BRANCH   3   4
HETATM    4  C   UNK N   1      37.313  12.038  12.360  0.00  0.00     0.134 C 
BRANCH   4   5
HETATM    5  N   UNK N   1      37.121  13.480  12.444  0.00  0.00    -0.418 N 
HETATM    6  H   UNK N   1      37.151  14.045  13.293  0.00  0.00     0.153 HD
BRANCH   5   7
HETATM    7  C   UNK N   1      36.878  13.962  11.094  0.00  0.00     0.140 C 
BRANCH   7   8
HETATM    8  C   UNK N   1      35.512  13.505  10.604  0.00  0.00     0.187 C 
BRANCH   8   9
HETATM    9  O   UNK N   1      35.296  13.912   9.284  0.00  0.00    -0.385 OA
BRANCH   9  10
HETATM   10  C   UNK N   1      35.413  15.306   9.318  0.00  0.00     0.206 C 
BRANCH  10  11
HETATM   11  C   UNK N   1      34.817  15.904   8.088  0.00  0.00    -0.035 A 
HETATM   12  C   UNK N   1      34.177  17.145   8.160  0.00  0.00     0.011 A 
HETATM   13  C   UNK N   1      33.623  17.714   7.010  0.00  0.00     0.024 A 
HETATM   14  C   UNK N   1      33.706  17.041   5.786  0.00  0.00     0.034 A 
HETATM   15 Cl   UNK N   1      33.009  17.750   4.347  0.00  0.00    -0.084 Cl
HETATM   16  C   UNK N   1      34.347  15.802   5.712  0.00  0.00     0.024 A 
HETATM   17  C   UNK N   1      34.906  15.236   6.860  0.00  0.00     0.011 A 
ENDBRANCH  10  11
ENDBRANCH   9  10
ENDBRANCH   8   9
ENDBRANCH   7   8
ENDBRANCH   5   7
ENDBRANCH   4   5
ENDBRANCH   3   4
ENDBRANCH   1   3
BRANCH   1  18
HETATM   18  S   UNK N   1      34.683  11.663  14.750  0.00  0.00     0.259 S 
HETATM   19  O   UNK N   1      33.337  10.958  14.529  0.00  0.00    -0.201 OA
HETATM   20  O   UNK N   1      34.469  12.985  13.994  0.00  0.00    -0.201 OA
BRANCH  18  21
HETATM   21  C   UNK N   1      34.973  11.945  16.502  0.00  0.00     0.090 A 
HETATM   22  C   UNK N   1      34.994  13.266  16.967  0.00  0.00     0.026 A 
HETATM   23  C   UNK N   1      35.179  13.540  18.324  0.00  0.00     0.002 A 
HETATM   24  C   UNK N   1      35.335  12.494  19.235  0.00  0.00     0.014 A 
HETATM   25  C   UNK N   1      35.317  11.171  18.788  0.00  0.00    -0.009 A 
HETATM   26  C   UNK N   1      35.468  10.122  19.695  0.00  0.00     0.100 A 
HETATM   27  C   UNK N   1      35.138  10.885  17.416  0.00  0.00     0.000 A 
HETATM   28  N   UNK N   1      35.447   8.834  19.258  0.00  0.00    -0.374 N 
HETATM   29  C   UNK N   1      35.280   8.532  17.941  0.00  0.00     0.088 A 
ATOM     30  HN  UNK N   1      35.558   8.076  19.933  1.00  0.00     0.164 HD
HETATM   31  C   UNK N   1      35.120   9.549  17.000  0.00  0.00     0.031 A 
ENDBRANCH  18  21
ENDBRANCH   1  18
TORSDOF 10
ENDMDL
MODEL 4
REMARK VINA RESULT:      -6.9      1.897      2.575
REMARK  10 active torsions:
REMARK  status: ('A' for Active; 'I' for Inactive)
REMARK    1  A    between atoms: C_5  and  C_6 
REMARK    2  A    between atoms: C_6  and  O_7 
REMARK    3  A    between atoms: O_7  and  C_8 
REMARK    4  A    between atoms: C_8  and  C_9 
REMARK    5  A    between atoms: C_9  and  N_10 
REMARK    6  A    between atoms: N_10  and  C_11 
REMARK    7  A    between atoms: C_11  and  C_12 
REMARK    8  A    between atoms: C_12  and  N_13 
REMARK    9  A    between atoms: N_13  and  S_14 
REMARK   10  A    between atoms: S_14  and  C_17 
ROOT
HETATM    1  N   UNK N   1      34.663  16.165   8.845  0.00  0.00    -0.314 N 
HETATM    2  H   UNK N   1      34.792  16.628   9.743  0.00  0.00     0.172 HD
ENDROOT
BRANCH   1   3
HETATM    3  C   UNK N   1      34.877  14.742   8.610  0.00  0.00     0.151 C 
BRANCH   3   4
HETATM    4  C   UNK N   1      34.047  13.900   9.577  0.00  0.00     0.134 C 
BRANCH   4   5
HETATM    5  N   UNK N   1      34.203  14.370  10.947  0.00  0.00    -0.418 N 
HETATM    6  H   UNK N   1      33.583  15.014  11.440  0.00  0.00     0.153 HD
BRANCH   5   7
HETATM    7  C   UNK N   1      35.405  13.750  11.482  0.00  0.00     0.140 C 
BRANCH   7   8
HETATM    8  C   UNK N   1      35.785  14.387  12.811  0.00  0.00     0.187 C 
BRANCH   8   9
HETATM    9  O   UNK N   1      36.585  13.524  13.565  0.00  0.00    -0.385 OA
BRANCH   9  10
HETATM   10  C   UNK N   1      36.650  14.114  14.831  0.00  0.00     0.206 C 
BRANCH  10  11
HETATM   11  C   UNK N   1      36.193  13.150  15.875  0.00  0.00    -0.035 A 
HETATM   12  C   UNK N   1      35.546  13.623  17.020  0.00  0.00     0.011 A 
HETATM   13  C   UNK N   1      35.109  12.724  17.998  0.00  0.00     0.024 A 
HETATM   14  C   UNK N   1      35.322  11.351  17.832  0.00  0.00     0.034 A 
HETATM   15 Cl   UNK N   1      34.780  10.226  19.057  0.00  0.00    -0.084 Cl
HETATM   16  C   UNK N   1      35.967  10.877  16.687  0.00  0.00     0.024 A 
HETATM   17  C   UNK N   1      36.398  11.774  15.707  0.00  0.00     0.011 A 
ENDBRANCH  10  11
ENDBRANCH   9  10
ENDBRANCH   8   9
ENDBRANCH   7   8
ENDBRANCH   5   7
ENDBRANCH   4   5
ENDBRANCH   3   4
ENDBRANCH   1   3
BRANCH   1  18
HETATM   18  S   UNK N   1      34.144  16.982   7.352  0.00  0.00     0.259 S 
HETATM   19  O   UNK N   1      34.962  16.306   6.242  0.00  0.00    -0.201 OA
HETATM   20  O   UNK N   1      34.752  18.394   7.369  0.00  0.00    -0.201 OA
BRANCH  18  21
HETATM   21  C   UNK N   1      32.399  17.020   6.922  0.00  0.00     0.090 A 
HETATM   22  C   UNK N   1      31.460  17.056   7.962  0.00  0.00     0.026 A 
HETATM   23  C   UNK N   1      30.093  17.124   7.684  0.00  0.00     0.002 A 
HETATM   24  C   UNK N   1      29.648  17.165   6.362  0.00  0.00     0.014 A 
HETATM   25  C   UNK N   1      30.570  17.129   5.313  0.00  0.00    -0.009 A 
HETATM   26  C   UNK N   1      30.131  17.175   3.990  0.00  0.00     0.100 A 
HETATM   27  C   UNK N   1      31.955  17.054   5.585  0.00  0.00     0.000 A 
HETATM   28  N   UNK N   1      31.032  17.143   2.971  0.00  0.00    -0.374 N 
HETATM   29  C   UNK N   1      32.370  17.066   3.206  0.00  0.00     0.088 A 
ATOM     30  HN  UNK N   1      30.695  17.177   2.008  1.00  0.00     0.164 HD
HETATM   31  C   UNK N   1      32.854  17.023   4.514  0.00  0.00     0.031 A 
ENDBRANCH  18  21
ENDBRANCH   1  18
TORSDOF 10
ENDMDL
MODEL 5
REMARK VINA RESULT:      -6.8      2.372      3.503
REMARK  10 active torsions:
REMARK  status: ('A' for Active; 'I' for Inactive)
REMARK    1  A    between atoms: C_5  and  C_6 
REMARK    2  A    between atoms: C_6  and  O_7 
REMARK    3  A    between atoms: O_7  and  C_8 
REMARK    4  A    between atoms: C_8  and  C_9 
REMARK    5  A    between atoms: C_9  and  N_10 
REMARK    6  A    between atoms: N_10  and  C_11 
REMARK    7  A    between atoms: C_11  and  C_12 
REMARK    8  A    between atoms: C_12  and  N_13 
REMARK    9  A    between atoms: N_13  and  S_14 
REMARK   10  A    between atoms: S_14  and  C_17 
ROOT
HETATM    1  N   UNK N   1      34.021  16.777   9.503  0.00  0.00    -0.314 N 
HETATM    2  H   UNK N   1      33.355  16.091   9.858  0.00  0.00     0.172 HD
ENDROOT
BRANCH   1   3
HETATM    3  C   UNK N   1      35.312  17.068  10.114  0.00  0.00     0.151 C 
BRANCH   3   4
HETATM    4  C   UNK N   1      35.596  16.112  11.271  0.00  0.00     0.134 C 
BRANCH   4   5
HETATM    5  N   UNK N   1      36.680  15.196  10.939  0.00  0.00    -0.418 N 
HETATM    6  H   UNK N   1      37.428  15.363  10.266  0.00  0.00     0.153 HD
BRANCH   5   7
HETATM    7  C   UNK N   1      36.497  14.001  11.748  0.00  0.00     0.140 C 
BRANCH   7   8
HETATM    8  C   UNK N   1      35.582  14.293  12.928  0.00  0.00     0.187 C 
BRANCH   8   9
HETATM    9  O   UNK N   1      36.278  14.181  14.135  0.00  0.00    -0.385 OA
BRANCH   9  10
HETATM   10  C   UNK N   1      36.514  12.810  14.283  0.00  0.00     0.206 C 
BRANCH  10  11
HETATM   11  C   UNK N   1      36.139  12.367  15.658  0.00  0.00    -0.035 A 
HETATM   12  C   UNK N   1      35.490  13.255  16.521  0.00  0.00     0.011 A 
HETATM   13  C   UNK N   1      35.130  12.844  17.807  0.00  0.00     0.024 A 
HETATM   14  C   UNK N   1      35.422  11.544  18.234  0.00  0.00     0.034 A 
HETATM   15 Cl   UNK N   1      34.976  11.030  19.845  0.00  0.00    -0.084 Cl
HETATM   16  C   UNK N   1      36.070  10.654  17.372  0.00  0.00     0.024 A 
HETATM   17  C   UNK N   1      36.424  11.063  16.085  0.00  0.00     0.011 A 
ENDBRANCH  10  11
ENDBRANCH   9  10
ENDBRANCH   8   9
ENDBRANCH   7   8
ENDBRANCH   5   7
ENDBRANCH   4   5
ENDBRANCH   3   4
ENDBRANCH   1   3
BRANCH   1  18
HETATM   18  S   UNK N   1      33.765  17.779   8.056  0.00  0.00     0.259 S 
HETATM   19  O   UNK N   1      34.920  18.789   8.080  0.00  0.00    -0.201 OA
HETATM   20  O   UNK N   1      32.554  18.684   8.335  0.00  0.00    -0.201 OA
BRANCH  18  21
HETATM   21  C   UNK N   1      33.643  16.993   6.443  0.00  0.00     0.090 A 
HETATM   22  C   UNK N   1      32.789  17.562   5.490  0.00  0.00     0.026 A 
HETATM   23  C   UNK N   1      32.684  17.014   4.209  0.00  0.00     0.002 A 
HETATM   24  C   UNK N   1      33.440  15.893   3.864  0.00  0.00     0.014 A 
HETATM   25  C   UNK N   1      34.296  15.312   4.802  0.00  0.00    -0.009 A 
HETATM   26  C   UNK N   1      35.058  14.194   4.460  0.00  0.00     0.100 A 
HETATM   27  C   UNK N   1      34.403  15.856   6.102  0.00  0.00     0.000 A 
HETATM   28  N   UNK N   1      35.893  13.632   5.375  0.00  0.00    -0.374 N 
HETATM   29  C   UNK N   1      36.011  14.134   6.634  0.00  0.00     0.088 A 
ATOM     30  HN  UNK N   1      36.444  12.814   5.111  1.00  0.00     0.164 HD
HETATM   31  C   UNK N   1      35.272  15.254   7.018  0.00  0.00     0.031 A 
ENDBRANCH  18  21
ENDBRANCH   1  18
TORSDOF 10
ENDMDL
MODEL 6
REMARK VINA RESULT:      -6.7     11.005     14.209
REMARK  10 active torsions:
REMARK  status: ('A' for Active; 'I' for Inactive)
REMARK    1  A    between atoms: C_5  and  C_6 
REMARK    2  A    between atoms: C_6  and  O_7 
REMARK    3  A    between atoms: O_7  and  C_8 
REMARK    4  A    between atoms: C_8  and  C_9 
REMARK    5  A    between atoms: C_9  and  N_10 
REMARK    6  A    between atoms: N_10  and  C_11 
REMARK    7  A    between atoms: C_11  and  C_12 
REMARK    8  A    between atoms: C_12  and  N_13 
REMARK    9  A    between atoms: N_13  and  S_14 
REMARK   10  A    between atoms: S_14  and  C_17 
ROOT
HETATM    1  N   UNK N   1      20.850  15.955   6.147  0.00  0.00    -0.314 N 
HETATM    2  H   UNK N   1      20.523  15.407   5.352  0.00  0.00     0.172 HD
ENDROOT
BRANCH   1   3
HETATM    3  C   UNK N   1      21.259  17.352   6.076  0.00  0.00     0.151 C 
BRANCH   3   4
HETATM    4  C   UNK N   1      22.624  17.486   5.403  0.00  0.00     0.134 C 
BRANCH   4   5
HETATM    5  N   UNK N   1      22.481  17.777   3.982  0.00  0.00    -0.418 N 
HETATM    6  H   UNK N   1      22.821  17.203   3.210  0.00  0.00     0.153 HD
BRANCH   5   7
HETATM    7  C   UNK N   1      21.764  19.037   3.870  0.00  0.00     0.140 C 
BRANCH   7   8
HETATM    8  C   UNK N   1      22.521  20.000   2.968  0.00  0.00     0.187 C 
BRANCH   8   9
HETATM    9  O   UNK N   1      23.622  20.545   3.636  0.00  0.00    -0.385 OA
BRANCH   9  10
HETATM   10  C   UNK N   1      24.682  20.424   2.732  0.00  0.00     0.206 C 
BRANCH  10  11
HETATM   11  C   UNK N   1      25.846  19.757   3.386  0.00  0.00    -0.035 A 
HETATM   12  C   UNK N   1      26.873  20.533   3.932  0.00  0.00     0.011 A 
HETATM   13  C   UNK N   1      27.961  19.914   4.553  0.00  0.00     0.024 A 
HETATM   14  C   UNK N   1      28.026  18.518   4.625  0.00  0.00     0.034 A 
HETATM   15 Cl   UNK N   1      29.391  17.743   5.398  0.00  0.00    -0.084 Cl
HETATM   16  C   UNK N   1      26.999  17.742   4.081  0.00  0.00     0.024 A 
HETATM   17  C   UNK N   1      25.909  18.360   3.467  0.00  0.00     0.011 A 
ENDBRANCH  10  11
ENDBRANCH   9  10
ENDBRANCH   8   9
ENDBRANCH   7   8
ENDBRANCH   5   7
ENDBRANCH   4   5
ENDBRANCH   3   4
ENDBRANCH   1   3
BRANCH   1  18
HETATM   18  S   UNK N   1      20.997  15.336   7.809  0.00  0.00     0.259 S 
HETATM   19  O   UNK N   1      19.666  14.618   8.069  0.00  0.00    -0.201 OA
HETATM   20  O   UNK N   1      20.890  16.542   8.757  0.00  0.00    -0.201 OA
BRANCH  18  21
HETATM   21  C   UNK N   1      22.385  14.279   8.242  0.00  0.00     0.090 A 
HETATM   22  C   UNK N   1      23.566  14.394   7.497  0.00  0.00     0.026 A 
HETATM   23  C   UNK N   1      24.687  13.623   7.814  0.00  0.00     0.002 A 
HETATM   24  C   UNK N   1      24.643  12.732   8.887  0.00  0.00     0.014 A 
HETATM   25  C   UNK N   1      23.474  12.604   9.641  0.00  0.00    -0.009 A 
HETATM   26  C   UNK N   1      23.427  11.719  10.718  0.00  0.00     0.100 A 
HETATM   27  C   UNK N   1      22.333  13.376   9.323  0.00  0.00     0.000 A 
HETATM   28  N   UNK N   1      22.287  11.598  11.452  0.00  0.00    -0.374 N 
HETATM   29  C   UNK N   1      21.174  12.326  11.164  0.00  0.00     0.088 A 
ATOM     30  HN  UNK N   1      22.268  10.947  12.237  1.00  0.00     0.164 HD
HETATM   31  C   UNK N   1      21.178  13.228  10.098  0.00  0.00     0.031 A 
ENDBRANCH  18  21
ENDBRANCH   1  18
TORSDOF 10
ENDMDL
MODEL 7
REMARK VINA RESULT:      -6.6     11.736     15.406
REMARK  10 active torsions:
REMARK  status: ('A' for Active; 'I' for Inactive)
REMARK    1  A    between atoms: C_5  and  C_6 
REMARK    2  A    between atoms: C_6  and  O_7 
REMARK    3  A    between atoms: O_7  and  C_8 
REMARK    4  A    between atoms: C_8  and  C_9 
REMARK    5  A    between atoms: C_9  and  N_10 
REMARK    6  A    between atoms: N_10  and  C_11 
REMARK    7  A    between atoms: C_11  and  C_12 
REMARK    8  A    between atoms: C_12  and  N_13 
REMARK    9  A    between atoms: N_13  and  S_14 
REMARK   10  A    between atoms: S_14  and  C_17 
ROOT
HETATM    1  N   UNK N   1      20.156  14.487   6.231  0.00  0.00    -0.314 N 
HETATM    2  H   UNK N   1      19.318  13.963   6.479  0.00  0.00     0.172 HD
ENDROOT
BRANCH   1   3
HETATM    3  C   UNK N   1      20.572  14.786   4.867  0.00  0.00     0.151 C 
BRANCH   3   4
HETATM    4  C   UNK N   1      19.410  14.604   3.891  0.00  0.00     0.134 C 
BRANCH   4   5
HETATM    5  N   UNK N   1      19.403  15.657   2.884  0.00  0.00    -0.418 N 
HETATM    6  H   UNK N   1      19.036  15.583   1.934  0.00  0.00     0.153 HD
BRANCH   5   7
HETATM    7  C   UNK N   1      20.017  16.832   3.483  0.00  0.00     0.140 C 
BRANCH   7   8
HETATM    8  C   UNK N   1      19.684  18.076   2.672  0.00  0.00     0.187 C 
BRANCH   8   9
HETATM    9  O   UNK N   1      20.747  18.983   2.696  0.00  0.00    -0.385 OA
BRANCH   9  10
HETATM   10  C   UNK N   1      21.385  18.752   3.919  0.00  0.00     0.206 C 
BRANCH  10  11
HETATM   11  C   UNK N   1      22.828  19.120   3.828  0.00  0.00    -0.035 A 
HETATM   12  C   UNK N   1      23.224  20.173   2.997  0.00  0.00     0.011 A 
HETATM   13  C   UNK N   1      24.573  20.527   2.913  0.00  0.00     0.024 A 
HETATM   14  C   UNK N   1      25.529  19.826   3.655  0.00  0.00     0.034 A 
HETATM   15 Cl   UNK N   1      27.219  20.266   3.547  0.00  0.00    -0.084 Cl
HETATM   16  C   UNK N   1      25.135  18.775   4.487  0.00  0.00     0.024 A 
HETATM   17  C   UNK N   1      23.787  18.424   4.576  0.00  0.00     0.011 A 
ENDBRANCH  10  11
ENDBRANCH   9  10
ENDBRANCH   8   9
ENDBRANCH   7   8
ENDBRANCH   5   7
ENDBRANCH   4   5
ENDBRANCH   3   4
ENDBRANCH   1   3
BRANCH   1  18
HETATM   18  S   UNK N   1      21.308  15.164   7.406  0.00  0.00     0.259 S 
HETATM   19  O   UNK N   1      20.423  15.825   8.473  0.00  0.00    -0.201 OA
HETATM   20  O   UNK N   1      21.967  16.388   6.748  0.00  0.00    -0.201 OA
BRANCH  18  21
HETATM   21  C   UNK N   1      22.529  14.088   8.171  0.00  0.00     0.090 A 
HETATM   22  C   UNK N   1      23.823  14.065   7.633  0.00  0.00     0.026 A 
HETATM   23  C   UNK N   1      24.820  13.276   8.211  0.00  0.00     0.002 A 
HETATM   24  C   UNK N   1      24.537  12.506   9.341  0.00  0.00     0.014 A 
HETATM   25  C   UNK N   1      23.253  12.517   9.889  0.00  0.00    -0.009 A 
HETATM   26  C   UNK N   1      22.967  11.754  11.021  0.00  0.00     0.100 A 
HETATM   27  C   UNK N   1      22.237  13.308   9.307  0.00  0.00     0.000 A 
HETATM   28  N   UNK N   1      21.715  11.769  11.556  0.00  0.00    -0.374 N 
HETATM   29  C   UNK N   1      20.718  12.518  11.012  0.00  0.00     0.088 A 
ATOM     30  HN  UNK N   1      21.521  11.205  12.384  1.00  0.00     0.164 HD
HETATM   31  C   UNK N   1      20.961  13.301   9.882  0.00  0.00     0.031 A 
ENDBRANCH  18  21
ENDBRANCH   1  18
TORSDOF 10
ENDMDL
MODEL 8
REMARK VINA RESULT:      -6.6     10.412     13.688
REMARK  10 active torsions:
REMARK  status: ('A' for Active; 'I' for Inactive)
REMARK    1  A    between atoms: C_5  and  C_6 
REMARK    2  A    between atoms: C_6  and  O_7 
REMARK    3  A    between atoms: O_7  and  C_8 
REMARK    4  A    between atoms: C_8  and  C_9 
REMARK    5  A    between atoms: C_9  and  N_10 
REMARK    6  A    between atoms: N_10  and  C_11 
REMARK    7  A    between atoms: C_11  and  C_12 
REMARK    8  A    between atoms: C_12  and  N_13 
REMARK    9  A    between atoms: N_13  and  S_14 
REMARK   10  A    between atoms: S_14  and  C_17 
ROOT
HETATM    1  N   UNK N   1      21.355  16.735   7.255  0.00  0.00    -0.314 N 
HETATM    2  H   UNK N   1      21.771  17.420   7.884  0.00  0.00     0.172 HD
ENDROOT
BRANCH   1   3
HETATM    3  C   UNK N   1      21.530  16.726   5.809  0.00  0.00     0.151 C 
BRANCH   3   4
HETATM    4  C   UNK N   1      23.001  16.898   5.437  0.00  0.00     0.134 C 
BRANCH   4   5
HETATM    5  N   UNK N   1      23.345  18.307   5.299  0.00  0.00    -0.418 N 
HETATM    6  H   UNK N   1      23.612  18.941   6.053  0.00  0.00     0.153 HD
BRANCH   5   7
HETATM    7  C   UNK N   1      23.236  18.642   3.887  0.00  0.00     0.140 C 
BRANCH   7   8
HETATM    8  C   UNK N   1      24.112  19.842   3.558  0.00  0.00     0.187 C 
BRANCH   8   9
HETATM    9  O   UNK N   1      25.299  19.435   2.941  0.00  0.00    -0.385 OA
BRANCH   9  10
HETATM   10  C   UNK N   1      26.250  20.380   3.340  0.00  0.00     0.206 C 
BRANCH  10  11
HETATM   11  C   UNK N   1      26.875  19.970   4.632  0.00  0.00    -0.035 A 
HETATM   12  C   UNK N   1      27.562  18.755   4.715  0.00  0.00     0.011 A 
HETATM   13  C   UNK N   1      28.156  18.369   5.920  0.00  0.00     0.024 A 
HETATM   14  C   UNK N   1      28.060  19.195   7.045  0.00  0.00     0.034 A 
HETATM   15 Cl   UNK N   1      28.798  18.711   8.554  0.00  0.00    -0.084 Cl
HETATM   16  C   UNK N   1      27.374  20.410   6.962  0.00  0.00     0.024 A 
HETATM   17  C   UNK N   1      26.786  20.799   5.757  0.00  0.00     0.011 A 
ENDBRANCH  10  11
ENDBRANCH   9  10
ENDBRANCH   8   9
ENDBRANCH   7   8
ENDBRANCH   5   7
ENDBRANCH   4   5
ENDBRANCH   3   4
ENDBRANCH   1   3
BRANCH   1  18
HETATM   18  S   UNK N   1      20.317  15.386   7.776  0.00  0.00     0.259 S 
HETATM   19  O   UNK N   1      19.895  14.702   6.468  0.00  0.00    -0.201 OA
HETATM   20  O   UNK N   1      18.987  15.991   8.253  0.00  0.00    -0.201 OA
BRANCH  18  21
HETATM   21  C   UNK N   1      20.952  14.180   8.948  0.00  0.00     0.090 A 
HETATM   22  C   UNK N   1      20.106  13.745   9.977  0.00  0.00     0.026 A 
HETATM   23  C   UNK N   1      20.536  12.782  10.893  0.00  0.00     0.002 A 
HETATM   24  C   UNK N   1      21.816  12.235  10.785  0.00  0.00     0.014 A 
HETATM   25  C   UNK N   1      22.672  12.657   9.766  0.00  0.00    -0.009 A 
HETATM   26  C   UNK N   1      23.950  12.110   9.651  0.00  0.00     0.100 A 
HETATM   27  C   UNK N   1      22.248  13.636   8.839  0.00  0.00     0.000 A 
HETATM   28  N   UNK N   1      24.781  12.521   8.655  0.00  0.00    -0.374 N 
HETATM   29  C   UNK N   1      24.399  13.465   7.753  0.00  0.00     0.088 A 
ATOM     30  HN  UNK N   1      25.713  12.112   8.584  1.00  0.00     0.164 HD
HETATM   31  C   UNK N   1      23.127  14.036   7.827  0.00  0.00     0.031 A 
ENDBRANCH  18  21
ENDBRANCH   1  18
TORSDOF 10
ENDMDL
MODEL 9
REMARK VINA RESULT:      -6.5      4.361     10.136
REMARK  10 active torsions:
REMARK  status: ('A' for Active; 'I' for Inactive)
REMARK    1  A    between atoms: C_5  and  C_6 
REMARK    2  A    between atoms: C_6  and  O_7 
REMARK    3  A    between atoms: O_7  and  C_8 
REMARK    4  A    between atoms: C_8  and  C_9 
REMARK    5  A    between atoms: C_9  and  N_10 
REMARK    6  A    between atoms: N_10  and  C_11 
REMARK    7  A    between atoms: C_11  and  C_12 
REMARK    8  A    between atoms: C_12  and  N_13 
REMARK    9  A    between atoms: N_13  and  S_14 
REMARK   10  A    between atoms: S_14  and  C_17 
ROOT
HETATM    1  N   UNK N   1      35.449  13.746  10.298  0.00  0.00    -0.314 N 
HETATM    2  H   UNK N   1      34.681  13.660   9.634  0.00  0.00     0.172 HD
ENDROOT
BRANCH   1   3
HETATM    3  C   UNK N   1      36.179  14.979  10.562  0.00  0.00     0.151 C 
BRANCH   3   4
HETATM    4  C   UNK N   1      35.304  15.980  11.314  0.00  0.00     0.134 C 
BRANCH   4   5
HETATM    5  N   UNK N   1      35.186  17.231  10.575  0.00  0.00    -0.418 N 
HETATM    6  H   UNK N   1      35.437  18.160  10.915  0.00  0.00     0.153 HD
BRANCH   5   7
HETATM    7  C   UNK N   1      34.644  16.908   9.264  0.00  0.00     0.140 C 
BRANCH   7   8
HETATM    8  C   UNK N   1      34.543  18.162   8.409  0.00  0.00     0.187 C 
BRANCH   8   9
HETATM    9  O   UNK N   1      33.228  18.367   7.982  0.00  0.00    -0.385 OA
BRANCH   9  10
HETATM   10  C   UNK N   1      32.766  17.095   7.630  0.00  0.00     0.206 C 
BRANCH  10  11
HETATM   11  C   UNK N   1      31.624  17.206   6.675  0.00  0.00    -0.035 A 
HETATM   12  C   UNK N   1      31.873  17.254   5.300  0.00  0.00     0.011 A 
HETATM   13  C   UNK N   1      30.808  17.351   4.400  0.00  0.00     0.024 A 
HETATM   14  C   UNK N   1      29.493  17.404   4.874  0.00  0.00     0.034 A 
HETATM   15 Cl   UNK N   1      28.159  17.529   3.749  0.00  0.00    -0.084 Cl
HETATM   16  C   UNK N   1      29.243  17.353   6.248  0.00  0.00     0.024 A 
HETATM   17  C   UNK N   1      30.306  17.251   7.147  0.00  0.00     0.011 A 
ENDBRANCH  10  11
ENDBRANCH   9  10
ENDBRANCH   8   9
ENDBRANCH   7   8
ENDBRANCH   5   7
ENDBRANCH   4   5
ENDBRANCH   3   4
ENDBRANCH   1   3
BRANCH   1  18
HETATM   18  S   UNK N   1      36.080  12.412  11.293  0.00  0.00     0.259 S 
HETATM   19  O   UNK N   1      37.555  12.770  11.522  0.00  0.00    -0.201 OA
HETATM   20  O   UNK N   1      36.198  11.179  10.382  0.00  0.00    -0.201 OA
BRANCH  18  21
HETATM   21  C   UNK N   1      35.274  12.008  12.849  0.00  0.00     0.090 A 
HETATM   22  C   UNK N   1      34.352  10.954  12.865  0.00  0.00     0.026 A 
HETATM   23  C   UNK N   1      33.726  10.574  14.054  0.00  0.00     0.002 A 
HETATM   24  C   UNK N   1      34.021  11.240  15.245  0.00  0.00     0.014 A 
HETATM   25  C   UNK N   1      34.937  12.294  15.247  0.00  0.00    -0.009 A 
HETATM   26  C   UNK N   1      35.240  12.959  16.435  0.00  0.00     0.100 A 
HETATM   27  C   UNK N   1      35.571  12.689  14.047  0.00  0.00     0.000 A 
HETATM   28  N   UNK N   1      36.135  13.984  16.434  0.00  0.00    -0.374 N 
HETATM   29  C   UNK N   1      36.756  14.386  15.292  0.00  0.00     0.088 A 
ATOM     30  HN  UNK N   1      36.346  14.461  17.311  1.00  0.00     0.164 HD
HETATM   31  C   UNK N   1      36.487  13.746  14.081  0.00  0.00     0.031 A 
ENDBRANCH  18  21
ENDBRANCH   1  18
TORSDOF 10
ENDMDL
