MODEL 1
REMARK VINA RESULT:      -7.8      0.000      0.000
REMARK  4 active torsions:
REMARK  status: ('A' for Active; 'I' for Inactive)
REMARK    1  A    between atoms: O_1  and  C_2 
REMARK    2  A    between atoms: C_2  and  C_4 
REMARK    3  A    between atoms: C_4  and  O_5 
REMARK    4  A    between atoms: O_5  and  N_6 
ROOT
HETATM    1  N   UNK N   1      27.505  23.423  -6.755  0.00  0.00    -0.263 N 
ATOM      2  HN  UNK N   1      28.151  22.633  -6.757  1.00  0.00     0.194 HD
HETATM    3  C   UNK N   1      27.497  24.205  -5.737  0.00  0.00     0.094 A 
HETATM    4  C   UNK N   1      28.295  24.043  -4.517  0.00  0.00     0.079 A 
HETATM    5  C   UNK N   1      29.235  23.108  -4.252  0.00  0.00     0.073 A 
HETATM    6  C   UNK N   1      29.985  22.926  -3.003  0.00  0.00     0.259 A 
HETATM    7  O   UNK N   1      29.869  23.604  -1.993  0.00  0.00    -0.267 OA
HETATM    8  N   UNK N   1      30.833  21.874  -3.090  0.00  0.00    -0.325 N 
ATOM      9  HN  UNK N   1      31.452  21.553  -2.345  1.00  0.00     0.169 HD
HETATM   10  C   UNK N   1      30.740  21.341  -4.259  0.00  0.00     0.027 A 
HETATM   11  C   UNK N   1      31.530  20.160  -4.743  0.00  0.00     0.085 A 
HETATM   12  C   UNK N   1      31.194  19.826  -6.189  0.00  0.00    -0.021 A 
HETATM   13  C   UNK N   1      30.290  20.516  -6.920  0.00  0.00    -0.003 A 
HETATM   14  C   UNK N   1      29.542  21.665  -6.354  0.00  0.00     0.014 A 
HETATM   15  C   UNK N   1      29.769  22.029  -5.091  0.00  0.00     0.005 A 
HETATM   16  N   UNK N   1      27.908  25.059  -3.595  0.00  0.00    -0.356 N 
ATOM     17  HN  UNK N   1      28.291  25.182  -2.658  1.00  0.00     0.166 HD
HETATM   18  C   UNK N   1      26.998  25.798  -4.133  0.00  0.00     0.025 A 
HETATM   19  C   UNK N   1      26.332  26.971  -3.478  0.00  0.00     0.085 A 
HETATM   20  C   UNK N   1      25.293  27.599  -4.399  0.00  0.00    -0.021 A 
HETATM   21  C   UNK N   1      25.020  27.138  -5.643  0.00  0.00    -0.003 A 
HETATM   22  C   UNK N   1      25.725  25.963  -6.219  0.00  0.00     0.015 A 
HETATM   23  C   UNK N   1      26.655  25.359  -5.479  0.00  0.00     0.018 A 
ENDROOT
BRANCH   1  24
HETATM   24  O   UNK N   1      26.721  23.592  -7.795  0.00  0.00    -0.269 OA
BRANCH  24  25
HETATM   25  C   UNK N   1      26.089  22.489  -8.312  0.00  0.00     0.311 C 
BRANCH  25  26
HETATM   26  C   UNK N   1      24.828  22.199  -7.579  0.00  0.00     0.166 C 
HETATM   27  O   UNK N   1      24.837  22.069  -6.367  0.00  0.00    -0.648 OA
BRANCH  26  28
HETATM   28  O   UNK N   1      23.681  22.046  -8.265  0.00  0.00    -0.775 OA
HETATM   29  H   UNK N   1      22.772  21.971  -8.046  0.00  0.00     0.167 HD
ENDBRANCH  26  28
ENDBRANCH  25  26
ENDBRANCH  24  25
ENDBRANCH   1  24
TORSDOF 4
ENDMDL
MODEL 2
REMARK VINA RESULT:      -7.8      1.576      4.549
REMARK  4 active torsions:
REMARK  status: ('A' for Active; 'I' for Inactive)
REMARK    1  A    between atoms: O_1  and  C_2 
REMARK    2  A    between atoms: C_2  and  C_4 
REMARK    3  A    between atoms: C_4  and  O_5 
REMARK    4  A    between atoms: O_5  and  N_6 
ROOT
HETATM    1  N   UNK N   1      28.791  24.227  -5.035  0.00  0.00    -0.263 N 
ATOM      2  HN  UNK N   1      29.153  23.375  -5.465  1.00  0.00     0.194 HD
HETATM    3  C   UNK N   1      27.632  24.646  -5.389  0.00  0.00     0.094 A 
HETATM    4  C   UNK N   1      26.774  24.050  -6.419  0.00  0.00     0.079 A 
HETATM    5  C   UNK N   1      26.988  22.921  -7.133  0.00  0.00     0.073 A 
HETATM    6  C   UNK N   1      26.146  22.367  -8.201  0.00  0.00     0.259 A 
HETATM    7  O   UNK N   1      25.105  22.854  -8.616  0.00  0.00    -0.267 OA
HETATM    8  N   UNK N   1      26.680  21.230  -8.705  0.00  0.00    -0.325 N 
ATOM      9  HN  UNK N   1      26.276  20.673  -9.458  1.00  0.00     0.169 HD
HETATM   10  C   UNK N   1      27.778  20.958  -8.089  0.00  0.00     0.027 A 
HETATM   11  C   UNK N   1      28.655  19.770  -8.354  0.00  0.00     0.085 A 
HETATM   12  C   UNK N   1      29.849  19.743  -7.410  0.00  0.00    -0.021 A 
HETATM   13  C   UNK N   1      30.071  20.684  -6.466  0.00  0.00    -0.003 A 
HETATM   14  C   UNK N   1      29.155  21.836  -6.282  0.00  0.00     0.014 A 
HETATM   15  C   UNK N   1      28.082  21.945  -7.067  0.00  0.00     0.005 A 
HETATM   16  N   UNK N   1      25.627  24.880  -6.580  0.00  0.00    -0.356 N 
ATOM     17  HN  UNK N   1      24.866  24.714  -7.237  1.00  0.00     0.166 HD
HETATM   18  C   UNK N   1      25.705  25.875  -5.763  0.00  0.00     0.025 A 
HETATM   19  C   UNK N   1      24.692  26.973  -5.630  0.00  0.00     0.085 A 
HETATM   20  C   UNK N   1      25.116  27.990  -4.579  0.00  0.00    -0.021 A 
HETATM   21  C   UNK N   1      26.265  27.897  -3.869  0.00  0.00    -0.003 A 
HETATM   22  C   UNK N   1      27.221  26.775  -4.062  0.00  0.00     0.015 A 
HETATM   23  C   UNK N   1      26.921  25.838  -4.961  0.00  0.00     0.018 A 
ENDROOT
BRANCH   1  24
HETATM   24  O   UNK N   1      29.535  24.842  -4.145  0.00  0.00    -0.269 OA
BRANCH  24  25
HETATM   25  C   UNK N   1      30.456  24.099  -3.449  0.00  0.00     0.311 C 
BRANCH  25  26
HETATM   26  C   UNK N   1      29.818  23.372  -2.320  0.00  0.00     0.166 C 
HETATM   27  O   UNK N   1      30.502  22.903  -1.426  0.00  0.00    -0.648 OA
BRANCH  26  28
HETATM   28  O   UNK N   1      28.483  23.205  -2.306  0.00  0.00    -0.775 OA
HETATM   29  H   UNK N   1      27.743  23.728  -2.068  0.00  0.00     0.167 HD
ENDBRANCH  26  28
ENDBRANCH  25  26
ENDBRANCH  24  25
ENDBRANCH   1  24
TORSDOF 4
ENDMDL
MODEL 3
REMARK VINA RESULT:      -7.7     15.973     17.218
REMARK  4 active torsions:
REMARK  status: ('A' for Active; 'I' for Inactive)
REMARK    1  A    between atoms: O_1  and  C_2 
REMARK    2  A    between atoms: C_2  and  C_4 
REMARK    3  A    between atoms: C_4  and  O_5 
REMARK    4  A    between atoms: O_5  and  N_6 
ROOT
HETATM    1  N   UNK N   1      20.424  15.416   7.958  0.00  0.00    -0.263 N 
ATOM      2  HN  UNK N   1      20.535  14.796   8.761  1.00  0.00     0.194 HD
HETATM    3  C   UNK N   1      21.396  15.521   7.127  0.00  0.00     0.094 A 
HETATM    4  C   UNK N   1      22.708  14.875   7.245  0.00  0.00     0.079 A 
HETATM    5  C   UNK N   1      23.125  13.999   8.187  0.00  0.00     0.073 A 
HETATM    6  C   UNK N   1      24.462  13.405   8.324  0.00  0.00     0.259 A 
HETATM    7  O   UNK N   1      25.418  13.619   7.594  0.00  0.00    -0.267 OA
HETATM    8  N   UNK N   1      24.523  12.582   9.397  0.00  0.00    -0.325 N 
ATOM      9  HN  UNK N   1      25.350  12.064   9.695  1.00  0.00     0.169 HD
HETATM   10  C   UNK N   1      23.378  12.553   9.986  0.00  0.00     0.027 A 
HETATM   11  C   UNK N   1      23.045  11.745  11.205  0.00  0.00     0.085 A 
HETATM   12  C   UNK N   1      21.586  11.919  11.603  0.00  0.00    -0.021 A 
HETATM   13  C   UNK N   1      20.723  12.712  10.931  0.00  0.00    -0.003 A 
HETATM   14  C   UNK N   1      21.143  13.489   9.738  0.00  0.00     0.014 A 
HETATM   15  C   UNK N   1      22.406  13.400   9.317  0.00  0.00     0.005 A 
HETATM   16  N   UNK N   1      23.530  15.338   6.177  0.00  0.00    -0.356 N 
ATOM     17  HN  UNK N   1      24.499  15.064   6.016  1.00  0.00     0.166 HD
HETATM   18  C   UNK N   1      22.856  16.159   5.446  0.00  0.00     0.025 A 
HETATM   19  C   UNK N   1      23.372  16.864   4.227  0.00  0.00     0.085 A 
HETATM   20  C   UNK N   1      22.307  17.770   3.623  0.00  0.00    -0.021 A 
HETATM   21  C   UNK N   1      21.063  17.909   4.138  0.00  0.00    -0.003 A 
HETATM   22  C   UNK N   1      20.628  17.174   5.356  0.00  0.00     0.015 A 
HETATM   23  C   UNK N   1      21.500  16.355   5.943  0.00  0.00     0.018 A 
ENDROOT
BRANCH   1  24
HETATM   24  O   UNK N   1      19.292  16.068   7.823  0.00  0.00    -0.269 OA
BRANCH  24  25
HETATM   25  C   UNK N   1      18.729  16.621   8.945  0.00  0.00     0.311 C 
BRANCH  25  26
HETATM   26  C   UNK N   1      19.213  18.010   9.162  0.00  0.00     0.166 C 
HETATM   27  O   UNK N   1      20.193  18.420   8.563  0.00  0.00    -0.648 OA
BRANCH  26  28
HETATM   28  O   UNK N   1      18.584  18.802  10.049  0.00  0.00    -0.775 OA
HETATM   29  H   UNK N   1      17.985  19.522  10.000  0.00  0.00     0.167 HD
ENDBRANCH  26  28
ENDBRANCH  25  26
ENDBRANCH  24  25
ENDBRANCH   1  24
TORSDOF 4
ENDMDL
MODEL 4
REMARK VINA RESULT:      -7.2     11.689     13.014
REMARK  4 active torsions:
REMARK  status: ('A' for Active; 'I' for Inactive)
REMARK    1  A    between atoms: O_1  and  C_2 
REMARK    2  A    between atoms: C_2  and  C_4 
REMARK    3  A    between atoms: C_4  and  O_5 
REMARK    4  A    between atoms: O_5  and  N_6 
ROOT
HETATM    1  N   UNK N   1      22.612  19.015   3.796  0.00  0.00    -0.263 N 
ATOM      2  HN  UNK N   1      21.774  18.464   3.987  1.00  0.00     0.194 HD
HETATM    3  C   UNK N   1      23.737  18.594   4.247  0.00  0.00     0.094 A 
HETATM    4  C   UNK N   1      23.944  17.406   5.082  0.00  0.00     0.079 A 
HETATM    5  C   UNK N   1      23.028  16.491   5.473  0.00  0.00     0.073 A 
HETATM    6  C   UNK N   1      23.240  15.336   6.356  0.00  0.00     0.259 A 
HETATM    7  O   UNK N   1      24.297  15.024   6.884  0.00  0.00    -0.267 OA
HETATM    8  N   UNK N   1      22.090  14.645   6.543  0.00  0.00    -0.325 N 
ATOM      9  HN  UNK N   1      21.993  13.811   7.122  1.00  0.00     0.169 HD
HETATM   10  C   UNK N   1      21.139  15.203   5.878  0.00  0.00     0.027 A 
HETATM   11  C   UNK N   1      19.718  14.722   5.821  0.00  0.00     0.085 A 
HETATM   12  C   UNK N   1      18.875  15.598   4.905  0.00  0.00    -0.021 A 
HETATM   13  C   UNK N   1      19.366  16.670   4.243  0.00  0.00    -0.003 A 
HETATM   14  C   UNK N   1      20.786  17.081   4.368  0.00  0.00     0.014 A 
HETATM   15  C   UNK N   1      21.600  16.374   5.154  0.00  0.00     0.005 A 
HETATM   16  N   UNK N   1      25.318  17.357   5.455  0.00  0.00    -0.356 N 
ATOM     17  HN  UNK N   1      25.745  16.643   6.044  1.00  0.00     0.166 HD
HETATM   18  C   UNK N   1      25.937  18.359   4.929  0.00  0.00     0.025 A 
HETATM   19  C   UNK N   1      27.397  18.661   5.090  0.00  0.00     0.085 A 
HETATM   20  C   UNK N   1      27.782  19.932   4.345  0.00  0.00    -0.021 A 
HETATM   21  C   UNK N   1      26.903  20.680   3.637  0.00  0.00    -0.003 A 
HETATM   22  C   UNK N   1      25.466  20.313   3.528  0.00  0.00     0.015 A 
HETATM   23  C   UNK N   1      25.048  19.209   4.148  0.00  0.00     0.018 A 
ENDROOT
BRANCH   1  24
HETATM   24  O   UNK N   1      22.486  20.122   3.101  0.00  0.00    -0.269 OA
BRANCH  24  25
HETATM   25  C   UNK N   1      21.227  20.500   2.711  0.00  0.00     0.311 C 
BRANCH  25  26
HETATM   26  C   UNK N   1      20.964  20.120   1.298  0.00  0.00     0.166 C 
HETATM   27  O   UNK N   1      21.356  20.829   0.387  0.00  0.00    -0.648 OA
BRANCH  26  28
HETATM   28  O   UNK N   1      20.260  19.005   1.029  0.00  0.00    -0.775 OA
HETATM   29  H   UNK N   1      20.463  18.102   0.883  0.00  0.00     0.167 HD
ENDBRANCH  26  28
ENDBRANCH  25  26
ENDBRANCH  24  25
ENDBRANCH   1  24
TORSDOF 4
ENDMDL
MODEL 5
REMARK VINA RESULT:      -7.2     12.601     14.983
REMARK  4 active torsions:
REMARK  status: ('A' for Active; 'I' for Inactive)
REMARK    1  A    between atoms: O_1  and  C_2 
REMARK    2  A    between atoms: C_2  and  C_4 
REMARK    3  A    between atoms: C_4  and  O_5 
REMARK    4  A    between atoms: O_5  and  N_6 
ROOT
HETATM    1  N   UNK N   1      32.834  16.396   7.652  0.00  0.00    -0.263 N 
ATOM      2  HN  UNK N   1      33.497  15.922   7.038  1.00  0.00     0.194 HD
HETATM    3  C   UNK N   1      31.667  16.670   7.196  0.00  0.00     0.094 A 
HETATM    4  C   UNK N   1      31.191  16.424   5.831  0.00  0.00     0.079 A 
HETATM    5  C   UNK N   1      31.841  15.803   4.820  0.00  0.00     0.073 A 
HETATM    6  C   UNK N   1      31.373  15.615   3.441  0.00  0.00     0.259 A 
HETATM    7  O   UNK N   1      30.305  16.000   2.989  0.00  0.00    -0.267 OA
HETATM    8  N   UNK N   1      32.296  14.962   2.696  0.00  0.00    -0.325 N 
ATOM      9  HN  UNK N   1      32.194  14.724   1.709  1.00  0.00     0.169 HD
HETATM   10  C   UNK N   1      33.322  14.686   3.424  0.00  0.00     0.027 A 
HETATM   11  C   UNK N   1      34.548  13.956   2.961  0.00  0.00     0.085 A 
HETATM   12  C   UNK N   1      35.542  13.769   4.098  0.00  0.00    -0.021 A 
HETATM   13  C   UNK N   1      35.327  14.218   5.354  0.00  0.00    -0.003 A 
HETATM   14  C   UNK N   1      34.087  14.944   5.722  0.00  0.00     0.014 A 
HETATM   15  C   UNK N   1      33.159  15.158   4.788  0.00  0.00     0.005 A 
HETATM   16  N   UNK N   1      29.882  16.974   5.709  0.00  0.00    -0.356 N 
ATOM     17  HN  UNK N   1      29.312  16.958   4.864  1.00  0.00     0.166 HD
HETATM   18  C   UNK N   1      29.533  17.495   6.836  0.00  0.00     0.025 A 
HETATM   19  C   UNK N   1      28.225  18.176   7.111  0.00  0.00     0.085 A 
HETATM   20  C   UNK N   1      28.162  18.686   8.545  0.00  0.00    -0.021 A 
HETATM   21  C   UNK N   1      29.168  18.536   9.438  0.00  0.00    -0.003 A 
HETATM   22  C   UNK N   1      30.438  17.848   9.085  0.00  0.00     0.015 A 
HETATM   23  C   UNK N   1      30.572  17.367   7.849  0.00  0.00     0.018 A 
ENDROOT
BRANCH   1  24
HETATM   24  O   UNK N   1      33.218  16.696   8.871  0.00  0.00    -0.269 OA
BRANCH  24  25
HETATM   25  C   UNK N   1      34.497  17.156   9.051  0.00  0.00     0.311 C 
BRANCH  25  26
HETATM   26  C   UNK N   1      34.781  18.317   8.165  0.00  0.00     0.166 C 
HETATM   27  O   UNK N   1      34.562  18.245   6.968  0.00  0.00    -0.648 OA
BRANCH  26  28
HETATM   28  O   UNK N   1      35.313  19.437   8.688  0.00  0.00    -0.775 OA
HETATM   29  H   UNK N   1      35.340  19.835   9.536  0.00  0.00     0.167 HD
ENDBRANCH  26  28
ENDBRANCH  25  26
ENDBRANCH  24  25
ENDBRANCH   1  24
TORSDOF 4
ENDMDL
MODEL 6
REMARK VINA RESULT:      -7.1     11.038     13.317
REMARK  4 active torsions:
REMARK  status: ('A' for Active; 'I' for Inactive)
REMARK    1  A    between atoms: O_1  and  C_2 
REMARK    2  A    between atoms: C_2  and  C_4 
REMARK    3  A    between atoms: C_4  and  O_5 
REMARK    4  A    between atoms: O_5  and  N_6 
ROOT
HETATM    1  N   UNK N   1      29.513  17.032   4.740  0.00  0.00    -0.263 N 
ATOM      2  HN  UNK N   1      30.159  16.371   5.171  1.00  0.00     0.194 HD
HETATM    3  C   UNK N   1      28.969  17.927   5.481  0.00  0.00     0.094 A 
HETATM    4  C   UNK N   1      29.134  18.067   6.932  0.00  0.00     0.079 A 
HETATM    5  C   UNK N   1      29.934  17.349   7.753  0.00  0.00     0.073 A 
HETATM    6  C   UNK N   1      30.046  17.463   9.213  0.00  0.00     0.259 A 
HETATM    7  O   UNK N   1      29.420  18.239   9.920  0.00  0.00    -0.267 OA
HETATM    8  N   UNK N   1      30.936  16.570   9.707  0.00  0.00    -0.325 N 
ATOM      9  HN  UNK N   1      31.174  16.461  10.693  1.00  0.00     0.169 HD
HETATM   10  C   UNK N   1      31.435  15.880   8.741  0.00  0.00     0.027 A 
HETATM   11  C   UNK N   1      32.466  14.799   8.886  0.00  0.00     0.085 A 
HETATM   12  C   UNK N   1      32.858  14.225   7.532  0.00  0.00    -0.021 A 
HETATM   13  C   UNK N   1      32.326  14.648   6.363  0.00  0.00    -0.003 A 
HETATM   14  C   UNK N   1      31.299  15.717   6.315  0.00  0.00     0.014 A 
HETATM   15  C   UNK N   1      30.890  16.277   7.455  0.00  0.00     0.005 A 
HETATM   16  N   UNK N   1      28.277  19.113   7.379  0.00  0.00    -0.356 N 
ATOM     17  HN  UNK N   1      28.178  19.422   8.346  1.00  0.00     0.166 HD
HETATM   18  C   UNK N   1      27.646  19.608   6.369  0.00  0.00     0.025 A 
HETATM   19  C   UNK N   1      26.649  20.726   6.429  0.00  0.00     0.085 A 
HETATM   20  C   UNK N   1      26.090  21.040   5.047  0.00  0.00    -0.021 A 
HETATM   21  C   UNK N   1      26.458  20.380   3.924  0.00  0.00    -0.003 A 
HETATM   22  C   UNK N   1      27.455  19.278   3.949  0.00  0.00     0.015 A 
HETATM   23  C   UNK N   1      27.997  18.944   5.120  0.00  0.00     0.018 A 
ENDROOT
BRANCH   1  24
HETATM   24  O   UNK N   1      29.277  16.926   3.453  0.00  0.00    -0.269 OA
BRANCH  24  25
HETATM   25  C   UNK N   1      30.151  16.187   2.695  0.00  0.00     0.311 C 
BRANCH  25  26
HETATM   26  C   UNK N   1      31.554  16.630   2.907  0.00  0.00     0.166 C 
HETATM   27  O   UNK N   1      32.479  15.860   2.710  0.00  0.00    -0.648 OA
BRANCH  26  28
HETATM   28  O   UNK N   1      31.798  17.878   3.350  0.00  0.00    -0.775 OA
HETATM   29  H   UNK N   1      31.787  18.308   4.182  0.00  0.00     0.167 HD
ENDBRANCH  26  28
ENDBRANCH  25  26
ENDBRANCH  24  25
ENDBRANCH   1  24
TORSDOF 4
ENDMDL
MODEL 7
REMARK VINA RESULT:      -7.1     11.430     14.971
REMARK  4 active torsions:
REMARK  status: ('A' for Active; 'I' for Inactive)
REMARK    1  A    between atoms: O_1  and  C_2 
REMARK    2  A    between atoms: C_2  and  C_4 
REMARK    3  A    between atoms: C_4  and  O_5 
REMARK    4  A    between atoms: O_5  and  N_6 
ROOT
HETATM    1  N   UNK N   1      29.943  17.988   7.596  0.00  0.00    -0.263 N 
ATOM      2  HN  UNK N   1      29.187  18.590   7.271  1.00  0.00     0.194 HD
HETATM    3  C   UNK N   1      30.281  16.984   6.871  0.00  0.00     0.094 A 
HETATM    4  C   UNK N   1      29.636  16.565   5.622  0.00  0.00     0.079 A 
HETATM    5  C   UNK N   1      28.633  17.177   4.954  0.00  0.00     0.073 A 
HETATM    6  C   UNK N   1      27.960  16.714   3.733  0.00  0.00     0.259 A 
HETATM    7  O   UNK N   1      28.210  15.684   3.125  0.00  0.00    -0.267 OA
HETATM    8  N   UNK N   1      26.986  17.575   3.354  0.00  0.00    -0.325 N 
ATOM      9  HN  UNK N   1      26.382  17.459   2.541  1.00  0.00     0.169 HD
HETATM   10  C   UNK N   1      26.939  18.563   4.179  0.00  0.00     0.027 A 
HETATM   11  C   UNK N   1      25.999  19.729   4.089  0.00  0.00     0.085 A 
HETATM   12  C   UNK N   1      26.251  20.731   5.207  0.00  0.00    -0.021 A 
HETATM   13  C   UNK N   1      27.203  20.564   6.152  0.00  0.00    -0.003 A 
HETATM   14  C   UNK N   1      28.082  19.370   6.173  0.00  0.00     0.014 A 
HETATM   15  C   UNK N   1      27.931  18.436   5.232  0.00  0.00     0.005 A 
HETATM   16  N   UNK N   1      30.242  15.348   5.195  0.00  0.00    -0.356 N 
ATOM     17  HN  UNK N   1      29.986  14.822   4.360  1.00  0.00     0.166 HD
HETATM   18  C   UNK N   1      31.166  15.016   6.032  0.00  0.00     0.025 A 
HETATM   19  C   UNK N   1      32.031  13.795   5.933  0.00  0.00     0.085 A 
HETATM   20  C   UNK N   1      33.002  13.713   7.103  0.00  0.00    -0.021 A 
HETATM   21  C   UNK N   1      33.059  14.632   8.095  0.00  0.00    -0.003 A 
HETATM   22  C   UNK N   1      32.162  15.818   8.121  0.00  0.00     0.015 A 
HETATM   23  C   UNK N   1      31.285  15.967   7.129  0.00  0.00     0.018 A 
ENDROOT
BRANCH   1  24
HETATM   24  O   UNK N   1      30.525  18.276   8.738  0.00  0.00    -0.269 OA
BRANCH  24  25
HETATM   25  C   UNK N   1      29.727  18.608   9.803  0.00  0.00     0.311 C 
BRANCH  25  26
HETATM   26  C   UNK N   1      28.474  17.807   9.808  0.00  0.00     0.166 C 
HETATM   27  O   UNK N   1      28.468  16.677  10.266  0.00  0.00    -0.648 OA
BRANCH  26  28
HETATM   28  O   UNK N   1      27.353  18.324   9.273  0.00  0.00    -0.775 OA
HETATM   29  H   UNK N   1      26.715  18.041   8.647  0.00  0.00     0.167 HD
ENDBRANCH  26  28
ENDBRANCH  25  26
ENDBRANCH  24  25
ENDBRANCH   1  24
TORSDOF 4
ENDMDL
MODEL 8
REMARK VINA RESULT:      -7.0     11.840     15.232
REMARK  4 active torsions:
REMARK  status: ('A' for Active; 'I' for Inactive)
REMARK    1  A    between atoms: O_1  and  C_2 
REMARK    2  A    between atoms: C_2  and  C_4 
REMARK    3  A    between atoms: C_4  and  O_5 
REMARK    4  A    between atoms: O_5  and  N_6 
ROOT
HETATM    1  N   UNK N   1      30.978  16.086   5.573  0.00  0.00    -0.263 N 
ATOM      2  HN  UNK N   1      30.254  16.724   5.240  1.00  0.00     0.194 HD
HETATM    3  C   UNK N   1      31.193  16.012   6.836  0.00  0.00     0.094 A 
HETATM    4  C   UNK N   1      30.534  16.812   7.874  0.00  0.00     0.079 A 
HETATM    5  C   UNK N   1      29.535  17.712   7.726  0.00  0.00     0.073 A 
HETATM    6  C   UNK N   1      28.924  18.547   8.768  0.00  0.00     0.259 A 
HETATM    7  O   UNK N   1      29.233  18.556   9.951  0.00  0.00    -0.267 OA
HETATM    8  N   UNK N   1      27.962  19.347   8.253  0.00  0.00    -0.325 N 
ATOM      9  HN  UNK N   1      27.405  20.016   8.785  1.00  0.00     0.169 HD
HETATM   10  C   UNK N   1      27.856  19.135   6.987  0.00  0.00     0.027 A 
HETATM   11  C   UNK N   1      26.889  19.820   6.066  0.00  0.00     0.085 A 
HETATM   12  C   UNK N   1      27.012  19.292   4.643  0.00  0.00    -0.021 A 
HETATM   13  C   UNK N   1      27.892  18.332   4.281  0.00  0.00    -0.003 A 
HETATM   14  C   UNK N   1      28.823  17.717   5.258  0.00  0.00     0.014 A 
HETATM   15  C   UNK N   1      28.790  18.120   6.529  0.00  0.00     0.005 A 
HETATM   16  N   UNK N   1      31.136  16.499   9.127  0.00  0.00    -0.356 N 
ATOM     17  HN  UNK N   1      30.883  16.914  10.023  1.00  0.00     0.166 HD
HETATM   18  C   UNK N   1      32.051  15.607   8.948  0.00  0.00     0.025 A 
HETATM   19  C   UNK N   1      32.914  15.020  10.025  0.00  0.00     0.085 A 
HETATM   20  C   UNK N   1      33.898  14.009   9.451  0.00  0.00    -0.021 A 
HETATM   21  C   UNK N   1      33.969  13.698   8.135  0.00  0.00    -0.003 A 
HETATM   22  C   UNK N   1      33.076  14.329   7.128  0.00  0.00     0.015 A 
HETATM   23  C   UNK N   1      32.181  15.222   7.550  0.00  0.00     0.018 A 
ENDROOT
BRANCH   1  24
HETATM   24  O   UNK N   1      31.645  15.382   4.689  0.00  0.00    -0.269 OA
BRANCH  24  25
HETATM   25  C   UNK N   1      32.614  16.018   3.955  0.00  0.00     0.311 C 
BRANCH  25  26
HETATM   26  C   UNK N   1      32.662  17.470   4.271  0.00  0.00     0.166 C 
HETATM   27  O   UNK N   1      33.497  17.904   5.046  0.00  0.00    -0.648 OA
BRANCH  26  28
HETATM   28  O   UNK N   1      31.756  18.300   3.722  0.00  0.00    -0.775 OA
HETATM   29  H   UNK N   1      30.933  18.664   3.984  0.00  0.00     0.167 HD
ENDBRANCH  26  28
ENDBRANCH  25  26
ENDBRANCH  24  25
ENDBRANCH   1  24
TORSDOF 4
ENDMDL
MODEL 9
REMARK VINA RESULT:      -6.9     11.519     12.691
REMARK  4 active torsions:
REMARK  status: ('A' for Active; 'I' for Inactive)
REMARK    1  A    between atoms: O_1  and  C_2 
REMARK    2  A    between atoms: C_2  and  C_4 
REMARK    3  A    between atoms: C_4  and  O_5 
REMARK    4  A    between atoms: O_5  and  N_6 
ROOT
HETATM    1  N   UNK N   1      21.873  18.291   3.509  0.00  0.00    -0.263 N 
ATOM      2  HN  UNK N   1      22.714  18.845   3.347  1.00  0.00     0.194 HD
HETATM    3  C   UNK N   1      21.989  17.162   4.107  0.00  0.00     0.094 A 
HETATM    4  C   UNK N   1      23.244  16.537   4.539  0.00  0.00     0.079 A 
HETATM    5  C   UNK N   1      24.496  17.045   4.469  0.00  0.00     0.073 A 
HETATM    6  C   UNK N   1      25.750  16.383   4.854  0.00  0.00     0.259 A 
HETATM    7  O   UNK N   1      25.853  15.252   5.304  0.00  0.00    -0.267 OA
HETATM    8  N   UNK N   1      26.816  17.187   4.630  0.00  0.00    -0.325 N 
ATOM      9  HN  UNK N   1      27.788  16.940   4.815  1.00  0.00     0.169 HD
HETATM   10  C   UNK N   1      26.414  18.312   4.147  0.00  0.00     0.027 A 
HETATM   11  C   UNK N   1      27.299  19.468   3.781  0.00  0.00     0.085 A 
HETATM   12  C   UNK N   1      26.482  20.651   3.280  0.00  0.00    -0.021 A 
HETATM   13  C   UNK N   1      25.134  20.635   3.181  0.00  0.00    -0.003 A 
HETATM   14  C   UNK N   1      24.339  19.439   3.555  0.00  0.00     0.014 A 
HETATM   15  C   UNK N   1      24.970  18.353   4.002  0.00  0.00     0.005 A 
HETATM   16  N   UNK N   1      22.943  15.245   5.059  0.00  0.00    -0.356 N 
ATOM     17  HN  UNK N   1      23.626  14.582   5.424  1.00  0.00     0.166 HD
HETATM   18  C   UNK N   1      21.670  15.048   4.996  0.00  0.00     0.025 A 
HETATM   19  C   UNK N   1      20.960  13.805   5.444  0.00  0.00     0.085 A 
HETATM   20  C   UNK N   1      19.459  13.912   5.206  0.00  0.00    -0.021 A 
HETATM   21  C   UNK N   1      18.865  14.998   4.657  0.00  0.00    -0.003 A 
HETATM   22  C   UNK N   1      19.643  16.193   4.236  0.00  0.00     0.015 A 
HETATM   23  C   UNK N   1      20.963  16.181   4.415  0.00  0.00     0.018 A 
ENDROOT
BRANCH   1  24
HETATM   24  O   UNK N   1      20.722  18.768   3.095  0.00  0.00    -0.269 OA
BRANCH  24  25
HETATM   25  C   UNK N   1      20.520  18.885   1.743  0.00  0.00     0.311 C 
BRANCH  25  26
HETATM   26  C   UNK N   1      20.942  20.223   1.249  0.00  0.00     0.166 C 
HETATM   27  O   UNK N   1      21.524  20.996   1.990  0.00  0.00    -0.648 OA
BRANCH  26  28
HETATM   28  O   UNK N   1      20.647  20.589  -0.012  0.00  0.00    -0.775 OA
HETATM   29  H   UNK N   1      20.936  21.257  -0.602  0.00  0.00     0.167 HD
ENDBRANCH  26  28
ENDBRANCH  25  26
ENDBRANCH  24  25
ENDBRANCH   1  24
TORSDOF 4
ENDMDL
