REMARK  4 active torsions:
REMARK  status: ('A' for Active; 'I' for Inactive)
REMARK    1  A    between atoms: O_1  and  C_2 
REMARK    2  A    between atoms: C_2  and  C_4 
REMARK    3  A    between atoms: C_4  and  O_5 
REMARK    4  A    between atoms: O_5  and  N_6 
ROOT
HETATM    1  N   UNK N   1       0.509  -0.740  -0.073  0.00  0.00    -0.263 N 
ATOM      2  HN  UNK N   1      -0.488  -0.950  -0.123  1.00  0.00     0.194 HD
HETATM    3  C   UNK N   1       0.874   0.490  -0.041  0.00  0.00     0.094 A 
HETATM    4  C   UNK N   1      -0.010   1.657  -0.133  0.00  0.00     0.079 A 
HETATM    5  C   UNK N   1      -1.361   1.678  -0.190  0.00  0.00     0.073 A 
HETATM    6  C   UNK N   1      -2.230   2.853  -0.339  0.00  0.00     0.259 A 
HETATM    7  O   UNK N   1      -1.855   4.012  -0.438  0.00  0.00    -0.267 OA
HETATM    8  N   UNK N   1      -3.535   2.495  -0.376  0.00  0.00    -0.325 N 
ATOM      9  HN  UNK N   1      -4.319   3.139  -0.480  1.00  0.00     0.169 HD
HETATM   10  C   UNK N   1      -3.635   1.216  -0.260  0.00  0.00     0.027 A 
HETATM   11  C   UNK N   1      -4.920   0.441  -0.243  0.00  0.00     0.085 A 
HETATM   12  C   UNK N   1      -4.665  -1.047  -0.048  0.00  0.00    -0.021 A 
HETATM   13  C   UNK N   1      -3.429  -1.578   0.084  0.00  0.00    -0.003 A 
HETATM   14  C   UNK N   1      -2.209  -0.735   0.042  0.00  0.00     0.014 A 
HETATM   15  C   UNK N   1      -2.335   0.582  -0.129  0.00  0.00     0.005 A 
HETATM   16  N   UNK N   1       0.801   2.828  -0.169  0.00  0.00    -0.356 N 
ATOM     17  HN  UNK N   1       0.454   3.784  -0.242  1.00  0.00     0.166 HD
HETATM   18  C   UNK N   1       2.043   2.488  -0.095  0.00  0.00     0.025 A 
HETATM   19  C   UNK N   1       3.206   3.435  -0.106  0.00  0.00     0.085 A 
HETATM   20  C   UNK N   1       4.528   2.684  -0.020  0.00  0.00    -0.021 A 
HETATM   21  C   UNK N   1       4.619   1.335   0.053  0.00  0.00    -0.003 A 
HETATM   22  C   UNK N   1       3.414   0.464   0.056  0.00  0.00     0.015 A 
HETATM   23  C   UNK N   1       2.216   1.044  -0.011  0.00  0.00     0.018 A 
ENDROOT
BRANCH   1  24
HETATM   24  O   UNK N   1       1.358  -1.741  -0.045  0.00  0.00    -0.269 OA
BRANCH  24  25
HETATM   25  C   UNK N   1       0.883  -2.998  -0.322  0.00  0.00     0.311 C 
BRANCH  25  26
HETATM   26  C   UNK N   1       1.895  -4.039   0.000  0.00  0.00     0.166 C 
HETATM   27  O   UNK N   1       2.980  -4.035  -0.556  0.00  0.00    -0.648 OA
BRANCH  26  28
HETATM   28  O   UNK N   1       1.594  -5.007   0.885  0.00  0.00    -0.775 OA
HETATM   29  H   UNK N   1       0.905  -5.163   1.501  0.00  0.00     0.167 HD
ENDBRANCH  26  28
ENDBRANCH  25  26
ENDBRANCH  24  25
ENDBRANCH   1  24
TORSDOF 4
