MODEL 1
REMARK VINA RESULT:      -6.8      0.000      0.000
REMARK  8 active torsions:
REMARK  status: ('A' for Active; 'I' for Inactive)
REMARK    1  A    between atoms: O_1  and  C_2 
REMARK    2  A    between atoms: C_2  and  C_4 
REMARK    3  A    between atoms: C_4  and  C_5 
REMARK    4  A    between atoms: C_5  and  C_6 
REMARK    5  A    between atoms: C_5  and  N_9 
REMARK    6  A    between atoms: C_6  and  O_8 
REMARK       I    between atoms: N_9  and  C_10 
REMARK    7  A    between atoms: C_10  and  C_12 
REMARK    8  A    between atoms: C_12  and  C_13 
ROOT
HETATM    1  N   UNK N   1      34.293  15.614   8.124  0.00  0.00    -0.346 N 
HETATM    2  C   UNK N   1      34.105  16.441   7.058  0.00  0.00     0.222 C 
HETATM    3  O   UNK N   1      34.700  16.215   6.016  0.00  0.00    -0.273 OA
HETATM    4  H   UNK N   1      34.935  14.874   8.026  0.00  0.00     0.163 HD
ENDROOT
BRANCH   2   5
HETATM    5  C   UNK N   1      33.221  17.657   7.149  0.00  0.00     0.143 C 
BRANCH   5   6
HETATM    6  C   UNK N   1      31.770  17.361   6.935  0.00  0.00    -0.022 A 
HETATM    7  C   UNK N   1      31.196  16.679   5.865  0.00  0.00     0.097 A 
HETATM    8  N   UNK N   1      29.855  16.578   6.057  0.00  0.00    -0.365 N 
HETATM    9  C   UNK N   1      29.599  17.185   7.233  0.00  0.00     0.042 A 
HETATM   10  H   UNK N   1      29.202  16.149   5.458  0.00  0.00     0.165 HD
HETATM   11  C   UNK N   1      30.746  17.671   7.791  0.00  0.00    -0.001 A 
HETATM   12  C   UNK N   1      28.362  17.320   7.856  0.00  0.00     0.030 A 
HETATM   13  C   UNK N   1      30.744  18.334   9.018  0.00  0.00     0.014 A 
HETATM   14  C   UNK N   1      29.509  18.491   9.675  0.00  0.00     0.001 A 
HETATM   15  C   UNK N   1      28.323  17.985   9.097  0.00  0.00     0.002 A 
ENDBRANCH   5   6
ENDBRANCH   2   5
BRANCH   1  16
HETATM   16  C   UNK N   1      33.608  15.754   9.401  0.00  0.00     0.192 C 
BRANCH  16  17
HETATM   17  C   UNK N   1      34.596  15.560  10.567  0.00  0.00     0.146 C 
BRANCH  17  18
HETATM   18  C   UNK N   1      35.759  16.510  10.631  0.00  0.00     0.141 C 
HETATM   19  O   UNK N   1      35.632  17.668  10.270  0.00  0.00    -0.650 OA
BRANCH  18  20
HETATM   20  O   UNK N   1      36.975  16.053  10.982  0.00  0.00    -0.776 OA
HETATM   21  H   UNK N   1      37.831  16.404  10.833  0.00  0.00     0.167 HD
ENDBRANCH  18  20
ENDBRANCH  17  18
ENDBRANCH  16  17
BRANCH  16  22
HETATM   22  C   UNK N   1      32.407  14.841   9.423  0.00  0.00     0.164 C 
HETATM   23  O   UNK N   1      32.306  13.963   8.580  0.00  0.00    -0.648 OA
BRANCH  22  24
HETATM   24  O   UNK N   1      31.428  14.990  10.335  0.00  0.00    -0.775 OA
HETATM   25  H   UNK N   1      30.526  15.028  10.085  0.00  0.00     0.167 HD
ENDBRANCH  22  24
ENDBRANCH  16  22
ENDBRANCH   1  16
TORSDOF 8
ENDMDL
MODEL 2
REMARK VINA RESULT:      -6.6      6.366      9.661
REMARK  8 active torsions:
REMARK  status: ('A' for Active; 'I' for Inactive)
REMARK    1  A    between atoms: O_1  and  C_2 
REMARK    2  A    between atoms: C_2  and  C_4 
REMARK    3  A    between atoms: C_4  and  C_5 
REMARK    4  A    between atoms: C_5  and  C_6 
REMARK    5  A    between atoms: C_5  and  N_9 
REMARK    6  A    between atoms: C_6  and  O_8 
REMARK       I    between atoms: N_9  and  C_10 
REMARK    7  A    between atoms: C_10  and  C_12 
REMARK    8  A    between atoms: C_12  and  C_13 
ROOT
HETATM    1  N   UNK N   1      36.816  14.407  13.291  0.00  0.00    -0.346 N 
HETATM    2  C   UNK N   1      36.566  14.053  14.583  0.00  0.00     0.222 C 
HETATM    3  O   UNK N   1      37.417  14.259  15.433  0.00  0.00    -0.273 OA
HETATM    4  H   UNK N   1      37.699  14.790  13.082  0.00  0.00     0.163 HD
ENDROOT
BRANCH   2   5
HETATM    5  C   UNK N   1      35.284  13.369  14.978  0.00  0.00     0.143 C 
BRANCH   5   6
HETATM    6  C   UNK N   1      35.488  12.171  15.851  0.00  0.00    -0.022 A 
HETATM    7  C   UNK N   1      35.822  10.880  15.448  0.00  0.00     0.097 A 
HETATM    8  N   UNK N   1      35.959  10.085  16.542  0.00  0.00    -0.365 N 
HETATM    9  C   UNK N   1      35.718  10.872  17.609  0.00  0.00     0.042 A 
HETATM   10  H   UNK N   1      36.188   9.127  16.552  0.00  0.00     0.165 HD
HETATM   11  C   UNK N   1      35.429  12.147  17.220  0.00  0.00    -0.001 A 
HETATM   12  C   UNK N   1      35.756  10.501  18.950  0.00  0.00     0.030 A 
HETATM   13  C   UNK N   1      35.152  13.154  18.144  0.00  0.00     0.014 A 
HETATM   14  C   UNK N   1      35.179  12.814  19.509  0.00  0.00     0.001 A 
HETATM   15  C   UNK N   1      35.481  11.493  19.911  0.00  0.00     0.002 A 
ENDBRANCH   5   6
ENDBRANCH   2   5
BRANCH   1  16
HETATM   16  C   UNK N   1      35.865  14.254  12.200  0.00  0.00     0.192 C 
BRANCH  16  17
HETATM   17  C   UNK N   1      36.146  12.957  11.417  0.00  0.00     0.146 C 
BRANCH  17  18
HETATM   18  C   UNK N   1      37.585  12.539  11.298  0.00  0.00     0.141 C 
HETATM   19  O   UNK N   1      37.928  11.408  11.600  0.00  0.00    -0.650 OA
BRANCH  18  20
HETATM   20  O   UNK N   1      38.518  13.448  10.964  0.00  0.00    -0.776 OA
HETATM   21  H   UNK N   1      38.644  14.334  11.244  0.00  0.00     0.167 HD
ENDBRANCH  18  20
ENDBRANCH  17  18
ENDBRANCH  16  17
BRANCH  16  22
HETATM   22  C   UNK N   1      35.858  15.513  11.367  0.00  0.00     0.164 C 
HETATM   23  O   UNK N   1      34.791  16.014  11.049  0.00  0.00    -0.648 OA
BRANCH  22  24
HETATM   24  O   UNK N   1      37.002  16.081  10.943  0.00  0.00    -0.775 OA
HETATM   25  H   UNK N   1      37.050  16.537  10.126  0.00  0.00     0.167 HD
ENDBRANCH  22  24
ENDBRANCH  16  22
ENDBRANCH   1  16
TORSDOF 8
ENDMDL
MODEL 3
REMARK VINA RESULT:      -6.6      6.592      9.914
REMARK  8 active torsions:
REMARK  status: ('A' for Active; 'I' for Inactive)
REMARK    1  A    between atoms: O_1  and  C_2 
REMARK    2  A    between atoms: C_2  and  C_4 
REMARK    3  A    between atoms: C_4  and  C_5 
REMARK    4  A    between atoms: C_5  and  C_6 
REMARK    5  A    between atoms: C_5  and  N_9 
REMARK    6  A    between atoms: C_6  and  O_8 
REMARK       I    between atoms: N_9  and  C_10 
REMARK    7  A    between atoms: C_10  and  C_12 
REMARK    8  A    between atoms: C_12  and  C_13 
ROOT
HETATM    1  N   UNK N   1      36.810  14.488  13.512  0.00  0.00    -0.346 N 
HETATM    2  C   UNK N   1      36.612  14.210  14.830  0.00  0.00     0.222 C 
HETATM    3  O   UNK N   1      37.476  14.507  15.639  0.00  0.00    -0.273 OA
HETATM    4  H   UNK N   1      37.668  14.894  13.251  0.00  0.00     0.163 HD
ENDROOT
BRANCH   2   5
HETATM    5  C   UNK N   1      35.374  13.498  15.308  0.00  0.00     0.143 C 
BRANCH   5   6
HETATM    6  C   UNK N   1      35.356  13.248  16.784  0.00  0.00    -0.022 A 
HETATM    7  C   UNK N   1      35.279  14.199  17.799  0.00  0.00     0.097 A 
HETATM    8  N   UNK N   1      35.244  13.572  19.005  0.00  0.00    -0.365 N 
HETATM    9  C   UNK N   1      35.294  12.252  18.741  0.00  0.00     0.042 A 
HETATM   10  H   UNK N   1      35.194  13.998  19.891  0.00  0.00     0.165 HD
HETATM   11  C   UNK N   1      35.363  12.023  17.398  0.00  0.00    -0.001 A 
HETATM   12  C   UNK N   1      35.270  11.210  19.665  0.00  0.00     0.030 A 
HETATM   13  C   UNK N   1      35.413  10.733  16.871  0.00  0.00     0.014 A 
HETATM   14  C   UNK N   1      35.393   9.657  17.777  0.00  0.00     0.001 A 
HETATM   15  C   UNK N   1      35.321   9.894  19.169  0.00  0.00     0.002 A 
ENDBRANCH   5   6
ENDBRANCH   2   5
BRANCH   1  16
HETATM   16  C   UNK N   1      35.837  14.223  12.463  0.00  0.00     0.192 C 
BRANCH  16  17
HETATM   17  C   UNK N   1      36.137  12.877  11.775  0.00  0.00     0.146 C 
BRANCH  17  18
HETATM   18  C   UNK N   1      37.570  12.424  11.778  0.00  0.00     0.141 C 
HETATM   19  O   UNK N   1      37.912  11.459  12.442  0.00  0.00    -0.650 OA
BRANCH  18  20
HETATM   20  O   UNK N   1      38.502  13.150  11.136  0.00  0.00    -0.776 OA
HETATM   21  H   UNK N   1      39.317  13.506  11.430  0.00  0.00     0.167 HD
ENDBRANCH  18  20
ENDBRANCH  17  18
ENDBRANCH  16  17
BRANCH  16  22
HETATM   22  C   UNK N   1      35.769  15.412  11.535  0.00  0.00     0.164 C 
HETATM   23  O   UNK N   1      34.679  15.843  11.193  0.00  0.00    -0.648 OA
BRANCH  22  24
HETATM   24  O   UNK N   1      36.885  15.991  11.053  0.00  0.00    -0.775 OA
HETATM   25  H   UNK N   1      36.901  16.399  10.210  0.00  0.00     0.167 HD
ENDBRANCH  22  24
ENDBRANCH  16  22
ENDBRANCH   1  16
TORSDOF 8
ENDMDL
MODEL 4
REMARK VINA RESULT:      -6.5      2.461      3.704
REMARK  8 active torsions:
REMARK  status: ('A' for Active; 'I' for Inactive)
REMARK    1  A    between atoms: O_1  and  C_2 
REMARK    2  A    between atoms: C_2  and  C_4 
REMARK    3  A    between atoms: C_4  and  C_5 
REMARK    4  A    between atoms: C_5  and  C_6 
REMARK    5  A    between atoms: C_5  and  N_9 
REMARK    6  A    between atoms: C_6  and  O_8 
REMARK       I    between atoms: N_9  and  C_10 
REMARK    7  A    between atoms: C_10  and  C_12 
REMARK    8  A    between atoms: C_12  and  C_13 
ROOT
HETATM    1  N   UNK N   1      32.060  17.766   8.578  0.00  0.00    -0.346 N 
HETATM    2  C   UNK N   1      30.721  17.989   8.687  0.00  0.00     0.222 C 
HETATM    3  O   UNK N   1      30.320  18.850   9.454  0.00  0.00    -0.273 OA
HETATM    4  H   UNK N   1      32.662  18.290   9.154  0.00  0.00     0.163 HD
ENDROOT
BRANCH   2   5
HETATM    5  C   UNK N   1      29.720  17.165   7.921  0.00  0.00     0.143 C 
BRANCH   5   6
HETATM    6  C   UNK N   1      29.379  17.729   6.577  0.00  0.00    -0.022 A 
HETATM    7  C   UNK N   1      29.817  17.275   5.336  0.00  0.00     0.097 A 
HETATM    8  N   UNK N   1      29.252  18.024   4.353  0.00  0.00    -0.365 N 
HETATM    9  C   UNK N   1      28.470  18.928   4.976  0.00  0.00     0.042 A 
HETATM   10  H   UNK N   1      29.387  17.927   3.383  0.00  0.00     0.165 HD
HETATM   11  C   UNK N   1      28.527  18.773   6.330  0.00  0.00    -0.001 A 
HETATM   12  C   UNK N   1      27.677  19.905   4.379  0.00  0.00     0.030 A 
HETATM   13  C   UNK N   1      27.795  19.584   7.196  0.00  0.00     0.014 A 
HETATM   14  C   UNK N   1      26.984  20.584   6.627  0.00  0.00     0.001 A 
HETATM   15  C   UNK N   1      26.925  20.743   5.223  0.00  0.00     0.002 A 
ENDBRANCH   5   6
ENDBRANCH   2   5
BRANCH   1  16
HETATM   16  C   UNK N   1      32.660  16.801   7.668  0.00  0.00     0.192 C 
BRANCH  16  17
HETATM   17  C   UNK N   1      33.150  15.562   8.442  0.00  0.00     0.146 C 
BRANCH  17  18
HETATM   18  C   UNK N   1      33.689  15.800   9.824  0.00  0.00     0.141 C 
HETATM   19  O   UNK N   1      34.607  16.582  10.004  0.00  0.00    -0.650 OA
BRANCH  18  20
HETATM   20  O   UNK N   1      33.232  15.065  10.854  0.00  0.00    -0.776 OA
HETATM   21  H   UNK N   1      32.556  14.417  10.897  0.00  0.00     0.167 HD
ENDBRANCH  18  20
ENDBRANCH  17  18
ENDBRANCH  16  17
BRANCH  16  22
HETATM   22  C   UNK N   1      33.712  17.492   6.835  0.00  0.00     0.164 C 
HETATM   23  O   UNK N   1      33.699  17.357   5.621  0.00  0.00    -0.648 OA
BRANCH  22  24
HETATM   24  O   UNK N   1      34.685  18.229   7.403  0.00  0.00    -0.775 OA
HETATM   25  H   UNK N   1      35.393  17.831   7.870  0.00  0.00     0.167 HD
ENDBRANCH  22  24
ENDBRANCH  16  22
ENDBRANCH   1  16
TORSDOF 8
ENDMDL
MODEL 5
REMARK VINA RESULT:      -6.5      2.622      3.759
REMARK  8 active torsions:
REMARK  status: ('A' for Active; 'I' for Inactive)
REMARK    1  A    between atoms: O_1  and  C_2 
REMARK    2  A    between atoms: C_2  and  C_4 
REMARK    3  A    between atoms: C_4  and  C_5 
REMARK    4  A    between atoms: C_5  and  C_6 
REMARK    5  A    between atoms: C_5  and  N_9 
REMARK    6  A    between atoms: C_6  and  O_8 
REMARK       I    between atoms: N_9  and  C_10 
REMARK    7  A    between atoms: C_10  and  C_12 
REMARK    8  A    between atoms: C_12  and  C_13 
ROOT
HETATM    1  N   UNK N   1      31.885  17.152   6.299  0.00  0.00    -0.346 N 
HETATM    2  C   UNK N   1      30.738  16.927   5.601  0.00  0.00     0.222 C 
HETATM    3  O   UNK N   1      30.734  17.088   4.391  0.00  0.00    -0.273 OA
HETATM    4  H   UNK N   1      32.672  17.473   5.801  0.00  0.00     0.163 HD
ENDROOT
BRANCH   2   5
HETATM    5  C   UNK N   1      29.458  16.534   6.292  0.00  0.00     0.143 C 
BRANCH   5   6
HETATM    6  C   UNK N   1      28.719  17.689   6.890  0.00  0.00    -0.022 A 
HETATM    7  C   UNK N   1      28.510  17.949   8.242  0.00  0.00     0.097 A 
HETATM    8  N   UNK N   1      27.831  19.118   8.380  0.00  0.00    -0.365 N 
HETATM    9  C   UNK N   1      27.625  19.580   7.131  0.00  0.00     0.042 A 
HETATM   10  H   UNK N   1      27.546  19.541   9.222  0.00  0.00     0.165 HD
HETATM   11  C   UNK N   1      28.154  18.731   6.202  0.00  0.00    -0.001 A 
HETATM   12  C   UNK N   1      26.979  20.759   6.768  0.00  0.00     0.030 A 
HETATM   13  C   UNK N   1      28.079  18.996   4.835  0.00  0.00     0.014 A 
HETATM   14  C   UNK N   1      27.431  20.178   4.433  0.00  0.00     0.001 A 
HETATM   15  C   UNK N   1      26.884  21.057   5.395  0.00  0.00     0.002 A 
ENDBRANCH   5   6
ENDBRANCH   2   5
BRANCH   1  16
HETATM   16  C   UNK N   1      32.025  16.953   7.734  0.00  0.00     0.192 C 
BRANCH  16  17
HETATM   17  C   UNK N   1      32.830  18.106   8.364  0.00  0.00     0.146 C 
BRANCH  17  18
HETATM   18  C   UNK N   1      34.224  18.318   7.842  0.00  0.00     0.141 C 
HETATM   19  O   UNK N   1      34.994  19.066   8.421  0.00  0.00    -0.650 OA
BRANCH  18  20
HETATM   20  O   UNK N   1      34.587  17.770   6.668  0.00  0.00    -0.776 OA
HETATM   21  H   UNK N   1      34.117  17.219   6.074  0.00  0.00     0.167 HD
ENDBRANCH  18  20
ENDBRANCH  17  18
ENDBRANCH  16  17
BRANCH  16  22
HETATM   22  C   UNK N   1      32.578  15.572   7.993  0.00  0.00     0.164 C 
HETATM   23  O   UNK N   1      33.302  15.052   7.159  0.00  0.00    -0.648 OA
BRANCH  22  24
HETATM   24  O   UNK N   1      32.266  14.889   9.109  0.00  0.00    -0.775 OA
HETATM   25  H   UNK N   1      31.433  14.473   9.214  0.00  0.00     0.167 HD
ENDBRANCH  22  24
ENDBRANCH  16  22
ENDBRANCH   1  16
TORSDOF 8
ENDMDL
MODEL 6
REMARK VINA RESULT:      -6.4      9.500     12.486
REMARK  8 active torsions:
REMARK  status: ('A' for Active; 'I' for Inactive)
REMARK    1  A    between atoms: O_1  and  C_2 
REMARK    2  A    between atoms: C_2  and  C_4 
REMARK    3  A    between atoms: C_4  and  C_5 
REMARK    4  A    between atoms: C_5  and  C_6 
REMARK    5  A    between atoms: C_5  and  N_9 
REMARK    6  A    between atoms: C_6  and  O_8 
REMARK       I    between atoms: N_9  and  C_10 
REMARK    7  A    between atoms: C_10  and  C_12 
REMARK    8  A    between atoms: C_12  and  C_13 
ROOT
HETATM    1  N   UNK N   1      20.918  19.042   4.272  0.00  0.00    -0.346 N 
HETATM    2  C   UNK N   1      21.724  18.124   4.876  0.00  0.00     0.222 C 
HETATM    3  O   UNK N   1      21.666  17.985   6.087  0.00  0.00    -0.273 OA
HETATM    4  H   UNK N   1      20.336  19.591   4.845  0.00  0.00     0.163 HD
ENDROOT
BRANCH   2   5
HETATM    5  C   UNK N   1      22.720  17.312   4.091  0.00  0.00     0.143 C 
BRANCH   5   6
HETATM    6  C   UNK N   1      24.128  17.457   4.576  0.00  0.00    -0.022 A 
HETATM    7  C   UNK N   1      24.819  16.600   5.430  0.00  0.00     0.097 A 
HETATM    8  N   UNK N   1      26.089  17.053   5.596  0.00  0.00    -0.365 N 
HETATM    9  C   UNK N   1      26.187  18.173   4.852  0.00  0.00     0.042 A 
HETATM   10  H   UNK N   1      26.794  16.647   6.150  0.00  0.00     0.165 HD
HETATM   11  C   UNK N   1      25.010  18.444   4.219  0.00  0.00    -0.001 A 
HETATM   12  C   UNK N   1      27.311  18.981   4.697  0.00  0.00     0.030 A 
HETATM   13  C   UNK N   1      24.861  19.547   3.380  0.00  0.00     0.014 A 
HETATM   14  C   UNK N   1      25.976  20.387   3.202  0.00  0.00     0.001 A 
HETATM   15  C   UNK N   1      27.196  20.105   3.857  0.00  0.00     0.002 A 
ENDBRANCH   5   6
ENDBRANCH   2   5
BRANCH   1  16
HETATM   16  C   UNK N   1      20.865  19.267   2.836  0.00  0.00     0.192 C 
BRANCH  16  17
HETATM   17  C   UNK N   1      20.843  20.777   2.526  0.00  0.00     0.146 C 
BRANCH  17  18
HETATM   18  C   UNK N   1      20.803  21.166   1.075  0.00  0.00     0.141 C 
HETATM   19  O   UNK N   1      21.306  20.448   0.227  0.00  0.00    -0.650 OA
BRANCH  18  20
HETATM   20  O   UNK N   1      20.308  22.366   0.719  0.00  0.00    -0.776 OA
HETATM   21  H   UNK N   1      20.398  23.211   1.114  0.00  0.00     0.167 HD
ENDBRANCH  18  20
ENDBRANCH  17  18
ENDBRANCH  16  17
BRANCH  16  22
HETATM   22  C   UNK N   1      19.717  18.479   2.252  0.00  0.00     0.164 C 
HETATM   23  O   UNK N   1      19.953  17.536   1.514  0.00  0.00    -0.648 OA
BRANCH  22  24
HETATM   24  O   UNK N   1      18.438  18.812   2.503  0.00  0.00    -0.775 OA
HETATM   25  H   UNK N   1      17.941  19.338   1.907  0.00  0.00     0.167 HD
ENDBRANCH  22  24
ENDBRANCH  16  22
ENDBRANCH   1  16
TORSDOF 8
ENDMDL
MODEL 7
REMARK VINA RESULT:      -6.3     12.277     13.548
REMARK  8 active torsions:
REMARK  status: ('A' for Active; 'I' for Inactive)
REMARK    1  A    between atoms: O_1  and  C_2 
REMARK    2  A    between atoms: C_2  and  C_4 
REMARK    3  A    between atoms: C_4  and  C_5 
REMARK    4  A    between atoms: C_5  and  C_6 
REMARK    5  A    between atoms: C_5  and  N_9 
REMARK    6  A    between atoms: C_6  and  O_8 
REMARK       I    between atoms: N_9  and  C_10 
REMARK    7  A    between atoms: C_10  and  C_12 
REMARK    8  A    between atoms: C_12  and  C_13 
ROOT
HETATM    1  N   UNK N   1      19.167  17.211   3.280  0.00  0.00    -0.346 N 
HETATM    2  C   UNK N   1      19.365  16.500   4.425  0.00  0.00     0.222 C 
HETATM    3  O   UNK N   1      18.401  16.049   5.022  0.00  0.00    -0.273 OA
HETATM    4  H   UNK N   1      18.239  17.366   2.990  0.00  0.00     0.163 HD
ENDROOT
BRANCH   2   5
HETATM    5  C   UNK N   1      20.743  16.299   5.000  0.00  0.00     0.143 C 
BRANCH   5   6
HETATM    6  C   UNK N   1      20.759  16.166   6.490  0.00  0.00    -0.022 A 
HETATM    7  C   UNK N   1      20.497  17.160   7.429  0.00  0.00     0.097 A 
HETATM    8  N   UNK N   1      20.569  16.633   8.680  0.00  0.00    -0.365 N 
HETATM    9  C   UNK N   1      20.867  15.329   8.519  0.00  0.00     0.042 A 
HETATM   10  H   UNK N   1      20.432  17.109   9.531  0.00  0.00     0.165 HD
HETATM   11  C   UNK N   1      20.989  15.014   7.197  0.00  0.00    -0.001 A 
HETATM   12  C   UNK N   1      21.029  14.375   9.521  0.00  0.00     0.030 A 
HETATM   13  C   UNK N   1      21.284  13.720   6.771  0.00  0.00     0.014 A 
HETATM   14  C   UNK N   1      21.457  12.731   7.758  0.00  0.00     0.001 A 
HETATM   15  C   UNK N   1      21.329  13.057   9.127  0.00  0.00     0.002 A 
ENDBRANCH   5   6
ENDBRANCH   2   5
BRANCH   1  16
HETATM   16  C   UNK N   1      20.236  17.758   2.459  0.00  0.00     0.192 C 
BRANCH  16  17
HETATM   17  C   UNK N   1      20.065  19.281   2.295  0.00  0.00     0.146 C 
BRANCH  17  18
HETATM   18  C   UNK N   1      20.722  20.149   3.332  0.00  0.00     0.141 C 
HETATM   19  O   UNK N   1      20.802  19.774   4.491  0.00  0.00    -0.650 OA
BRANCH  18  20
HETATM   20  O   UNK N   1      21.123  21.390   3.006  0.00  0.00    -0.776 OA
HETATM   21  H   UNK N   1      20.643  22.130   2.689  0.00  0.00     0.167 HD
ENDBRANCH  18  20
ENDBRANCH  17  18
ENDBRANCH  16  17
BRANCH  16  22
HETATM   22  C   UNK N   1      20.317  16.982   1.167  0.00  0.00     0.164 C 
HETATM   23  O   UNK N   1      20.458  15.770   1.204  0.00  0.00    -0.648 OA
BRANCH  22  24
HETATM   24  O   UNK N   1      20.267  17.601  -0.027  0.00  0.00    -0.775 OA
HETATM   25  H   UNK N   1      19.862  18.440  -0.129  0.00  0.00     0.167 HD
ENDBRANCH  22  24
ENDBRANCH  16  22
ENDBRANCH   1  16
TORSDOF 8
ENDMDL
MODEL 8
REMARK VINA RESULT:      -6.2     14.495     17.001
REMARK  8 active torsions:
REMARK  status: ('A' for Active; 'I' for Inactive)
REMARK    1  A    between atoms: O_1  and  C_2 
REMARK    2  A    between atoms: C_2  and  C_4 
REMARK    3  A    between atoms: C_4  and  C_5 
REMARK    4  A    between atoms: C_5  and  C_6 
REMARK    5  A    between atoms: C_5  and  N_9 
REMARK    6  A    between atoms: C_6  and  O_8 
REMARK       I    between atoms: N_9  and  C_10 
REMARK    7  A    between atoms: C_10  and  C_12 
REMARK    8  A    between atoms: C_12  and  C_13 
ROOT
HETATM    1  N   UNK N   1      25.961  25.361  -4.220  0.00  0.00    -0.346 N 
HETATM    2  C   UNK N   1      26.955  24.607  -3.674  0.00  0.00     0.222 C 
HETATM    3  O   UNK N   1      26.695  23.859  -2.745  0.00  0.00    -0.273 OA
HETATM    4  H   UNK N   1      25.064  25.300  -3.820  0.00  0.00     0.163 HD
ENDROOT
BRANCH   2   5
HETATM    5  C   UNK N   1      28.379  24.710  -4.155  0.00  0.00     0.143 C 
BRANCH   5   6
HETATM    6  C   UNK N   1      28.871  23.477  -4.844  0.00  0.00    -0.022 A 
HETATM    7  C   UNK N   1      28.476  22.991  -6.088  0.00  0.00     0.097 A 
HETATM    8  N   UNK N   1      29.186  21.870  -6.383  0.00  0.00    -0.365 N 
HETATM    9  C   UNK N   1      30.014  21.666  -5.339  0.00  0.00     0.042 A 
HETATM   10  H   UNK N   1      29.110  21.319  -7.195  0.00  0.00     0.165 HD
HETATM   11  C   UNK N   1      29.845  22.628  -4.387  0.00  0.00    -0.001 A 
HETATM   12  C   UNK N   1      30.946  20.642  -5.195  0.00  0.00     0.030 A 
HETATM   13  C   UNK N   1      30.596  22.641  -3.212  0.00  0.00     0.014 A 
HETATM   14  C   UNK N   1      31.546  21.619  -3.032  0.00  0.00     0.001 A 
HETATM   15  C   UNK N   1      31.721  20.623  -4.020  0.00  0.00     0.002 A 
ENDBRANCH   5   6
ENDBRANCH   2   5
BRANCH   1  16
HETATM   16  C   UNK N   1      26.139  26.253  -5.356  0.00  0.00     0.192 C 
BRANCH  16  17
HETATM   17  C   UNK N   1      25.385  27.577  -5.126  0.00  0.00     0.146 C 
BRANCH  17  18
HETATM   18  C   UNK N   1      25.667  28.299  -3.839  0.00  0.00     0.141 C 
HETATM   19  O   UNK N   1      25.528  27.731  -2.768  0.00  0.00    -0.650 OA
BRANCH  18  20
HETATM   20  O   UNK N   1      25.966  29.610  -3.860  0.00  0.00    -0.776 OA
HETATM   21  H   UNK N   1      26.127  30.217  -3.165  0.00  0.00     0.167 HD
ENDBRANCH  18  20
ENDBRANCH  17  18
ENDBRANCH  16  17
BRANCH  16  22
HETATM   22  C   UNK N   1      25.773  25.522  -6.625  0.00  0.00     0.164 C 
HETATM   23  O   UNK N   1      25.953  26.066  -7.703  0.00  0.00    -0.648 OA
BRANCH  22  24
HETATM   24  O   UNK N   1      25.223  24.294  -6.593  0.00  0.00    -0.775 OA
HETATM   25  H   UNK N   1      24.971  23.889  -5.786  0.00  0.00     0.167 HD
ENDBRANCH  22  24
ENDBRANCH  16  22
ENDBRANCH   1  16
TORSDOF 8
ENDMDL
MODEL 9
REMARK VINA RESULT:      -6.2      2.094      4.301
REMARK  8 active torsions:
REMARK  status: ('A' for Active; 'I' for Inactive)
REMARK    1  A    between atoms: O_1  and  C_2 
REMARK    2  A    between atoms: C_2  and  C_4 
REMARK    3  A    between atoms: C_4  and  C_5 
REMARK    4  A    between atoms: C_5  and  C_6 
REMARK    5  A    between atoms: C_5  and  N_9 
REMARK    6  A    between atoms: C_6  and  O_8 
REMARK       I    between atoms: N_9  and  C_10 
REMARK    7  A    between atoms: C_10  and  C_12 
REMARK    8  A    between atoms: C_12  and  C_13 
ROOT
HETATM    1  N   UNK N   1      32.577  16.844   9.058  0.00  0.00    -0.346 N 
HETATM    2  C   UNK N   1      31.324  16.481   8.665  0.00  0.00     0.222 C 
HETATM    3  O   UNK N   1      30.361  16.868   9.307  0.00  0.00    -0.273 OA
HETATM    4  H   UNK N   1      32.664  17.385   9.876  0.00  0.00     0.163 HD
ENDROOT
BRANCH   2   5
HETATM    5  C   UNK N   1      31.100  15.572   7.485  0.00  0.00     0.143 C 
BRANCH   5   6
HETATM    6  C   UNK N   1      31.073  16.287   6.171  0.00  0.00    -0.022 A 
HETATM    7  C   UNK N   1      30.216  17.317   5.789  0.00  0.00     0.097 A 
HETATM    8  N   UNK N   1      30.537  17.731   4.535  0.00  0.00    -0.365 N 
HETATM    9  C   UNK N   1      31.580  16.973   4.146  0.00  0.00     0.042 A 
HETATM   10  H   UNK N   1      30.095  18.441   4.016  0.00  0.00     0.165 HD
HETATM   11  C   UNK N   1      31.930  16.085   5.121  0.00  0.00    -0.001 A 
HETATM   12  C   UNK N   1      32.263  17.043   2.934  0.00  0.00     0.030 A 
HETATM   13  C   UNK N   1      32.991  15.194   4.961  0.00  0.00     0.014 A 
HETATM   14  C   UNK N   1      33.701  15.236   3.747  0.00  0.00     0.001 A 
HETATM   15  C   UNK N   1      33.340  16.157   2.738  0.00  0.00     0.002 A 
ENDBRANCH   5   6
ENDBRANCH   2   5
BRANCH   1  16
HETATM   16  C   UNK N   1      33.795  16.483   8.349  0.00  0.00     0.192 C 
BRANCH  16  17
HETATM   17  C   UNK N   1      34.686  15.586   9.230  0.00  0.00     0.146 C 
BRANCH  17  18
HETATM   18  C   UNK N   1      34.466  15.666  10.715  0.00  0.00     0.141 C 
HETATM   19  O   UNK N   1      35.230  16.306  11.420  0.00  0.00    -0.650 OA
BRANCH  18  20
HETATM   20  O   UNK N   1      33.487  14.940  11.284  0.00  0.00    -0.776 OA
HETATM   21  H   UNK N   1      32.902  15.140  11.988  0.00  0.00     0.167 HD
ENDBRANCH  18  20
ENDBRANCH  17  18
ENDBRANCH  16  17
BRANCH  16  22
HETATM   22  C   UNK N   1      34.462  17.736   7.836  0.00  0.00     0.164 C 
HETATM   23  O   UNK N   1      35.041  18.471   8.621  0.00  0.00    -0.648 OA
BRANCH  22  24
HETATM   24  O   UNK N   1      34.407  18.078   6.535  0.00  0.00    -0.775 OA
HETATM   25  H   UNK N   1      35.152  17.994   5.974  0.00  0.00     0.167 HD
ENDBRANCH  22  24
ENDBRANCH  16  22
ENDBRANCH   1  16
TORSDOF 8
ENDMDL
