MODEL 1
REMARK VINA RESULT:      -6.6      0.000      0.000
REMARK  5 active torsions:
REMARK  status: ('A' for Active; 'I' for Inactive)
REMARK    1  A    between atoms: O_1  and  C_2 
REMARK    2  A    between atoms: C_2  and  C_4 
REMARK    3  A    between atoms: C_4  and  N_5 
REMARK       I    between atoms: N_5  and  C_6 
REMARK    4  A    between atoms: C_6  and  C_8 
REMARK    5  A    between atoms: C_8  and  C_9 
ROOT
HETATM    1  C   UNK N   1      29.031  17.752   7.247  0.00  0.00    -0.022 A 
HETATM    2  C   UNK N   1      28.561  18.012   8.533  0.00  0.00     0.097 A 
HETATM    3  N   UNK N   1      27.720  19.081   8.499  0.00  0.00    -0.365 N 
HETATM    4  C   UNK N   1      28.458  18.683   6.430  0.00  0.00    -0.001 A 
HETATM    5  C   UNK N   1      27.672  19.473   7.213  0.00  0.00     0.042 A 
HETATM    6  C   UNK N   1      26.941  20.531   6.680  0.00  0.00     0.030 A 
HETATM    7  C   UNK N   1      27.040  20.763   5.293  0.00  0.00     0.002 A 
HETATM    8  C   UNK N   1      27.858  19.940   4.485  0.00  0.00     0.001 A 
HETATM    9  C   UNK N   1      28.582  18.881   5.057  0.00  0.00     0.014 A 
HETATM   10  H   UNK N   1      27.244  19.485   9.260  0.00  0.00     0.165 HD
ENDROOT
BRANCH   1  11
HETATM   11  C   UNK N   1      29.970  16.694   6.759  0.00  0.00     0.143 C 
BRANCH  11  12
HETATM   12  C   UNK N   1      31.257  16.482   7.491  0.00  0.00     0.222 C 
HETATM   13  N   UNK N   1      31.935  17.580   7.886  0.00  0.00    -0.351 N 
HETATM   14  H   UNK N   1      31.557  18.464   7.678  0.00  0.00     0.163 HD
HETATM   15  O   UNK N   1      31.687  15.362   7.727  0.00  0.00    -0.273 OA
BRANCH  13  16
HETATM   16  C   UNK N   1      33.184  17.518   8.598  0.00  0.00     0.232 C 
BRANCH  16  17
HETATM   17  C   UNK N   1      34.253  18.226   7.821  0.00  0.00     0.158 C 
HETATM   18  O   UNK N   1      34.959  19.070   8.354  0.00  0.00    -0.649 OA
BRANCH  17  19
HETATM   19  O   UNK N   1      34.437  17.930   6.523  0.00  0.00    -0.775 OA
HETATM   20  H   UNK N   1      34.790  18.574   5.941  0.00  0.00     0.167 HD
ENDBRANCH  17  19
ENDBRANCH  16  17
ENDBRANCH  13  16
ENDBRANCH  11  12
ENDBRANCH   1  11
TORSDOF 5
ENDMDL
MODEL 2
REMARK VINA RESULT:      -6.5      8.220     11.616
REMARK  5 active torsions:
REMARK  status: ('A' for Active; 'I' for Inactive)
REMARK    1  A    between atoms: O_1  and  C_2 
REMARK    2  A    between atoms: C_2  and  C_4 
REMARK    3  A    between atoms: C_4  and  N_5 
REMARK       I    between atoms: N_5  and  C_6 
REMARK    4  A    between atoms: C_6  and  C_8 
REMARK    5  A    between atoms: C_8  and  C_9 
ROOT
HETATM    1  C   UNK N   1      36.525  12.950  14.728  0.00  0.00    -0.022 A 
HETATM    2  C   UNK N   1      37.063  11.772  14.212  0.00  0.00     0.097 A 
HETATM    3  N   UNK N   1      36.933  10.776  15.130  0.00  0.00    -0.365 N 
HETATM    4  C   UNK N   1      36.066  12.650  15.978  0.00  0.00    -0.001 A 
HETATM    5  C   UNK N   1      36.325  11.330  16.194  0.00  0.00     0.042 A 
HETATM    6  C   UNK N   1      35.977  10.704  17.388  0.00  0.00     0.030 A 
HETATM    7  C   UNK N   1      35.343  11.484  18.376  0.00  0.00     0.002 A 
HETATM    8  C   UNK N   1      35.075  12.854  18.146  0.00  0.00     0.001 A 
HETATM    9  C   UNK N   1      35.441  13.452  16.929  0.00  0.00     0.014 A 
HETATM   10  H   UNK N   1      37.224   9.841  15.034  0.00  0.00     0.165 HD
ENDROOT
BRANCH   1  11
HETATM   11  C   UNK N   1      36.423  14.313  14.119  0.00  0.00     0.143 C 
BRANCH  11  12
HETATM   12  C   UNK N   1      35.883  14.440  12.730  0.00  0.00     0.222 C 
HETATM   13  N   UNK N   1      36.628  15.121  11.834  0.00  0.00    -0.351 N 
HETATM   14  H   UNK N   1      37.486  15.502  12.129  0.00  0.00     0.163 HD
HETATM   15  O   UNK N   1      34.810  13.950  12.409  0.00  0.00    -0.273 OA
BRANCH  13  16
HETATM   16  C   UNK N   1      36.226  15.318  10.466  0.00  0.00     0.232 C 
BRANCH  16  17
HETATM   17  C   UNK N   1      35.239  16.444  10.377  0.00  0.00     0.158 C 
HETATM   18  O   UNK N   1      35.618  17.603  10.298  0.00  0.00    -0.649 OA
BRANCH  17  19
HETATM   19  O   UNK N   1      33.923  16.174  10.386  0.00  0.00    -0.775 OA
HETATM   20  H   UNK N   1      33.310  16.839  10.633  0.00  0.00     0.167 HD
ENDBRANCH  17  19
ENDBRANCH  16  17
ENDBRANCH  13  16
ENDBRANCH  11  12
ENDBRANCH   1  11
TORSDOF 5
ENDMDL
MODEL 3
REMARK VINA RESULT:      -6.4      5.309      9.144
REMARK  5 active torsions:
REMARK  status: ('A' for Active; 'I' for Inactive)
REMARK    1  A    between atoms: O_1  and  C_2 
REMARK    2  A    between atoms: C_2  and  C_4 
REMARK    3  A    between atoms: C_4  and  N_5 
REMARK       I    between atoms: N_5  and  C_6 
REMARK    4  A    between atoms: C_6  and  C_8 
REMARK    5  A    between atoms: C_8  and  C_9 
ROOT
HETATM    1  C   UNK N   1      35.633  13.916  11.247  0.00  0.00    -0.022 A 
HETATM    2  C   UNK N   1      34.826  12.889  10.758  0.00  0.00     0.097 A 
HETATM    3  N   UNK N   1      34.429  12.096  11.790  0.00  0.00    -0.365 N 
HETATM    4  C   UNK N   1      35.719  13.730  12.596  0.00  0.00    -0.001 A 
HETATM    5  C   UNK N   1      34.982  12.624  12.896  0.00  0.00     0.042 A 
HETATM    6  C   UNK N   1      34.864  12.160  14.203  0.00  0.00     0.030 A 
HETATM    7  C   UNK N   1      35.534  12.875  15.216  0.00  0.00     0.002 A 
HETATM    8  C   UNK N   1      36.298  14.022  14.899  0.00  0.00     0.001 A 
HETATM    9  C   UNK N   1      36.395  14.462  13.569  0.00  0.00     0.014 A 
HETATM   10  H   UNK N   1      33.855  11.299  11.737  0.00  0.00     0.165 HD
ENDROOT
BRANCH   1  11
HETATM   11  C   UNK N   1      36.312  15.037  10.524  0.00  0.00     0.143 C 
BRANCH  11  12
HETATM   12  C   UNK N   1      35.531  16.278  10.228  0.00  0.00     0.222 C 
HETATM   13  N   UNK N   1      34.574  16.199   9.280  0.00  0.00    -0.351 N 
HETATM   14  H   UNK N   1      34.432  15.336   8.828  0.00  0.00     0.163 HD
HETATM   15  O   UNK N   1      35.745  17.328  10.817  0.00  0.00    -0.273 OA
BRANCH  13  16
HETATM   16  C   UNK N   1      33.752  17.316   8.899  0.00  0.00     0.232 C 
BRANCH  16  17
HETATM   17  C   UNK N   1      34.511  18.221   7.975  0.00  0.00     0.158 C 
HETATM   18  O   UNK N   1      34.458  18.066   6.764  0.00  0.00    -0.649 OA
BRANCH  17  19
HETATM   19  O   UNK N   1      35.259  19.214   8.485  0.00  0.00    -0.775 OA
HETATM   20  H   UNK N   1      35.519  19.931   7.941  0.00  0.00     0.167 HD
ENDBRANCH  17  19
ENDBRANCH  16  17
ENDBRANCH  13  16
ENDBRANCH  11  12
ENDBRANCH   1  11
TORSDOF 5
ENDMDL
MODEL 4
REMARK VINA RESULT:      -6.4      3.262      4.741
REMARK  5 active torsions:
REMARK  status: ('A' for Active; 'I' for Inactive)
REMARK    1  A    between atoms: O_1  and  C_2 
REMARK    2  A    between atoms: C_2  and  C_4 
REMARK    3  A    between atoms: C_4  and  N_5 
REMARK       I    between atoms: N_5  and  C_6 
REMARK    4  A    between atoms: C_6  and  C_8 
REMARK    5  A    between atoms: C_8  and  C_9 
ROOT
HETATM    1  C   UNK N   1      32.853  17.731   7.719  0.00  0.00    -0.022 A 
HETATM    2  C   UNK N   1      31.660  17.556   8.419  0.00  0.00     0.097 A 
HETATM    3  N   UNK N   1      30.673  17.206   7.550  0.00  0.00    -0.365 N 
HETATM    4  C   UNK N   1      32.571  17.480   6.407  0.00  0.00    -0.001 A 
HETATM    5  C   UNK N   1      31.248  17.165   6.334  0.00  0.00     0.042 A 
HETATM    6  C   UNK N   1      30.638  16.853   5.122  0.00  0.00     0.030 A 
HETATM    7  C   UNK N   1      31.438  16.872   3.962  0.00  0.00     0.002 A 
HETATM    8  C   UNK N   1      32.812  17.199   4.043  0.00  0.00     0.001 A 
HETATM    9  C   UNK N   1      33.393  17.509   5.284  0.00  0.00     0.014 A 
HETATM   10  H   UNK N   1      29.731  17.020   7.767  0.00  0.00     0.165 HD
ENDROOT
BRANCH   1  11
HETATM   11  C   UNK N   1      34.213  18.113   8.211  0.00  0.00     0.143 C 
BRANCH  11  12
HETATM   12  C   UNK N   1      34.870  17.257   9.246  0.00  0.00     0.222 C 
HETATM   13  N   UNK N   1      34.702  15.921   9.146  0.00  0.00    -0.351 N 
HETATM   14  H   UNK N   1      34.159  15.572   8.403  0.00  0.00     0.163 HD
HETATM   15  O   UNK N   1      35.536  17.737  10.152  0.00  0.00    -0.273 OA
BRANCH  13  16
HETATM   16  C   UNK N   1      35.278  14.985  10.074  0.00  0.00     0.232 C 
BRANCH  16  17
HETATM   17  C   UNK N   1      34.304  14.685  11.173  0.00  0.00     0.158 C 
HETATM   18  O   UNK N   1      34.672  14.145  12.206  0.00  0.00    -0.649 OA
BRANCH  17  19
HETATM   19  O   UNK N   1      33.010  15.016  11.020  0.00  0.00    -0.775 OA
HETATM   20  H   UNK N   1      32.668  15.779  11.445  0.00  0.00     0.167 HD
ENDBRANCH  17  19
ENDBRANCH  16  17
ENDBRANCH  13  16
ENDBRANCH  11  12
ENDBRANCH   1  11
TORSDOF 5
ENDMDL
MODEL 5
REMARK VINA RESULT:      -6.3      7.776     10.986
REMARK  5 active torsions:
REMARK  status: ('A' for Active; 'I' for Inactive)
REMARK    1  A    between atoms: O_1  and  C_2 
REMARK    2  A    between atoms: C_2  and  C_4 
REMARK    3  A    between atoms: C_4  and  N_5 
REMARK       I    between atoms: N_5  and  C_6 
REMARK    4  A    between atoms: C_6  and  C_8 
REMARK    5  A    between atoms: C_8  and  C_9 
ROOT
HETATM    1  C   UNK N   1      36.091  12.758  14.713  0.00  0.00    -0.022 A 
HETATM    2  C   UNK N   1      35.101  11.939  15.254  0.00  0.00     0.097 A 
HETATM    3  N   UNK N   1      34.745  12.410  16.480  0.00  0.00    -0.365 N 
HETATM    4  C   UNK N   1      36.331  13.735  15.635  0.00  0.00    -0.001 A 
HETATM    5  C   UNK N   1      35.504  13.500  16.692  0.00  0.00     0.042 A 
HETATM    6  C   UNK N   1      35.501  14.326  17.813  0.00  0.00     0.030 A 
HETATM    7  C   UNK N   1      36.386  15.422  17.821  0.00  0.00     0.002 A 
HETATM    8  C   UNK N   1      37.242  15.662  16.722  0.00  0.00     0.001 A 
HETATM    9  C   UNK N   1      37.219  14.807  15.607  0.00  0.00     0.014 A 
HETATM   10  H   UNK N   1      34.071  12.030  17.088  0.00  0.00     0.165 HD
ENDROOT
BRANCH   1  11
HETATM   11  C   UNK N   1      36.807  12.669  13.402  0.00  0.00     0.143 C 
BRANCH  11  12
HETATM   12  C   UNK N   1      36.208  13.342  12.208  0.00  0.00     0.222 C 
HETATM   13  N   UNK N   1      35.526  14.487  12.418  0.00  0.00    -0.351 N 
HETATM   14  H   UNK N   1      35.452  14.827  13.339  0.00  0.00     0.163 HD
HETATM   15  O   UNK N   1      36.325  12.880  11.082  0.00  0.00    -0.273 OA
BRANCH  13  16
HETATM   16  C   UNK N   1      34.900  15.234  11.359  0.00  0.00     0.232 C 
BRANCH  16  17
HETATM   17  C   UNK N   1      35.844  16.276  10.839  0.00  0.00     0.158 C 
HETATM   18  O   UNK N   1      35.432  17.365  10.468  0.00  0.00    -0.649 OA
BRANCH  17  19
HETATM   19  O   UNK N   1      37.160  16.008  10.780  0.00  0.00    -0.775 OA
HETATM   20  H   UNK N   1      37.706  16.177  11.524  0.00  0.00     0.167 HD
ENDBRANCH  17  19
ENDBRANCH  16  17
ENDBRANCH  13  16
ENDBRANCH  11  12
ENDBRANCH   1  11
TORSDOF 5
ENDMDL
MODEL 6
REMARK VINA RESULT:      -6.2      5.963      9.927
REMARK  5 active torsions:
REMARK  status: ('A' for Active; 'I' for Inactive)
REMARK    1  A    between atoms: O_1  and  C_2 
REMARK    2  A    between atoms: C_2  and  C_4 
REMARK    3  A    between atoms: C_4  and  N_5 
REMARK       I    between atoms: N_5  and  C_6 
REMARK    4  A    between atoms: C_6  and  C_8 
REMARK    5  A    between atoms: C_8  and  C_9 
ROOT
HETATM    1  C   UNK N   1      36.450  14.298  11.911  0.00  0.00    -0.022 A 
HETATM    2  C   UNK N   1      37.286  13.658  10.997  0.00  0.00     0.097 A 
HETATM    3  N   UNK N   1      37.807  12.538  11.568  0.00  0.00    -0.365 N 
HETATM    4  C   UNK N   1      36.473  13.545  13.049  0.00  0.00    -0.001 A 
HETATM    5  C   UNK N   1      37.300  12.488  12.814  0.00  0.00     0.042 A 
HETATM    6  C   UNK N   1      37.541  11.521  13.785  0.00  0.00     0.030 A 
HETATM    7  C   UNK N   1      36.898  11.669  15.031  0.00  0.00     0.002 A 
HETATM    8  C   UNK N   1      36.041  12.767  15.270  0.00  0.00     0.001 A 
HETATM    9  C   UNK N   1      35.821  13.725  14.266  0.00  0.00     0.014 A 
HETATM   10  H   UNK N   1      38.427  11.896  11.155  0.00  0.00     0.165 HD
ENDROOT
BRANCH   1  11
HETATM   11  C   UNK N   1      35.650  15.555  11.770  0.00  0.00     0.143 C 
BRANCH  11  12
HETATM   12  C   UNK N   1      34.817  15.743  10.541  0.00  0.00     0.222 C 
HETATM   13  N   UNK N   1      34.573  17.009  10.144  0.00  0.00    -0.351 N 
HETATM   14  H   UNK N   1      34.949  17.748  10.675  0.00  0.00     0.163 HD
HETATM   15  O   UNK N   1      34.371  14.793   9.915  0.00  0.00    -0.273 OA
BRANCH  13  16
HETATM   16  C   UNK N   1      33.789  17.330   8.982  0.00  0.00     0.232 C 
BRANCH  16  17
HETATM   17  C   UNK N   1      34.566  18.233   8.071  0.00  0.00     0.158 C 
HETATM   18  O   UNK N   1      35.244  19.144   8.523  0.00  0.00    -0.649 OA
BRANCH  17  19
HETATM   19  O   UNK N   1      34.515  18.038   6.743  0.00  0.00    -0.775 OA
HETATM   20  H   UNK N   1      33.724  17.731   6.344  0.00  0.00     0.167 HD
ENDBRANCH  17  19
ENDBRANCH  16  17
ENDBRANCH  13  16
ENDBRANCH  11  12
ENDBRANCH   1  11
TORSDOF 5
ENDMDL
MODEL 7
REMARK VINA RESULT:      -6.2      2.660      4.187
REMARK  5 active torsions:
REMARK  status: ('A' for Active; 'I' for Inactive)
REMARK    1  A    between atoms: O_1  and  C_2 
REMARK    2  A    between atoms: C_2  and  C_4 
REMARK    3  A    between atoms: C_4  and  N_5 
REMARK       I    between atoms: N_5  and  C_6 
REMARK    4  A    between atoms: C_6  and  C_8 
REMARK    5  A    between atoms: C_8  and  C_9 
ROOT
HETATM    1  C   UNK N   1      32.115  17.584   7.462  0.00  0.00    -0.022 A 
HETATM    2  C   UNK N   1      31.891  16.828   6.312  0.00  0.00     0.097 A 
HETATM    3  N   UNK N   1      30.557  16.600   6.175  0.00  0.00    -0.365 N 
HETATM    4  C   UNK N   1      30.891  17.810   8.021  0.00  0.00    -0.001 A 
HETATM    5  C   UNK N   1      29.968  17.205   7.223  0.00  0.00     0.042 A 
HETATM    6  C   UNK N   1      28.608  17.249   7.517  0.00  0.00     0.030 A 
HETATM    7  C   UNK N   1      28.211  17.945   8.676  0.00  0.00     0.002 A 
HETATM    8  C   UNK N   1      29.173  18.572   9.501  0.00  0.00     0.001 A 
HETATM    9  C   UNK N   1      30.538  18.507   9.173  0.00  0.00     0.014 A 
HETATM   10  H   UNK N   1      30.113  16.095   5.456  0.00  0.00     0.165 HD
ENDROOT
BRANCH   1  11
HETATM   11  C   UNK N   1      33.395  18.092   8.048  0.00  0.00     0.143 C 
BRANCH  11  12
HETATM   12  C   UNK N   1      34.334  17.114   8.681  0.00  0.00     0.222 C 
HETATM   13  N   UNK N   1      34.481  17.173  10.022  0.00  0.00    -0.351 N 
HETATM   14  H   UNK N   1      33.969  17.850  10.520  0.00  0.00     0.163 HD
HETATM   15  O   UNK N   1      34.949  16.290   8.020  0.00  0.00    -0.273 OA
BRANCH  13  16
HETATM   16  C   UNK N   1      35.350  16.293  10.756  0.00  0.00     0.232 C 
BRANCH  16  17
HETATM   17  C   UNK N   1      34.657  14.990  11.021  0.00  0.00     0.158 C 
HETATM   18  O   UNK N   1      35.281  13.939  11.023  0.00  0.00    -0.649 OA
BRANCH  17  19
HETATM   19  O   UNK N   1      33.335  14.979  11.258  0.00  0.00    -0.775 OA
HETATM   20  H   UNK N   1      32.833  15.764  11.152  0.00  0.00     0.167 HD
ENDBRANCH  17  19
ENDBRANCH  16  17
ENDBRANCH  13  16
ENDBRANCH  11  12
ENDBRANCH   1  11
TORSDOF 5
ENDMDL
MODEL 8
REMARK VINA RESULT:      -6.0     15.212     16.494
REMARK  5 active torsions:
REMARK  status: ('A' for Active; 'I' for Inactive)
REMARK    1  A    between atoms: O_1  and  C_2 
REMARK    2  A    between atoms: C_2  and  C_4 
REMARK    3  A    between atoms: C_4  and  N_5 
REMARK       I    between atoms: N_5  and  C_6 
REMARK    4  A    between atoms: C_6  and  C_8 
REMARK    5  A    between atoms: C_8  and  C_9 
ROOT
HETATM    1  C   UNK N   1      25.766  27.541  -5.166  0.00  0.00    -0.022 A 
HETATM    2  C   UNK N   1      25.518  28.032  -3.885  0.00  0.00     0.097 A 
HETATM    3  N   UNK N   1      26.388  29.042  -3.612  0.00  0.00    -0.365 N 
HETATM    4  C   UNK N   1      26.803  28.272  -5.667  0.00  0.00    -0.001 A 
HETATM    5  C   UNK N   1      27.159  29.171  -4.707  0.00  0.00     0.042 A 
HETATM    6  C   UNK N   1      28.198  30.077  -4.906  0.00  0.00     0.030 A 
HETATM    7  C   UNK N   1      28.876  30.035  -6.141  0.00  0.00     0.002 A 
HETATM    8  C   UNK N   1      28.502  29.100  -7.133  0.00  0.00     0.001 A 
HETATM    9  C   UNK N   1      27.449  28.201  -6.898  0.00  0.00     0.014 A 
HETATM   10  H   UNK N   1      26.443  29.570  -2.784  0.00  0.00     0.165 HD
ENDROOT
BRANCH   1  11
HETATM   11  C   UNK N   1      25.090  26.442  -5.925  0.00  0.00     0.143 C 
BRANCH  11  12
HETATM   12  C   UNK N   1      25.512  25.030  -5.674  0.00  0.00     0.222 C 
HETATM   13  N   UNK N   1      25.461  24.172  -6.714  0.00  0.00    -0.351 N 
HETATM   14  H   UNK N   1      25.151  24.509  -7.586  0.00  0.00     0.163 HD
HETATM   15  O   UNK N   1      25.890  24.657  -4.573  0.00  0.00    -0.273 OA
BRANCH  13  16
HETATM   16  C   UNK N   1      25.838  22.787  -6.610  0.00  0.00     0.232 C 
BRANCH  16  17
HETATM   17  C   UNK N   1      25.108  21.977  -7.638  0.00  0.00     0.158 C 
HETATM   18  O   UNK N   1      24.058  22.377  -8.121  0.00  0.00    -0.649 OA
BRANCH  17  19
HETATM   19  O   UNK N   1      25.613  20.796  -8.034  0.00  0.00    -0.775 OA
HETATM   20  H   UNK N   1      25.210  20.327  -8.739  0.00  0.00     0.167 HD
ENDBRANCH  17  19
ENDBRANCH  16  17
ENDBRANCH  13  16
ENDBRANCH  11  12
ENDBRANCH   1  11
TORSDOF 5
ENDMDL
MODEL 9
REMARK VINA RESULT:      -5.9     11.453     13.211
REMARK  5 active torsions:
REMARK  status: ('A' for Active; 'I' for Inactive)
REMARK    1  A    between atoms: O_1  and  C_2 
REMARK    2  A    between atoms: C_2  and  C_4 
REMARK    3  A    between atoms: C_4  and  N_5 
REMARK       I    between atoms: N_5  and  C_6 
REMARK    4  A    between atoms: C_6  and  C_8 
REMARK    5  A    between atoms: C_8  and  C_9 
ROOT
HETATM    1  C   UNK N   1      26.752  24.354  -4.164  0.00  0.00    -0.022 A 
HETATM    2  C   UNK N   1      26.232  23.705  -5.283  0.00  0.00     0.097 A 
HETATM    3  N   UNK N   1      25.469  24.577  -5.997  0.00  0.00    -0.365 N 
HETATM    4  C   UNK N   1      26.289  25.637  -4.212  0.00  0.00    -0.001 A 
HETATM    5  C   UNK N   1      25.517  25.743  -5.329  0.00  0.00     0.042 A 
HETATM    6  C   UNK N   1      24.890  26.938  -5.672  0.00  0.00     0.030 A 
HETATM    7  C   UNK N   1      25.080  28.045  -4.820  0.00  0.00     0.002 A 
HETATM    8  C   UNK N   1      25.882  27.929  -3.661  0.00  0.00     0.001 A 
HETATM    9  C   UNK N   1      26.499  26.708  -3.346  0.00  0.00     0.014 A 
HETATM   10  H   UNK N   1      24.982  24.391  -6.832  0.00  0.00     0.165 HD
ENDROOT
BRANCH   1  11
HETATM   11  C   UNK N   1      27.641  23.839  -3.076  0.00  0.00     0.143 C 
BRANCH  11  12
HETATM   12  C   UNK N   1      29.114  23.761  -3.328  0.00  0.00     0.222 C 
HETATM   13  N   UNK N   1      29.550  22.803  -4.172  0.00  0.00    -0.351 N 
HETATM   14  H   UNK N   1      28.887  22.202  -4.582  0.00  0.00     0.163 HD
HETATM   15  O   UNK N   1      29.900  24.532  -2.795  0.00  0.00    -0.273 OA
BRANCH  13  16
HETATM   16  C   UNK N   1      30.938  22.618  -4.501  0.00  0.00     0.232 C 
BRANCH  16  17
HETATM   17  C   UNK N   1      31.562  21.630  -3.562  0.00  0.00     0.158 C 
HETATM   18  O   UNK N   1      31.854  20.505  -3.941  0.00  0.00    -0.649 OA
BRANCH  17  19
HETATM   19  O   UNK N   1      31.802  21.985  -2.289  0.00  0.00    -0.775 OA
HETATM   20  H   UNK N   1      31.333  21.570  -1.591  0.00  0.00     0.167 HD
ENDBRANCH  17  19
ENDBRANCH  16  17
ENDBRANCH  13  16
ENDBRANCH  11  12
ENDBRANCH   1  11
TORSDOF 5
ENDMDL
