REMARK  5 active torsions:
REMARK  status: ('A' for Active; 'I' for Inactive)
REMARK    1  A    between atoms: O_1  and  C_2 
REMARK    2  A    between atoms: C_2  and  C_4 
REMARK    3  A    between atoms: C_4  and  N_5 
REMARK       I    between atoms: N_5  and  C_6 
REMARK    4  A    between atoms: C_6  and  C_8 
REMARK    5  A    between atoms: C_8  and  C_9 
ROOT
HETATM    1  C   UNK N   1       0.943   0.382  -0.000  0.00  0.00    -0.022 A 
HETATM    2  C   UNK N   1       1.245   1.743  -0.000  0.00  0.00     0.097 A 
HETATM    3  N   UNK N   1       2.596   1.906  -0.000  0.00  0.00    -0.365 N 
HETATM    4  C   UNK N   1       2.137  -0.279  -0.000  0.00  0.00    -0.001 A 
HETATM    5  C   UNK N   1       3.118   0.666  -0.000  0.00  0.00     0.042 A 
HETATM    6  C   UNK N   1       4.466   0.318  -0.000  0.00  0.00     0.030 A 
HETATM    7  C   UNK N   1       4.788  -1.054  -0.000  0.00  0.00     0.002 A 
HETATM    8  C   UNK N   1       3.766  -2.031  -0.000  0.00  0.00     0.001 A 
HETATM    9  C   UNK N   1       2.416  -1.643  -0.000  0.00  0.00     0.014 A 
HETATM   10  H   UNK N   1       3.090   2.757  -0.000  0.00  0.00     0.165 HD
ENDROOT
BRANCH   1  11
HETATM   11  C   UNK N   1      -0.383  -0.312  -0.000  0.00  0.00     0.143 C 
BRANCH  11  12
HETATM   12  C   UNK N   1      -1.628   0.517   0.000  0.00  0.00     0.222 C 
HETATM   13  N   UNK N   1      -2.809  -0.136   0.000  0.00  0.00    -0.351 N 
HETATM   14  H   UNK N   1      -2.801  -1.120   0.000  0.00  0.00     0.163 HD
HETATM   15  O   UNK N   1      -1.588   1.739   0.000  0.00  0.00    -0.273 OA
BRANCH  13  16
HETATM   16  C   UNK N   1      -4.080   0.539   0.000  0.00  0.00     0.232 C 
BRANCH  16  17
HETATM   17  C   UNK N   1      -5.194  -0.464   0.000  0.00  0.00     0.158 C 
HETATM   18  O   UNK N   1      -4.957  -1.663  -0.000  0.00  0.00    -0.649 OA
BRANCH  17  19
HETATM   19  O   UNK N   1      -6.469  -0.039  -0.000  0.00  0.00    -0.775 OA
HETATM   20  H   UNK N   1      -6.656   0.880  -0.000  0.00  0.00     0.167 HD
ENDBRANCH  17  19
ENDBRANCH  16  17
ENDBRANCH  13  16
ENDBRANCH  11  12
ENDBRANCH   1  11
TORSDOF 5
