MODEL 1
REMARK VINA RESULT:      -6.6      0.000      0.000
REMARK  6 active torsions:
REMARK  status: ('A' for Active; 'I' for Inactive)
REMARK       I    between atoms: C_2  and  N_3 
REMARK    1  A    between atoms: C_2  and  C_11 
REMARK    2  A    between atoms: C_4  and  N_3 
REMARK    3  A    between atoms: C_4  and  C_5 
REMARK    4  A    between atoms: C_4  and  C_8 
REMARK    5  A    between atoms: C_5  and  O_7 
REMARK    6  A    between atoms: C_11  and  C_12 
ROOT
HETATM    1  O   UNK N   1      34.652  13.633  12.791  0.00  0.00    -0.273 OA
HETATM    2  C   UNK N   1      35.690  14.278  12.836  0.00  0.00     0.222 C 
HETATM    3  N   UNK N   1      36.079  15.054  11.792  0.00  0.00    -0.346 N 
HETATM    4  H   UNK N   1      36.928  15.545  11.878  0.00  0.00     0.163 HD
ENDROOT
BRANCH   2   5
HETATM    5  C   UNK N   1      36.547  14.244  14.061  0.00  0.00     0.143 C 
BRANCH   5   6
HETATM    6  C   UNK N   1      36.596  12.907  14.733  0.00  0.00    -0.022 A 
HETATM    7  C   UNK N   1      37.186  11.734  14.265  0.00  0.00     0.097 A 
HETATM    8  N   UNK N   1      37.037  10.752  15.192  0.00  0.00    -0.365 N 
HETATM    9  C   UNK N   1      36.374  11.310  16.225  0.00  0.00     0.042 A 
HETATM   10  H   UNK N   1      37.349   9.821  15.124  0.00  0.00     0.165 HD
HETATM   11  C   UNK N   1      36.009  10.695  17.420  0.00  0.00     0.030 A 
HETATM   12  C   UNK N   1      36.093  12.621  15.973  0.00  0.00    -0.001 A 
HETATM   13  C   UNK N   1      35.334  11.477  18.377  0.00  0.00     0.002 A 
HETATM   14  C   UNK N   1      35.045  12.836  18.117  0.00  0.00     0.001 A 
HETATM   15  C   UNK N   1      35.427  13.424  16.898  0.00  0.00     0.014 A 
ENDBRANCH   5   6
ENDBRANCH   2   5
BRANCH   3  16
HETATM   16  C   UNK N   1      35.334  15.210  10.555  0.00  0.00     0.185 C 
BRANCH  16  17
HETATM   17  C   UNK N   1      35.131  16.686  10.279  0.00  0.00     0.163 C 
HETATM   18  O   UNK N   1      36.029  17.483  10.503  0.00  0.00    -0.648 OA
BRANCH  17  19
HETATM   19  O   UNK N   1      33.968  17.133   9.763  0.00  0.00    -0.775 OA
HETATM   20  H   UNK N   1      33.632  18.005   9.818  0.00  0.00     0.167 HD
ENDBRANCH  17  19
ENDBRANCH  16  17
BRANCH  16  21
HETATM   21  C   UNK N   1      36.128  14.527   9.425  0.00  0.00     0.010 C 
HETATM   22  C   UNK N   1      35.579  13.154   9.071  0.00  0.00     0.012 C 
HETATM   23  C   UNK N   1      37.590  14.362   9.812  0.00  0.00     0.012 C 
ENDBRANCH  16  21
ENDBRANCH   3  16
TORSDOF 6
ENDMDL
MODEL 2
REMARK VINA RESULT:      -6.6      4.767      8.973
REMARK  6 active torsions:
REMARK  status: ('A' for Active; 'I' for Inactive)
REMARK       I    between atoms: C_2  and  N_3 
REMARK    1  A    between atoms: C_2  and  C_11 
REMARK    2  A    between atoms: C_4  and  N_3 
REMARK    3  A    between atoms: C_4  and  C_5 
REMARK    4  A    between atoms: C_4  and  C_8 
REMARK    5  A    between atoms: C_5  and  O_7 
REMARK    6  A    between atoms: C_11  and  C_12 
ROOT
HETATM    1  O   UNK N   1      35.518  17.715  10.137  0.00  0.00    -0.273 OA
HETATM    2  C   UNK N   1      34.869  17.275   9.199  0.00  0.00     0.222 C 
HETATM    3  N   UNK N   1      34.682  15.940   9.040  0.00  0.00    -0.346 N 
HETATM    4  H   UNK N   1      34.158  15.641   8.262  0.00  0.00     0.163 HD
ENDROOT
BRANCH   2   5
HETATM    5  C   UNK N   1      34.241  18.208   8.211  0.00  0.00     0.143 C 
BRANCH   5   6
HETATM    6  C   UNK N   1      32.909  17.751   7.704  0.00  0.00    -0.022 A 
HETATM    7  C   UNK N   1      31.726  17.592   8.423  0.00  0.00     0.097 A 
HETATM    8  N   UNK N   1      30.736  17.189   7.583  0.00  0.00    -0.365 N 
HETATM    9  C   UNK N   1      31.294  17.110   6.359  0.00  0.00     0.042 A 
HETATM   10  H   UNK N   1      29.801  16.995   7.820  0.00  0.00     0.165 HD
HETATM   11  C   UNK N   1      30.663  16.756   5.169  0.00  0.00     0.030 A 
HETATM   12  C   UNK N   1      32.616  17.446   6.402  0.00  0.00    -0.001 A 
HETATM   13  C   UNK N   1      31.438  16.758   3.993  0.00  0.00     0.002 A 
HETATM   14  C   UNK N   1      32.807  17.107   4.037  0.00  0.00     0.001 A 
HETATM   15  C   UNK N   1      33.412  17.458   5.258  0.00  0.00     0.014 A 
ENDBRANCH   5   6
ENDBRANCH   2   5
BRANCH   3  16
HETATM   16  C   UNK N   1      35.201  14.920   9.934  0.00  0.00     0.185 C 
BRANCH  16  17
HETATM   17  C   UNK N   1      34.212  14.696  11.061  0.00  0.00     0.163 C 
HETATM   18  O   UNK N   1      34.567  14.143  12.090  0.00  0.00    -0.648 OA
BRANCH  17  19
HETATM   19  O   UNK N   1      32.938  15.125  10.949  0.00  0.00    -0.775 OA
HETATM   20  H   UNK N   1      32.622  15.986  11.136  0.00  0.00     0.167 HD
ENDBRANCH  17  19
ENDBRANCH  16  17
BRANCH  16  21
HETATM   21  C   UNK N   1      35.430  13.634   9.118  0.00  0.00     0.010 C 
HETATM   22  C   UNK N   1      36.438  13.825   7.996  0.00  0.00     0.012 C 
HETATM   23  C   UNK N   1      34.128  13.146   8.500  0.00  0.00     0.012 C 
ENDBRANCH  16  21
ENDBRANCH   3  16
TORSDOF 6
ENDMDL
MODEL 3
REMARK VINA RESULT:      -6.5      2.844      4.346
REMARK  6 active torsions:
REMARK  status: ('A' for Active; 'I' for Inactive)
REMARK       I    between atoms: C_2  and  N_3 
REMARK    1  A    between atoms: C_2  and  C_11 
REMARK    2  A    between atoms: C_4  and  N_3 
REMARK    3  A    between atoms: C_4  and  C_5 
REMARK    4  A    between atoms: C_4  and  C_8 
REMARK    5  A    between atoms: C_5  and  O_7 
REMARK    6  A    between atoms: C_11  and  C_12 
ROOT
HETATM    1  O   UNK N   1      35.310  17.111  11.217  0.00  0.00    -0.273 OA
HETATM    2  C   UNK N   1      35.352  16.179  10.427  0.00  0.00     0.222 C 
HETATM    3  N   UNK N   1      34.607  16.187   9.292  0.00  0.00    -0.346 N 
HETATM    4  H   UNK N   1      34.674  15.407   8.695  0.00  0.00     0.163 HD
ENDROOT
BRANCH   2   5
HETATM    5  C   UNK N   1      36.252  15.011  10.683  0.00  0.00     0.143 C 
BRANCH   5   6
HETATM    6  C   UNK N   1      35.882  14.213  11.895  0.00  0.00    -0.022 A 
HETATM    7  C   UNK N   1      36.011  14.577  13.234  0.00  0.00     0.097 A 
HETATM    8  N   UNK N   1      35.528  13.580  14.022  0.00  0.00    -0.365 N 
HETATM    9  C   UNK N   1      35.096  12.617  13.183  0.00  0.00     0.042 A 
HETATM   10  H   UNK N   1      35.500  13.565  15.005  0.00  0.00     0.165 HD
HETATM   11  C   UNK N   1      34.500  11.407  13.530  0.00  0.00     0.030 A 
HETATM   12  C   UNK N   1      35.298  12.975  11.883  0.00  0.00    -0.001 A 
HETATM   13  C   UNK N   1      34.104  10.551  12.485  0.00  0.00     0.002 A 
HETATM   14  C   UNK N   1      34.313  10.922  11.137  0.00  0.00     0.001 A 
HETATM   15  C   UNK N   1      34.919  12.152  10.823  0.00  0.00     0.014 A 
ENDBRANCH   5   6
ENDBRANCH   2   5
BRANCH   3  16
HETATM   16  C   UNK N   1      33.717  17.264   8.895  0.00  0.00     0.185 C 
BRANCH  16  17
HETATM   17  C   UNK N   1      34.462  18.214   7.980  0.00  0.00     0.163 C 
HETATM   18  O   UNK N   1      35.088  19.154   8.446  0.00  0.00    -0.648 OA
BRANCH  17  19
HETATM   19  O   UNK N   1      34.462  18.021   6.645  0.00  0.00    -0.775 OA
HETATM   20  H   UNK N   1      35.191  18.125   6.067  0.00  0.00     0.167 HD
ENDBRANCH  17  19
ENDBRANCH  16  17
BRANCH  16  21
HETATM   21  C   UNK N   1      32.494  16.644   8.194  0.00  0.00     0.010 C 
HETATM   22  C   UNK N   1      31.193  17.345   8.555  0.00  0.00     0.012 C 
HETATM   23  C   UNK N   1      32.349  15.173   8.555  0.00  0.00     0.012 C 
ENDBRANCH  16  21
ENDBRANCH   3  16
TORSDOF 6
ENDMDL
MODEL 4
REMARK VINA RESULT:      -6.4     19.380     22.683
REMARK  6 active torsions:
REMARK  status: ('A' for Active; 'I' for Inactive)
REMARK       I    between atoms: C_2  and  N_3 
REMARK    1  A    between atoms: C_2  and  C_11 
REMARK    2  A    between atoms: C_4  and  N_3 
REMARK    3  A    between atoms: C_4  and  C_5 
REMARK    4  A    between atoms: C_4  and  C_8 
REMARK    5  A    between atoms: C_5  and  O_7 
REMARK    6  A    between atoms: C_11  and  C_12 
ROOT
HETATM    1  O   UNK N   1      29.863  24.689  -2.994  0.00  0.00    -0.273 OA
HETATM    2  C   UNK N   1      29.107  23.780  -3.307  0.00  0.00     0.222 C 
HETATM    3  N   UNK N   1      29.568  22.675  -3.948  0.00  0.00    -0.346 N 
HETATM    4  H   UNK N   1      28.914  21.978  -4.185  0.00  0.00     0.163 HD
ENDROOT
BRANCH   2   5
HETATM    5  C   UNK N   1      27.652  23.857  -2.968  0.00  0.00     0.143 C 
BRANCH   5   6
HETATM    6  C   UNK N   1      26.796  24.390  -4.075  0.00  0.00    -0.022 A 
HETATM    7  C   UNK N   1      26.296  23.702  -5.179  0.00  0.00     0.097 A 
HETATM    8  N   UNK N   1      25.537  24.543  -5.930  0.00  0.00    -0.365 N 
HETATM    9  C   UNK N   1      25.557  25.732  -5.295  0.00  0.00     0.042 A 
HETATM   10  H   UNK N   1      25.067  24.327  -6.767  0.00  0.00     0.165 HD
HETATM   11  C   UNK N   1      24.902  26.900  -5.678  0.00  0.00     0.030 A 
HETATM   12  C   UNK N   1      26.315  25.668  -4.163  0.00  0.00    -0.001 A 
HETATM   13  C   UNK N   1      25.046  28.030  -4.851  0.00  0.00     0.002 A 
HETATM   14  C   UNK N   1      25.831  27.964  -3.677  0.00  0.00     0.001 A 
HETATM   15  C   UNK N   1      26.479  26.767  -3.322  0.00  0.00     0.014 A 
ENDBRANCH   5   6
ENDBRANCH   2   5
BRANCH   3  16
HETATM   16  C   UNK N   1      30.956  22.448  -4.311  0.00  0.00     0.185 C 
BRANCH  16  17
HETATM   17  C   UNK N   1      31.581  21.492  -3.315  0.00  0.00     0.163 C 
HETATM   18  O   UNK N   1      31.899  21.884  -2.203  0.00  0.00    -0.648 OA
BRANCH  17  19
HETATM   19  O   UNK N   1      31.770  20.196  -3.636  0.00  0.00    -0.775 OA
HETATM   20  H   UNK N   1      31.325  19.717  -4.307  0.00  0.00     0.167 HD
ENDBRANCH  17  19
ENDBRANCH  16  17
BRANCH  16  21
HETATM   21  C   UNK N   1      30.992  21.879  -5.742  0.00  0.00     0.010 C 
HETATM   22  C   UNK N   1      31.629  22.837  -6.737  0.00  0.00     0.012 C 
HETATM   23  C   UNK N   1      29.589  21.557  -6.233  0.00  0.00     0.012 C 
ENDBRANCH  16  21
ENDBRANCH   3  16
TORSDOF 6
ENDMDL
MODEL 5
REMARK VINA RESULT:      -6.4      4.845      8.416
REMARK  6 active torsions:
REMARK  status: ('A' for Active; 'I' for Inactive)
REMARK       I    between atoms: C_2  and  N_3 
REMARK    1  A    between atoms: C_2  and  C_11 
REMARK    2  A    between atoms: C_4  and  N_3 
REMARK    3  A    between atoms: C_4  and  C_5 
REMARK    4  A    between atoms: C_4  and  C_8 
REMARK    5  A    between atoms: C_5  and  O_7 
REMARK    6  A    between atoms: C_11  and  C_12 
ROOT
HETATM    1  O   UNK N   1      35.614  17.607  10.150  0.00  0.00    -0.273 OA
HETATM    2  C   UNK N   1      34.919  17.283   9.198  0.00  0.00     0.222 C 
HETATM    3  N   UNK N   1      34.611  15.981   8.965  0.00  0.00    -0.346 N 
HETATM    4  H   UNK N   1      34.054  15.777   8.180  0.00  0.00     0.163 HD
ENDROOT
BRANCH   2   5
HETATM    5  C   UNK N   1      34.368  18.325   8.276  0.00  0.00     0.143 C 
BRANCH   5   6
HETATM    6  C   UNK N   1      33.411  17.790   7.256  0.00  0.00    -0.022 A 
HETATM    7  C   UNK N   1      33.695  17.337   5.969  0.00  0.00     0.097 A 
HETATM    8  N   UNK N   1      32.550  16.904   5.379  0.00  0.00    -0.365 N 
HETATM    9  C   UNK N   1      31.572  17.074   6.291  0.00  0.00     0.042 A 
HETATM   10  H   UNK N   1      32.454  16.539   4.470  0.00  0.00     0.165 HD
HETATM   11  C   UNK N   1      30.225  16.753   6.148  0.00  0.00     0.030 A 
HETATM   12  C   UNK N   1      32.067  17.612   7.443  0.00  0.00    -0.001 A 
HETATM   13  C   UNK N   1      29.375  16.999   7.243  0.00  0.00     0.002 A 
HETATM   14  C   UNK N   1      29.888  17.554   8.438  0.00  0.00     0.001 A 
HETATM   15  C   UNK N   1      31.255  17.868   8.546  0.00  0.00     0.014 A 
ENDBRANCH   5   6
ENDBRANCH   2   5
BRANCH   3  16
HETATM   16  C   UNK N   1      35.045  14.869   9.792  0.00  0.00     0.185 C 
BRANCH  16  17
HETATM   17  C   UNK N   1      34.107  14.732  10.975  0.00  0.00     0.163 C 
HETATM   18  O   UNK N   1      34.524  14.320  12.046  0.00  0.00    -0.648 OA
BRANCH  17  19
HETATM   19  O   UNK N   1      32.810  15.084  10.865  0.00  0.00    -0.775 OA
HETATM   20  H   UNK N   1      32.246  14.913  10.137  0.00  0.00     0.167 HD
ENDBRANCH  17  19
ENDBRANCH  16  17
BRANCH  16  21
HETATM   21  C   UNK N   1      35.049  13.597   8.923  0.00  0.00     0.010 C 
HETATM   22  C   UNK N   1      36.197  12.659   9.264  0.00  0.00     0.012 C 
HETATM   23  C   UNK N   1      35.154  13.949   7.447  0.00  0.00     0.012 C 
ENDBRANCH  16  21
ENDBRANCH   3  16
TORSDOF 6
ENDMDL
MODEL 6
REMARK VINA RESULT:      -6.4      7.581     11.169
REMARK  6 active torsions:
REMARK  status: ('A' for Active; 'I' for Inactive)
REMARK       I    between atoms: C_2  and  N_3 
REMARK    1  A    between atoms: C_2  and  C_11 
REMARK    2  A    between atoms: C_4  and  N_3 
REMARK    3  A    between atoms: C_4  and  C_5 
REMARK    4  A    between atoms: C_4  and  C_8 
REMARK    5  A    between atoms: C_5  and  O_7 
REMARK    6  A    between atoms: C_11  and  C_12 
ROOT
HETATM    1  O   UNK N   1      31.418  17.557   4.807  0.00  0.00    -0.273 OA
HETATM    2  C   UNK N   1      31.153  17.086   5.904  0.00  0.00     0.222 C 
HETATM    3  N   UNK N   1      32.106  16.962   6.863  0.00  0.00    -0.346 N 
HETATM    4  H   UNK N   1      31.839  16.568   7.724  0.00  0.00     0.163 HD
ENDROOT
BRANCH   2   5
HETATM    5  C   UNK N   1      29.756  16.655   6.223  0.00  0.00     0.143 C 
BRANCH   5   6
HETATM    6  C   UNK N   1      28.917  17.727   6.849  0.00  0.00    -0.022 A 
HETATM    7  C   UNK N   1      28.649  17.924   8.202  0.00  0.00     0.097 A 
HETATM    8  N   UNK N   1      27.871  19.028   8.353  0.00  0.00    -0.365 N 
HETATM    9  C   UNK N   1      27.668  19.515   7.112  0.00  0.00     0.042 A 
HETATM   10  H   UNK N   1      27.524  19.398   9.196  0.00  0.00     0.165 HD
HETATM   11  C   UNK N   1      26.945  20.653   6.763  0.00  0.00     0.030 A 
HETATM   12  C   UNK N   1      28.294  18.743   6.177  0.00  0.00    -0.001 A 
HETATM   13  C   UNK N   1      26.879  20.991   5.398  0.00  0.00     0.002 A 
HETATM   14  C   UNK N   1      27.528  20.192   4.429  0.00  0.00     0.001 A 
HETATM   15  C   UNK N   1      28.248  19.048   4.817  0.00  0.00     0.014 A 
ENDBRANCH   5   6
ENDBRANCH   2   5
BRANCH   3  16
HETATM   16  C   UNK N   1      33.492  17.367   6.708  0.00  0.00     0.185 C 
BRANCH  16  17
HETATM   17  C   UNK N   1      33.902  18.205   7.902  0.00  0.00     0.163 C 
HETATM   18  O   UNK N   1      33.192  18.250   8.894  0.00  0.00    -0.648 OA
BRANCH  17  19
HETATM   19  O   UNK N   1      35.064  18.890   7.891  0.00  0.00    -0.775 OA
HETATM   20  H   UNK N   1      35.786  18.771   8.475  0.00  0.00     0.167 HD
ENDBRANCH  17  19
ENDBRANCH  16  17
BRANCH  16  21
HETATM   21  C   UNK N   1      34.354  16.096   6.585  0.00  0.00     0.010 C 
HETATM   22  C   UNK N   1      34.403  15.556   5.165  0.00  0.00     0.012 C 
HETATM   23  C   UNK N   1      33.824  14.992   7.488  0.00  0.00     0.012 C 
ENDBRANCH  16  21
ENDBRANCH   3  16
TORSDOF 6
ENDMDL
MODEL 7
REMARK VINA RESULT:      -6.4      5.521      8.690
REMARK  6 active torsions:
REMARK  status: ('A' for Active; 'I' for Inactive)
REMARK       I    between atoms: C_2  and  N_3 
REMARK    1  A    between atoms: C_2  and  C_11 
REMARK    2  A    between atoms: C_4  and  N_3 
REMARK    3  A    between atoms: C_4  and  C_5 
REMARK    4  A    between atoms: C_4  and  C_8 
REMARK    5  A    between atoms: C_5  and  O_7 
REMARK    6  A    between atoms: C_11  and  C_12 
ROOT
HETATM    1  O   UNK N   1      35.123  15.915   6.476  0.00  0.00    -0.273 OA
HETATM    2  C   UNK N   1      34.347  16.586   7.141  0.00  0.00     0.222 C 
HETATM    3  N   UNK N   1      34.284  16.454   8.491  0.00  0.00    -0.346 N 
HETATM    4  H   UNK N   1      33.635  17.013   8.975  0.00  0.00     0.163 HD
ENDROOT
BRANCH   2   5
HETATM    5  C   UNK N   1      33.459  17.592   6.479  0.00  0.00     0.143 C 
BRANCH   5   6
HETATM    6  C   UNK N   1      32.010  17.216   6.475  0.00  0.00    -0.022 A 
HETATM    7  C   UNK N   1      31.334  16.416   5.557  0.00  0.00     0.097 A 
HETATM    8  N   UNK N   1      30.034  16.295   5.932  0.00  0.00    -0.365 N 
HETATM    9  C   UNK N   1      29.907  17.002   7.073  0.00  0.00     0.042 A 
HETATM   10  H   UNK N   1      29.327  15.794   5.466  0.00  0.00     0.165 HD
HETATM   11  C   UNK N   1      28.757  17.155   7.843  0.00  0.00     0.030 A 
HETATM   12  C   UNK N   1      31.094  17.573   7.428  0.00  0.00    -0.001 A 
HETATM   13  C   UNK N   1      28.855  17.926   9.017  0.00  0.00     0.002 A 
HETATM   14  C   UNK N   1      30.085  18.517   9.386  0.00  0.00     0.001 A 
HETATM   15  C   UNK N   1      31.227  18.342   8.583  0.00  0.00     0.014 A 
ENDBRANCH   5   6
ENDBRANCH   2   5
BRANCH   3  16
HETATM   16  C   UNK N   1      35.106  15.545   9.271  0.00  0.00     0.185 C 
BRANCH  16  17
HETATM   17  C   UNK N   1      35.774  16.316  10.392  0.00  0.00     0.163 C 
HETATM   18  O   UNK N   1      35.202  17.259  10.916  0.00  0.00    -0.648 OA
BRANCH  17  19
HETATM   19  O   UNK N   1      36.995  15.956  10.837  0.00  0.00    -0.775 OA
HETATM   20  H   UNK N   1      37.213  15.167  11.291  0.00  0.00     0.167 HD
ENDBRANCH  17  19
ENDBRANCH  16  17
BRANCH  16  21
HETATM   21  C   UNK N   1      34.199  14.425   9.817  0.00  0.00     0.010 C 
HETATM   22  C   UNK N   1      34.386  13.109   9.080  0.00  0.00     0.012 C 
HETATM   23  C   UNK N   1      32.733  14.816   9.714  0.00  0.00     0.012 C 
ENDBRANCH  16  21
ENDBRANCH   3  16
TORSDOF 6
ENDMDL
MODEL 8
REMARK VINA RESULT:      -6.3      1.466      2.191
REMARK  6 active torsions:
REMARK  status: ('A' for Active; 'I' for Inactive)
REMARK       I    between atoms: C_2  and  N_3 
REMARK    1  A    between atoms: C_2  and  C_11 
REMARK    2  A    between atoms: C_4  and  N_3 
REMARK    3  A    between atoms: C_4  and  C_5 
REMARK    4  A    between atoms: C_4  and  C_8 
REMARK    5  A    between atoms: C_5  and  O_7 
REMARK    6  A    between atoms: C_11  and  C_12 
ROOT
HETATM    1  O   UNK N   1      34.942  13.700  13.615  0.00  0.00    -0.273 OA
HETATM    2  C   UNK N   1      36.141  13.933  13.672  0.00  0.00     0.222 C 
HETATM    3  N   UNK N   1      36.855  14.212  12.552  0.00  0.00    -0.346 N 
HETATM    4  H   UNK N   1      37.819  14.383  12.656  0.00  0.00     0.163 HD
ENDROOT
BRANCH   2   5
HETATM    5  C   UNK N   1      36.846  13.940  14.992  0.00  0.00     0.143 C 
BRANCH   5   6
HETATM    6  C   UNK N   1      36.147  13.156  16.060  0.00  0.00    -0.022 A 
HETATM    7  C   UNK N   1      35.389  13.643  17.122  0.00  0.00     0.097 A 
HETATM    8  N   UNK N   1      34.901  12.601  17.845  0.00  0.00    -0.365 N 
HETATM    9  C   UNK N   1      35.341  11.483  17.233  0.00  0.00     0.042 A 
HETATM   10  H   UNK N   1      34.340  12.651  18.652  0.00  0.00     0.165 HD
HETATM   11  C   UNK N   1      35.079  10.166  17.599  0.00  0.00     0.030 A 
HETATM   12  C   UNK N   1      36.102  11.791  16.143  0.00  0.00    -0.001 A 
HETATM   13  C   UNK N   1      35.628   9.144  16.801  0.00  0.00     0.002 A 
HETATM   14  C   UNK N   1      36.415   9.463  15.671  0.00  0.00     0.001 A 
HETATM   15  C   UNK N   1      36.660  10.806  15.330  0.00  0.00     0.014 A 
ENDBRANCH   5   6
ENDBRANCH   2   5
BRANCH   3  16
HETATM   16  C   UNK N   1      36.300  14.274  11.211  0.00  0.00     0.185 C 
BRANCH  16  17
HETATM   17  C   UNK N   1      35.645  15.625  11.006  0.00  0.00     0.163 C 
HETATM   18  O   UNK N   1      36.315  16.589  10.671  0.00  0.00    -0.648 OA
BRANCH  17  19
HETATM   19  O   UNK N   1      34.314  15.772  11.167  0.00  0.00    -0.775 OA
HETATM   20  H   UNK N   1      33.659  15.120  11.017  0.00  0.00     0.167 HD
ENDBRANCH  17  19
ENDBRANCH  16  17
BRANCH  16  21
HETATM   21  C   UNK N   1      37.444  14.040  10.206  0.00  0.00     0.010 C 
HETATM   22  C   UNK N   1      36.939  13.641   8.828  0.00  0.00     0.012 C 
HETATM   23  C   UNK N   1      38.383  12.948  10.696  0.00  0.00     0.012 C 
ENDBRANCH  16  21
ENDBRANCH   3  16
TORSDOF 6
ENDMDL
MODEL 9
REMARK VINA RESULT:      -6.3     23.412     25.482
REMARK  6 active torsions:
REMARK  status: ('A' for Active; 'I' for Inactive)
REMARK       I    between atoms: C_2  and  N_3 
REMARK    1  A    between atoms: C_2  and  C_11 
REMARK    2  A    between atoms: C_4  and  N_3 
REMARK    3  A    between atoms: C_4  and  C_5 
REMARK    4  A    between atoms: C_4  and  C_8 
REMARK    5  A    between atoms: C_5  and  O_7 
REMARK    6  A    between atoms: C_11  and  C_12 
ROOT
HETATM    1  O   UNK N   1      25.815  24.680  -4.445  0.00  0.00    -0.273 OA
HETATM    2  C   UNK N   1      25.434  25.115  -5.522  0.00  0.00     0.222 C 
HETATM    3  N   UNK N   1      25.510  24.363  -6.649  0.00  0.00    -0.346 N 
HETATM    4  H   UNK N   1      25.197  24.767  -7.490  0.00  0.00     0.163 HD
ENDROOT
BRANCH   2   5
HETATM    5  C   UNK N   1      24.850  26.490  -5.616  0.00  0.00     0.143 C 
BRANCH   5   6
HETATM    6  C   UNK N   1      25.723  27.563  -5.044  0.00  0.00    -0.022 A 
HETATM    7  C   UNK N   1      25.670  28.122  -3.769  0.00  0.00     0.097 A 
HETATM    8  N   UNK N   1      26.659  29.044  -3.637  0.00  0.00    -0.365 N 
HETATM    9  C   UNK N   1      27.324  29.049  -4.810  0.00  0.00     0.042 A 
HETATM   10  H   UNK N   1      26.852  29.597  -2.847  0.00  0.00     0.165 HD
HETATM   11  C   UNK N   1      28.434  29.821  -5.144  0.00  0.00     0.030 A 
HETATM   12  C   UNK N   1      26.776  28.157  -5.685  0.00  0.00    -0.001 A 
HETATM   13  C   UNK N   1      28.986  29.650  -6.428  0.00  0.00     0.002 A 
HETATM   14  C   UNK N   1      28.419  28.725  -7.334  0.00  0.00     0.001 A 
HETATM   15  C   UNK N   1      27.296  27.963  -6.964  0.00  0.00     0.014 A 
ENDBRANCH   5   6
ENDBRANCH   2   5
BRANCH   3  16
HETATM   16  C   UNK N   1      26.022  23.004  -6.703  0.00  0.00     0.185 C 
BRANCH  16  17
HETATM   17  C   UNK N   1      25.137  22.175  -7.612  0.00  0.00     0.163 C 
HETATM   18  O   UNK N   1      24.354  22.722  -8.374  0.00  0.00    -0.648 OA
BRANCH  17  19
HETATM   19  O   UNK N   1      25.221  20.829  -7.608  0.00  0.00    -0.775 OA
HETATM   20  H   UNK N   1      24.623  20.233  -8.012  0.00  0.00     0.167 HD
ENDBRANCH  17  19
ENDBRANCH  16  17
BRANCH  16  21
HETATM   21  C   UNK N   1      27.472  23.057  -7.219  0.00  0.00     0.010 C 
HETATM   22  C   UNK N   1      28.495  23.019  -6.095  0.00  0.00     0.012 C 
HETATM   23  C   UNK N   1      27.714  24.320  -8.031  0.00  0.00     0.012 C 
ENDBRANCH  16  21
ENDBRANCH   3  16
TORSDOF 6
ENDMDL
