MODEL 1
REMARK VINA RESULT:      -5.5      0.000      0.000
REMARK  2 active torsions:
REMARK  status: ('A' for Active; 'I' for Inactive)
REMARK    1  A    between atoms: N_7  and  C_14 
REMARK    2  A    between atoms: C_14  and  C_15 
ROOT
HETATM    1  N   UNK N   1      28.633  18.663   8.733  0.00  0.00    -0.336 N 
HETATM    2  C   UNK N   1      29.452  18.459   9.800  0.00  0.00     0.182 A 
HETATM    3  N   UNK N   1      30.588  17.799   9.449  0.00  0.00    -0.345 N 
ATOM      4  HN  UNK N   1      31.363  17.523  10.053  1.00  0.00     0.167 HD
HETATM    5  C   UNK N   1      30.458  17.595   8.131  0.00  0.00     0.147 A 
HETATM    6  C   UNK N   1      29.290  18.110   7.700  0.00  0.00     0.145 A 
HETATM    7  N   UNK N   1      28.880  18.055   6.398  0.00  0.00    -0.283 N 
HETATM    8  C   UNK N   1      29.744  17.423   5.498  0.00  0.00     0.332 A 
HETATM    9  N   UNK N   1      30.954  16.887   5.934  0.00  0.00    -0.269 N 
HETATM   10  C   UNK N   1      31.322  16.970   7.260  0.00  0.00     0.281 A 
HETATM   11  O   UNK N   1      32.378  16.505   7.654  0.00  0.00    -0.265 OA
HETATM   12  O   UNK N   1      29.458  17.329   4.324  0.00  0.00    -0.246 OA
HETATM   13  C   UNK N   1      31.842  16.231   4.978  0.00  0.00     0.164 C 
HETATM   14  H   UNK N   1      27.757  19.113   8.722  0.00  0.00     0.168 HD
ENDROOT
BRANCH   7  15
HETATM   15  C   UNK N   1      27.562  18.674   6.099  0.00  0.00     0.139 C 
BRANCH  15  16
HETATM   16  C   UNK N   1      27.321  20.085   5.505  0.00  0.00    -0.004 C 
HETATM   17  C   UNK N   1      27.143  20.117   4.002  0.00  0.00     0.011 C 
HETATM   18  C   UNK N   1      27.227  21.449   6.158  0.00  0.00     0.011 C 
ENDBRANCH  15  16
ENDBRANCH   7  15
TORSDOF 2
ENDMDL
MODEL 2
REMARK VINA RESULT:      -5.5      8.383     10.144
REMARK  2 active torsions:
REMARK  status: ('A' for Active; 'I' for Inactive)
REMARK    1  A    between atoms: N_7  and  C_14 
REMARK    2  A    between atoms: C_14  and  C_15 
ROOT
HETATM    1  N   UNK N   1      23.156  14.285   6.912  0.00  0.00    -0.336 N 
HETATM    2  C   UNK N   1      23.662  15.295   6.155  0.00  0.00     0.182 A 
HETATM    3  N   UNK N   1      22.916  16.428   6.254  0.00  0.00    -0.345 N 
ATOM      4  HN  UNK N   1      23.075  17.324   5.792  1.00  0.00     0.167 HD
HETATM    5  C   UNK N   1      21.926  16.098   7.096  0.00  0.00     0.147 A 
HETATM    6  C   UNK N   1      22.067  14.818   7.491  0.00  0.00     0.145 A 
HETATM    7  N   UNK N   1      21.205  14.199   8.352  0.00  0.00    -0.283 N 
HETATM    8  C   UNK N   1      20.136  14.968   8.825  0.00  0.00     0.332 A 
HETATM    9  N   UNK N   1      19.983  16.293   8.422  0.00  0.00    -0.269 N 
HETATM   10  C   UNK N   1      20.881  16.871   7.550  0.00  0.00     0.281 A 
HETATM   11  O   UNK N   1      20.757  18.030   7.190  0.00  0.00    -0.265 OA
HETATM   12  O   UNK N   1      19.326  14.497   9.593  0.00  0.00    -0.246 OA
HETATM   13  C   UNK N   1      18.860  17.078   8.928  0.00  0.00     0.164 C 
HETATM   14  H   UNK N   1      23.507  13.371   7.013  0.00  0.00     0.168 HD
ENDROOT
BRANCH   7  15
HETATM   15  C   UNK N   1      21.512  12.783   8.680  0.00  0.00     0.139 C 
BRANCH  15  16
HETATM   16  C   UNK N   1      22.402  12.279   9.845  0.00  0.00    -0.004 C 
HETATM   17  C   UNK N   1      21.682  12.111  11.165  0.00  0.00     0.011 C 
HETATM   18  C   UNK N   1      23.872  11.918   9.903  0.00  0.00     0.011 C 
ENDBRANCH  15  16
ENDBRANCH   7  15
TORSDOF 2
ENDMDL
MODEL 3
REMARK VINA RESULT:      -5.4      2.690      5.257
REMARK  2 active torsions:
REMARK  status: ('A' for Active; 'I' for Inactive)
REMARK    1  A    between atoms: N_7  and  C_14 
REMARK    2  A    between atoms: C_14  and  C_15 
ROOT
HETATM    1  N   UNK N   1      31.169  17.477   9.262  0.00  0.00    -0.336 N 
HETATM    2  C   UNK N   1      29.823  17.325   9.131  0.00  0.00     0.182 A 
HETATM    3  N   UNK N   1      29.449  17.201   7.830  0.00  0.00    -0.345 N 
ATOM      4  HN  UNK N   1      28.507  17.077   7.458  1.00  0.00     0.167 HD
HETATM    5  C   UNK N   1      30.601  17.281   7.147  0.00  0.00     0.147 A 
HETATM    6  C   UNK N   1      31.630  17.446   8.000  0.00  0.00     0.145 A 
HETATM    7  N   UNK N   1      32.930  17.559   7.595  0.00  0.00    -0.283 N 
HETATM    8  C   UNK N   1      33.162  17.495   6.217  0.00  0.00     0.332 A 
HETATM    9  N   UNK N   1      32.104  17.325   5.327  0.00  0.00    -0.269 N 
HETATM   10  C   UNK N   1      30.809  17.216   5.787  0.00  0.00     0.281 A 
HETATM   11  O   UNK N   1      29.874  17.067   5.018  0.00  0.00    -0.265 OA
HETATM   12  O   UNK N   1      34.285  17.587   5.772  0.00  0.00    -0.246 OA
HETATM   13  C   UNK N   1      32.368  17.261   3.892  0.00  0.00     0.164 C 
HETATM   14  H   UNK N   1      31.687  17.586  10.092  0.00  0.00     0.168 HD
ENDROOT
BRANCH   7  15
HETATM   15  C   UNK N   1      33.938  17.736   8.672  0.00  0.00     0.139 C 
BRANCH  15  16
HETATM   16  C   UNK N   1      34.697  16.609   9.418  0.00  0.00    -0.004 C 
HETATM   17  C   UNK N   1      34.809  15.308   8.654  0.00  0.00     0.011 C 
HETATM   18  C   UNK N   1      35.355  16.572  10.782  0.00  0.00     0.011 C 
ENDBRANCH  15  16
ENDBRANCH   7  15
TORSDOF 2
ENDMDL
MODEL 4
REMARK VINA RESULT:      -5.3      2.157      3.885
REMARK  2 active torsions:
REMARK  status: ('A' for Active; 'I' for Inactive)
REMARK    1  A    between atoms: N_7  and  C_14 
REMARK    2  A    between atoms: C_14  and  C_15 
ROOT
HETATM    1  N   UNK N   1      30.888  17.191   3.703  0.00  0.00    -0.336 N 
HETATM    2  C   UNK N   1      32.029  17.138   2.963  0.00  0.00     0.182 A 
HETATM    3  N   UNK N   1      33.143  17.185   3.741  0.00  0.00    -0.345 N 
ATOM      4  HN  UNK N   1      34.118  17.162   3.440  1.00  0.00     0.167 HD
HETATM    5  C   UNK N   1      32.668  17.269   4.992  0.00  0.00     0.147 A 
HETATM    6  C   UNK N   1      31.321  17.272   4.973  0.00  0.00     0.145 A 
HETATM    7  N   UNK N   1      30.554  17.349   6.101  0.00  0.00    -0.283 N 
HETATM    8  C   UNK N   1      31.240  17.427   7.318  0.00  0.00     0.332 A 
HETATM    9  N   UNK N   1      32.633  17.424   7.347  0.00  0.00    -0.269 N 
HETATM   10  C   UNK N   1      33.361  17.344   6.179  0.00  0.00     0.281 A 
HETATM   11  O   UNK N   1      34.581  17.341   6.193  0.00  0.00    -0.265 OA
HETATM   12  O   UNK N   1      30.637  17.498   8.366  0.00  0.00    -0.246 OA
HETATM   13  C   UNK N   1      33.330  17.505   8.629  0.00  0.00     0.164 C 
HETATM   14  H   UNK N   1      29.958  17.173   3.382  0.00  0.00     0.168 HD
ENDROOT
BRANCH   7  15
HETATM   15  C   UNK N   1      29.083  17.341   5.894  0.00  0.00     0.139 C 
BRANCH  15  16
HETATM   16  C   UNK N   1      28.186  18.572   5.607  0.00  0.00    -0.004 C 
HETATM   17  C   UNK N   1      27.813  19.383   6.830  0.00  0.00     0.011 C 
HETATM   18  C   UNK N   1      27.611  19.118   4.316  0.00  0.00     0.011 C 
ENDBRANCH  15  16
ENDBRANCH   7  15
TORSDOF 2
ENDMDL
MODEL 5
REMARK VINA RESULT:      -5.1      1.673      4.167
REMARK  2 active torsions:
REMARK  status: ('A' for Active; 'I' for Inactive)
REMARK    1  A    between atoms: N_7  and  C_14 
REMARK    2  A    between atoms: C_14  and  C_15 
ROOT
HETATM    1  N   UNK N   1      29.920  17.828   8.953  0.00  0.00    -0.336 N 
HETATM    2  C   UNK N   1      28.860  18.433   9.552  0.00  0.00     0.182 A 
HETATM    3  N   UNK N   1      27.886  18.755   8.660  0.00  0.00    -0.345 N 
ATOM      4  HN  UNK N   1      26.993  19.213   8.846  1.00  0.00     0.167 HD
HETATM    5  C   UNK N   1      28.366  18.333   7.482  0.00  0.00     0.147 A 
HETATM    6  C   UNK N   1      29.582  17.779   7.653  0.00  0.00     0.145 A 
HETATM    7  N   UNK N   1      30.321  17.259   6.629  0.00  0.00    -0.283 N 
HETATM    8  C   UNK N   1      29.752  17.324   5.353  0.00  0.00     0.332 A 
HETATM    9  N   UNK N   1      28.495  17.896   5.165  0.00  0.00    -0.269 N 
HETATM   10  C   UNK N   1      27.790  18.407   6.234  0.00  0.00     0.281 A 
HETATM   11  O   UNK N   1      26.688  18.910   6.082  0.00  0.00    -0.265 OA
HETATM   12  O   UNK N   1      30.340  16.886   4.388  0.00  0.00    -0.246 OA
HETATM   13  C   UNK N   1      27.919  17.954   3.824  0.00  0.00     0.164 C 
HETATM   14  H   UNK N   1      30.747  17.500   9.375  0.00  0.00     0.168 HD
ENDROOT
BRANCH   7  15
HETATM   15  C   UNK N   1      31.641  16.686   6.999  0.00  0.00     0.139 C 
BRANCH  15  16
HETATM   16  C   UNK N   1      33.007  17.418   6.959  0.00  0.00    -0.004 C 
HETATM   17  C   UNK N   1      33.731  17.336   5.632  0.00  0.00     0.011 C 
HETATM   18  C   UNK N   1      33.755  18.210   8.012  0.00  0.00     0.011 C 
ENDBRANCH  15  16
ENDBRANCH   7  15
TORSDOF 2
ENDMDL
MODEL 6
REMARK VINA RESULT:      -5.1      4.007      5.534
REMARK  2 active torsions:
REMARK  status: ('A' for Active; 'I' for Inactive)
REMARK    1  A    between atoms: N_7  and  C_14 
REMARK    2  A    between atoms: C_14  and  C_15 
ROOT
HETATM    1  N   UNK N   1      34.482  16.896  10.353  0.00  0.00    -0.336 N 
HETATM    2  C   UNK N   1      35.311  16.154  11.136  0.00  0.00     0.182 A 
HETATM    3  N   UNK N   1      35.990  15.222  10.417  0.00  0.00    -0.345 N 
ATOM      4  HN  UNK N   1      36.670  14.542  10.758  1.00  0.00     0.167 HD
HETATM    5  C   UNK N   1      35.563  15.401   9.159  0.00  0.00     0.147 A 
HETATM    6  C   UNK N   1      34.661  16.401   9.118  0.00  0.00     0.145 A 
HETATM    7  N   UNK N   1      34.049  16.813   7.968  0.00  0.00    -0.283 N 
HETATM    8  C   UNK N   1      34.403  16.137   6.795  0.00  0.00     0.332 A 
HETATM    9  N   UNK N   1      35.335  15.101   6.828  0.00  0.00    -0.269 N 
HETATM   10  C   UNK N   1      35.925  14.723   8.016  0.00  0.00     0.281 A 
HETATM   11  O   UNK N   1      36.741  13.818   8.057  0.00  0.00    -0.265 OA
HETATM   12  O   UNK N   1      33.908  16.438   5.731  0.00  0.00    -0.246 OA
HETATM   13  C   UNK N   1      35.691  14.407   5.593  0.00  0.00     0.164 C 
HETATM   14  H   UNK N   1      33.886  17.630  10.629  0.00  0.00     0.168 HD
ENDROOT
BRANCH   7  15
HETATM   15  C   UNK N   1      33.081  17.931   8.106  0.00  0.00     0.139 C 
BRANCH  15  16
HETATM   16  C   UNK N   1      31.549  17.803   8.305  0.00  0.00    -0.004 C 
HETATM   17  C   UNK N   1      30.918  16.609   7.623  0.00  0.00     0.011 C 
HETATM   18  C   UNK N   1      30.559  18.662   9.066  0.00  0.00     0.011 C 
ENDBRANCH  15  16
ENDBRANCH   7  15
TORSDOF 2
ENDMDL
MODEL 7
REMARK VINA RESULT:      -5.0     10.820     12.702
REMARK  2 active torsions:
REMARK  status: ('A' for Active; 'I' for Inactive)
REMARK    1  A    between atoms: N_7  and  C_14 
REMARK    2  A    between atoms: C_14  and  C_15 
ROOT
HETATM    1  N   UNK N   1      32.203  20.301  -5.182  0.00  0.00    -0.336 N 
HETATM    2  C   UNK N   1      32.949  20.126  -4.059  0.00  0.00     0.182 A 
HETATM    3  N   UNK N   1      32.499  20.887  -3.026  0.00  0.00    -0.345 N 
ATOM      4  HN  UNK N   1      32.876  20.943  -2.079  1.00  0.00     0.167 HD
HETATM    5  C   UNK N   1      31.447  21.545  -3.535  0.00  0.00     0.147 A 
HETATM    6  C   UNK N   1      31.268  21.197  -4.823  0.00  0.00     0.145 A 
HETATM    7  N   UNK N   1      30.271  21.706  -5.607  0.00  0.00    -0.283 N 
HETATM    8  C   UNK N   1      29.414  22.632  -5.003  0.00  0.00     0.332 A 
HETATM    9  N   UNK N   1      29.592  22.998  -3.670  0.00  0.00    -0.269 N 
HETATM   10  C   UNK N   1      30.615  22.455  -2.922  0.00  0.00     0.281 A 
HETATM   11  O   UNK N   1      30.780  22.768  -1.755  0.00  0.00    -0.265 OA
HETATM   12  O   UNK N   1      28.503  23.133  -5.626  0.00  0.00    -0.246 OA
HETATM   13  C   UNK N   1      28.686  23.968  -3.058  0.00  0.00     0.164 C 
HETATM   14  H   UNK N   1      32.321  19.870  -6.060  0.00  0.00     0.168 HD
ENDROOT
BRANCH   7  15
HETATM   15  C   UNK N   1      30.221  21.211  -7.007  0.00  0.00     0.139 C 
BRANCH  15  16
HETATM   16  C   UNK N   1      29.083  20.377  -7.649  0.00  0.00    -0.004 C 
HETATM   17  C   UNK N   1      29.304  18.880  -7.625  0.00  0.00     0.011 C 
HETATM   18  C   UNK N   1      27.778  20.789  -8.299  0.00  0.00     0.011 C 
ENDBRANCH  15  16
ENDBRANCH   7  15
TORSDOF 2
ENDMDL
MODEL 8
REMARK VINA RESULT:      -5.0      3.575      5.044
REMARK  2 active torsions:
REMARK  status: ('A' for Active; 'I' for Inactive)
REMARK    1  A    between atoms: N_7  and  C_14 
REMARK    2  A    between atoms: C_14  and  C_15 
ROOT
HETATM    1  N   UNK N   1      31.332  17.419   7.085  0.00  0.00    -0.336 N 
HETATM    2  C   UNK N   1      30.666  17.278   8.262  0.00  0.00     0.182 A 
HETATM    3  N   UNK N   1      31.373  16.541   9.161  0.00  0.00    -0.345 N 
ATOM      4  HN  UNK N   1      31.103  16.288  10.112  1.00  0.00     0.167 HD
HETATM    5  C   UNK N   1      32.502  16.224   8.512  0.00  0.00     0.147 A 
HETATM    6  C   UNK N   1      32.481  16.747   7.271  0.00  0.00     0.145 A 
HETATM    7  N   UNK N   1      33.498  16.591   6.373  0.00  0.00    -0.283 N 
HETATM    8  C   UNK N   1      34.600  15.844   6.801  0.00  0.00     0.332 A 
HETATM    9  N   UNK N   1      34.631  15.299   8.084  0.00  0.00    -0.269 N 
HETATM   10  C   UNK N   1      33.577  15.486   8.953  0.00  0.00     0.281 A 
HETATM   11  O   UNK N   1      33.593  15.014  10.077  0.00  0.00    -0.265 OA
HETATM   12  O   UNK N   1      35.547  15.657   6.068  0.00  0.00    -0.246 OA
HETATM   13  C   UNK N   1      35.792  14.522   8.513  0.00  0.00     0.164 C 
HETATM   14  H   UNK N   1      31.039  17.903   6.279  0.00  0.00     0.168 HD
ENDROOT
BRANCH   7  15
HETATM   15  C   UNK N   1      33.307  17.236   5.048  0.00  0.00     0.139 C 
BRANCH  15  16
HETATM   16  C   UNK N   1      32.977  16.521   3.713  0.00  0.00    -0.004 C 
HETATM   17  C   UNK N   1      31.780  17.078   2.975  0.00  0.00     0.011 C 
HETATM   18  C   UNK N   1      33.641  15.357   3.006  0.00  0.00     0.011 C 
ENDBRANCH  15  16
ENDBRANCH   7  15
TORSDOF 2
ENDMDL
MODEL 9
REMARK VINA RESULT:      -5.0     11.863     14.129
REMARK  2 active torsions:
REMARK  status: ('A' for Active; 'I' for Inactive)
REMARK    1  A    between atoms: N_7  and  C_14 
REMARK    2  A    between atoms: C_14  and  C_15 
ROOT
HETATM    1  N   UNK N   1      27.282  24.762  -4.432  0.00  0.00    -0.336 N 
HETATM    2  C   UNK N   1      26.015  25.252  -4.509  0.00  0.00     0.182 A 
HETATM    3  N   UNK N   1      25.301  24.664  -5.506  0.00  0.00    -0.345 N 
ATOM      4  HN  UNK N   1      24.334  24.847  -5.775  1.00  0.00     0.167 HD
HETATM    5  C   UNK N   1      26.158  23.789  -6.052  0.00  0.00     0.147 A 
HETATM    6  C   UNK N   1      27.342  23.845  -5.413  0.00  0.00     0.145 A 
HETATM    7  N   UNK N   1      28.414  23.067  -5.748  0.00  0.00    -0.283 N 
HETATM    8  C   UNK N   1      28.232  22.180  -6.814  0.00  0.00     0.332 A 
HETATM    9  N   UNK N   1      27.010  22.115  -7.482  0.00  0.00    -0.269 N 
HETATM   10  C   UNK N   1      25.959  22.922  -7.104  0.00  0.00     0.281 A 
HETATM   11  O   UNK N   1      24.885  22.874  -7.681  0.00  0.00    -0.265 OA
HETATM   12  O   UNK N   1      29.131  21.453  -7.177  0.00  0.00    -0.246 OA
HETATM   13  C   UNK N   1      26.841  21.181  -8.593  0.00  0.00     0.164 C 
HETATM   14  H   UNK N   1      27.992  25.019  -3.802  0.00  0.00     0.168 HD
ENDROOT
BRANCH   7  15
HETATM   15  C   UNK N   1      29.643  23.260  -4.936  0.00  0.00     0.139 C 
BRANCH  15  16
HETATM   16  C   UNK N   1      30.006  22.519  -3.624  0.00  0.00    -0.004 C 
HETATM   17  C   UNK N   1      30.503  21.103  -3.813  0.00  0.00     0.011 C 
HETATM   18  C   UNK N   1      29.957  22.959  -2.175  0.00  0.00     0.011 C 
ENDBRANCH  15  16
ENDBRANCH   7  15
TORSDOF 2
ENDMDL
