REMARK  2 active torsions:
REMARK  status: ('A' for Active; 'I' for Inactive)
REMARK    1  A    between atoms: N_7  and  C_14 
REMARK    2  A    between atoms: C_14  and  C_15 
ROOT
HETATM    1  N   UNK N   1      -2.850  -0.047   0.000  0.00  0.00    -0.336 N 
HETATM    2  C   UNK N   1      -3.650  -1.147   0.000  0.00  0.00     0.182 A 
HETATM    3  N   UNK N   1      -2.930  -2.300  -0.000  0.00  0.00    -0.345 N 
ATOM      4  HN  UNK N   1      -3.282  -3.258  -0.000  1.00  0.00     0.167 HD
HETATM    5  C   UNK N   1      -1.653  -1.891  -0.000  0.00  0.00     0.147 A 
HETATM    6  C   UNK N   1      -1.602  -0.545   0.000  0.00  0.00     0.145 A 
HETATM    7  N   UNK N   1      -0.433   0.162   0.000  0.00  0.00    -0.283 N 
HETATM    8  C   UNK N   1       0.749  -0.586  -0.000  0.00  0.00     0.332 A 
HETATM    9  N   UNK N   1       0.706  -1.979  -0.000  0.00  0.00    -0.269 N 
HETATM   10  C   UNK N   1      -0.501  -2.645  -0.000  0.00  0.00     0.281 A 
HETATM   11  O   UNK N   1      -0.551  -3.864  -0.000  0.00  0.00    -0.265 OA
HETATM   12  O   UNK N   1       1.830  -0.039   0.000  0.00  0.00    -0.246 OA
HETATM   13  C   UNK N   1       1.952  -2.742  -0.000  0.00  0.00     0.164 C 
HETATM   14  H   UNK N   1      -3.123   0.899   0.000  0.00  0.00     0.168 HD
ENDROOT
BRANCH   7  15
HETATM   15  C   UNK N   1      -0.563   1.642   0.000  0.00  0.00     0.139 C 
BRANCH  15  16
HETATM   16  C   UNK N   1       0.598   2.669  -0.001  0.00  0.00    -0.004 C 
HETATM   17  C   UNK N   1       0.162   4.118   0.000  0.00  0.00     0.011 C 
HETATM   18  C   UNK N   1       2.102   2.486   0.000  0.00  0.00     0.011 C 
ENDBRANCH  15  16
ENDBRANCH   7  15
TORSDOF 2
