MODEL 1
REMARK VINA RESULT:      -5.1      0.000      0.000
REMARK  7 active torsions:
REMARK  status: ('A' for Active; 'I' for Inactive)
REMARK    1  A    between atoms: C_1  and  C_4 
REMARK    2  A    between atoms: C_3  and  C_11 
REMARK    3  A    between atoms: C_6  and  N_9 
REMARK    4  A    between atoms: C_10  and  C_11 
REMARK    5  A    between atoms: C_10  and  O_12 
REMARK    6  A    between atoms: O_12  and  C_15 
REMARK    7  A    between atoms: C_14  and  C_15 
ROOT
HETATM    1  C   UNK N   1      35.279  12.652  17.192  0.00  0.00    -0.035 A 
HETATM    2  C   UNK N   1      35.256  13.421  18.375  0.00  0.00     0.010 A 
HETATM    3  C   UNK N   1      35.224  12.771  19.620  0.00  0.00     0.044 A 
HETATM    4  C   UNK N   1      35.222  11.375  19.690  0.00  0.00     0.026 A 
HETATM    5  C   UNK N   1      35.258  10.617  18.521  0.00  0.00     0.029 A 
HETATM    6  C   UNK N   1      35.288  11.253  17.280  0.00  0.00     0.011 A 
ENDROOT
BRANCH   1   7
HETATM    7  C   UNK N   1      35.288  13.287  15.828  0.00  0.00     0.150 C 
BRANCH   7   8
HETATM    8  C   UNK N   1      36.686  13.330  15.260  0.00  0.00     0.263 C 
HETATM    9  O   UNK N   1      37.398  14.298  15.479  0.00  0.00    -0.265 OA
BRANCH   8  10
HETATM   10  O   UNK N   1      37.181  12.316  14.512  0.00  0.00    -0.320 OA
BRANCH  10  11
HETATM   11  C   UNK N   1      36.600  11.906  13.336  0.00  0.00     0.189 C 
BRANCH  11  12
HETATM   12  C   UNK N   1      36.034  10.503  13.515  0.00  0.00     0.112 C 
HETATM   13 Br   UNK N   1      34.091  10.509  13.609  0.00  0.00    -0.094 Br
ENDBRANCH  11  12
ENDBRANCH  10  11
ENDBRANCH   8  10
ENDBRANCH   7   8
ENDBRANCH   1   7
BRANCH   2  14
HETATM   14  C   UNK N   1      35.251  14.895  18.320  0.00  0.00     0.270 C 
HETATM   15  O   UNK N   1      36.293  15.530  18.387  0.00  0.00    -0.301 OA
ENDBRANCH   2  14
BRANCH   4  16
HETATM   16  N   UNK N   1      35.177  10.732  20.943  0.00  0.00    -0.399 N 
HETATM   17  H   UNK N   1      35.041   9.761  21.036  0.00  0.00     0.156 HD
HETATM   18  H   UNK N   1      35.288  11.274  21.757  0.00  0.00     0.156 HD
ENDBRANCH   4  16
TORSDOF 7
ENDMDL
MODEL 2
REMARK VINA RESULT:      -5.1     26.413     28.026
REMARK  7 active torsions:
REMARK  status: ('A' for Active; 'I' for Inactive)
REMARK    1  A    between atoms: C_1  and  C_4 
REMARK    2  A    between atoms: C_3  and  C_11 
REMARK    3  A    between atoms: C_6  and  N_9 
REMARK    4  A    between atoms: C_10  and  C_11 
REMARK    5  A    between atoms: C_10  and  O_12 
REMARK    6  A    between atoms: O_12  and  C_15 
REMARK    7  A    between atoms: C_14  and  C_15 
ROOT
HETATM    1  C   UNK N   1      25.736  25.183  -5.236  0.00  0.00    -0.035 A 
HETATM    2  C   UNK N   1      26.472  25.333  -4.040  0.00  0.00     0.010 A 
HETATM    3  C   UNK N   1      26.496  26.581  -3.397  0.00  0.00     0.044 A 
HETATM    4  C   UNK N   1      25.794  27.667  -3.928  0.00  0.00     0.026 A 
HETATM    5  C   UNK N   1      25.058  27.514  -5.102  0.00  0.00     0.029 A 
HETATM    6  C   UNK N   1      25.028  26.279  -5.749  0.00  0.00     0.011 A 
ENDROOT
BRANCH   1   7
HETATM    7  C   UNK N   1      25.690  23.881  -5.986  0.00  0.00     0.150 C 
BRANCH   7   8
HETATM    8  C   UNK N   1      25.874  24.103  -7.468  0.00  0.00     0.263 C 
HETATM    9  O   UNK N   1      24.985  23.783  -8.242  0.00  0.00    -0.265 OA
BRANCH   8  10
HETATM   10  O   UNK N   1      27.003  24.656  -7.969  0.00  0.00    -0.320 OA
BRANCH  10  11
HETATM   11  C   UNK N   1      26.989  25.704  -8.858  0.00  0.00     0.189 C 
BRANCH  11  12
HETATM   12  C   UNK N   1      28.272  26.511  -8.707  0.00  0.00     0.112 C 
HETATM   13 Br   UNK N   1      28.089  27.929  -7.388  0.00  0.00    -0.094 Br
ENDBRANCH  11  12
ENDBRANCH  10  11
ENDBRANCH   8  10
ENDBRANCH   7   8
ENDBRANCH   1   7
BRANCH   2  14
HETATM   14  C   UNK N   1      27.224  24.201  -3.468  0.00  0.00     0.270 C 
HETATM   15  O   UNK N   1      27.092  23.887  -2.294  0.00  0.00    -0.301 OA
ENDBRANCH   2  14
BRANCH   4  16
HETATM   16  N   UNK N   1      25.835  28.918  -3.282  0.00  0.00    -0.399 N 
HETATM   17  H   UNK N   1      26.023  29.011  -2.320  0.00  0.00     0.156 HD
HETATM   18  H   UNK N   1      25.669  29.730  -3.813  0.00  0.00     0.156 HD
ENDBRANCH   4  16
TORSDOF 7
ENDMDL
MODEL 3
REMARK VINA RESULT:      -5.1     23.643     25.530
REMARK  7 active torsions:
REMARK  status: ('A' for Active; 'I' for Inactive)
REMARK    1  A    between atoms: C_1  and  C_4 
REMARK    2  A    between atoms: C_3  and  C_11 
REMARK    3  A    between atoms: C_6  and  N_9 
REMARK    4  A    between atoms: C_10  and  C_11 
REMARK    5  A    between atoms: C_10  and  O_12 
REMARK    6  A    between atoms: O_12  and  C_15 
REMARK    7  A    between atoms: C_14  and  C_15 
ROOT
HETATM    1  C   UNK N   1      29.097  23.596  -4.565  0.00  0.00    -0.035 A 
HETATM    2  C   UNK N   1      30.151  22.906  -3.927  0.00  0.00     0.010 A 
HETATM    3  C   UNK N   1      30.661  21.735  -4.511  0.00  0.00     0.044 A 
HETATM    4  C   UNK N   1      30.138  21.256  -5.714  0.00  0.00     0.026 A 
HETATM    5  C   UNK N   1      29.106  21.945  -6.350  0.00  0.00     0.029 A 
HETATM    6  C   UNK N   1      28.591  23.109  -5.779  0.00  0.00     0.011 A 
ENDROOT
BRANCH   1   7
HETATM    7  C   UNK N   1      28.490  24.842  -3.980  0.00  0.00     0.150 C 
BRANCH   7   8
HETATM    8  C   UNK N   1      27.129  24.556  -3.392  0.00  0.00     0.263 C 
HETATM    9  O   UNK N   1      27.024  23.756  -2.474  0.00  0.00    -0.265 OA
BRANCH   8  10
HETATM   10  O   UNK N   1      26.013  25.167  -3.853  0.00  0.00    -0.320 OA
BRANCH  10  11
HETATM   11  C   UNK N   1      25.726  25.283  -5.191  0.00  0.00     0.189 C 
BRANCH  11  12
HETATM   12  C   UNK N   1      25.076  26.636  -5.453  0.00  0.00     0.112 C 
HETATM   13 Br   UNK N   1      25.686  27.990  -4.196  0.00  0.00    -0.094 Br
ENDBRANCH  11  12
ENDBRANCH  10  11
ENDBRANCH   8  10
ENDBRANCH   7   8
ENDBRANCH   1   7
BRANCH   2  14
HETATM   14  C   UNK N   1      30.712  23.392  -2.653  0.00  0.00     0.270 C 
HETATM   15  O   UNK N   1      30.308  22.960  -1.583  0.00  0.00    -0.301 OA
ENDBRANCH   2  14
BRANCH   4  16
HETATM   16  N   UNK N   1      30.648  20.074  -6.285  0.00  0.00    -0.399 N 
HETATM   17  H   UNK N   1      30.750  19.239  -5.772  0.00  0.00     0.156 HD
HETATM   18  H   UNK N   1      30.911  20.081  -7.233  0.00  0.00     0.156 HD
ENDBRANCH   4  16
TORSDOF 7
ENDMDL
MODEL 4
REMARK VINA RESULT:      -5.0      2.718      3.658
REMARK  7 active torsions:
REMARK  status: ('A' for Active; 'I' for Inactive)
REMARK    1  A    between atoms: C_1  and  C_4 
REMARK    2  A    between atoms: C_3  and  C_11 
REMARK    3  A    between atoms: C_6  and  N_9 
REMARK    4  A    between atoms: C_10  and  C_11 
REMARK    5  A    between atoms: C_10  and  O_12 
REMARK    6  A    between atoms: O_12  and  C_15 
REMARK    7  A    between atoms: C_14  and  C_15 
ROOT
HETATM    1  C   UNK N   1      35.804  12.436  16.380  0.00  0.00    -0.035 A 
HETATM    2  C   UNK N   1      35.755  11.328  17.254  0.00  0.00     0.010 A 
HETATM    3  C   UNK N   1      35.440  11.531  18.607  0.00  0.00     0.044 A 
HETATM    4  C   UNK N   1      35.171  12.816  19.088  0.00  0.00     0.026 A 
HETATM    5  C   UNK N   1      35.206  13.907  18.221  0.00  0.00     0.029 A 
HETATM    6  C   UNK N   1      35.519  13.716  16.875  0.00  0.00     0.011 A 
ENDROOT
BRANCH   1   7
HETATM    7  C   UNK N   1      36.159  12.289  14.925  0.00  0.00     0.150 C 
BRANCH   7   8
HETATM    8  C   UNK N   1      34.956  12.534  14.047  0.00  0.00     0.263 C 
HETATM    9  O   UNK N   1      33.978  11.809  14.147  0.00  0.00    -0.265 OA
BRANCH   8  10
HETATM   10  O   UNK N   1      34.927  13.544  13.147  0.00  0.00    -0.320 OA
BRANCH  10  11
HETATM   11  C   UNK N   1      35.968  14.426  12.983  0.00  0.00     0.189 C 
BRANCH  11  12
HETATM   12  C   UNK N   1      36.209  14.651  11.495  0.00  0.00     0.112 C 
HETATM   13 Br   UNK N   1      35.441  16.329  10.880  0.00  0.00    -0.094 Br
ENDBRANCH  11  12
ENDBRANCH  10  11
ENDBRANCH   8  10
ENDBRANCH   7   8
ENDBRANCH   1   7
BRANCH   2  14
HETATM   14  C   UNK N   1      36.044   9.967  16.767  0.00  0.00     0.270 C 
HETATM   15  O   UNK N   1      35.140   9.209  16.448  0.00  0.00    -0.301 OA
ENDBRANCH   2  14
BRANCH   4  16
HETATM   16  N   UNK N   1      34.868  13.011  20.449  0.00  0.00    -0.399 N 
HETATM   17  H   UNK N   1      34.066  12.628  20.874  0.00  0.00     0.156 HD
HETATM   18  H   UNK N   1      35.482  13.550  20.999  0.00  0.00     0.156 HD
ENDBRANCH   4  16
TORSDOF 7
ENDMDL
MODEL 5
REMARK VINA RESULT:      -5.0     26.597     28.271
REMARK  7 active torsions:
REMARK  status: ('A' for Active; 'I' for Inactive)
REMARK    1  A    between atoms: C_1  and  C_4 
REMARK    2  A    between atoms: C_3  and  C_11 
REMARK    3  A    between atoms: C_6  and  N_9 
REMARK    4  A    between atoms: C_10  and  C_11 
REMARK    5  A    between atoms: C_10  and  O_12 
REMARK    6  A    between atoms: O_12  and  C_15 
REMARK    7  A    between atoms: C_14  and  C_15 
ROOT
HETATM    1  C   UNK N   1      26.157  27.298  -6.028  0.00  0.00    -0.035 A 
HETATM    2  C   UNK N   1      26.499  28.373  -5.179  0.00  0.00     0.010 A 
HETATM    3  C   UNK N   1      27.547  29.233  -5.544  0.00  0.00     0.044 A 
HETATM    4  C   UNK N   1      28.245  29.033  -6.738  0.00  0.00     0.026 A 
HETATM    5  C   UNK N   1      27.898  27.979  -7.581  0.00  0.00     0.029 A 
HETATM    6  C   UNK N   1      26.859  27.118  -7.228  0.00  0.00     0.011 A 
ENDROOT
BRANCH   1   7
HETATM    7  C   UNK N   1      25.061  26.327  -5.683  0.00  0.00     0.150 C 
BRANCH   7   8
HETATM    8  C   UNK N   1      25.631  25.033  -5.153  0.00  0.00     0.263 C 
HETATM    9  O   UNK N   1      25.321  23.976  -5.681  0.00  0.00    -0.265 OA
BRANCH   8  10
HETATM   10  O   UNK N   1      26.484  25.010  -4.104  0.00  0.00    -0.320 OA
BRANCH  10  11
HETATM   11  C   UNK N   1      27.595  24.202  -4.064  0.00  0.00     0.189 C 
BRANCH  11  12
HETATM   12  C   UNK N   1      28.675  24.783  -4.969  0.00  0.00     0.112 C 
HETATM   13 Br   UNK N   1      29.578  26.296  -4.144  0.00  0.00    -0.094 Br
ENDBRANCH  11  12
ENDBRANCH  10  11
ENDBRANCH   8  10
ENDBRANCH   7   8
ENDBRANCH   1   7
BRANCH   2  14
HETATM   14  C   UNK N   1      25.778  28.595  -3.912  0.00  0.00     0.270 C 
HETATM   15  O   UNK N   1      26.201  28.138  -2.860  0.00  0.00    -0.301 OA
ENDBRANCH   2  14
BRANCH   4  16
HETATM   16  N   UNK N   1      29.304  29.893  -7.089  0.00  0.00    -0.399 N 
HETATM   17  H   UNK N   1      29.437  30.222  -8.008  0.00  0.00     0.156 HD
HETATM   18  H   UNK N   1      29.934  30.179  -6.389  0.00  0.00     0.156 HD
ENDBRANCH   4  16
TORSDOF 7
ENDMDL
MODEL 6
REMARK VINA RESULT:      -4.9      8.044      9.750
REMARK  7 active torsions:
REMARK  status: ('A' for Active; 'I' for Inactive)
REMARK    1  A    between atoms: C_1  and  C_4 
REMARK    2  A    between atoms: C_3  and  C_11 
REMARK    3  A    between atoms: C_6  and  N_9 
REMARK    4  A    between atoms: C_10  and  C_11 
REMARK    5  A    between atoms: C_10  and  O_12 
REMARK    6  A    between atoms: O_12  and  C_15 
REMARK    7  A    between atoms: C_14  and  C_15 
ROOT
HETATM    1  C   UNK N   1      34.652  16.252   9.581  0.00  0.00    -0.035 A 
HETATM    2  C   UNK N   1      34.836  14.933   9.111  0.00  0.00     0.010 A 
HETATM    3  C   UNK N   1      35.753  14.091   9.761  0.00  0.00     0.044 A 
HETATM    4  C   UNK N   1      36.473  14.548  10.868  0.00  0.00     0.026 A 
HETATM    5  C   UNK N   1      36.281  15.845  11.339  0.00  0.00     0.029 A 
HETATM    6  C   UNK N   1      35.374  16.690  10.700  0.00  0.00     0.011 A 
ENDROOT
BRANCH   1   7
HETATM    7  C   UNK N   1      33.705  17.211   8.914  0.00  0.00     0.150 C 
BRANCH   7   8
HETATM    8  C   UNK N   1      34.436  18.108   7.944  0.00  0.00     0.263 C 
HETATM    9  O   UNK N   1      35.040  19.084   8.362  0.00  0.00    -0.265 OA
BRANCH   8  10
HETATM   10  O   UNK N   1      34.447  17.857   6.615  0.00  0.00    -0.320 OA
BRANCH  10  11
HETATM   11  C   UNK N   1      33.311  17.547   5.906  0.00  0.00     0.189 C 
BRANCH  11  12
HETATM   12  C   UNK N   1      33.622  16.429   4.918  0.00  0.00     0.112 C 
HETATM   13 Br   UNK N   1      32.751  16.711   3.202  0.00  0.00    -0.094 Br
ENDBRANCH  11  12
ENDBRANCH  10  11
ENDBRANCH   8  10
ENDBRANCH   7   8
ENDBRANCH   1   7
BRANCH   2  14
HETATM   14  C   UNK N   1      34.090  14.436   7.940  0.00  0.00     0.270 C 
HETATM   15  O   UNK N   1      33.050  13.809   8.078  0.00  0.00    -0.301 OA
ENDBRANCH   2  14
BRANCH   4  16
HETATM   16  N   UNK N   1      37.399  13.699  11.506  0.00  0.00    -0.399 N 
HETATM   17  H   UNK N   1      38.029  13.130  11.006  0.00  0.00     0.156 HD
HETATM   18  H   UNK N   1      37.419  13.675  12.490  0.00  0.00     0.156 HD
ENDBRANCH   4  16
TORSDOF 7
ENDMDL
MODEL 7
REMARK VINA RESULT:      -4.9     26.024     27.630
REMARK  7 active torsions:
REMARK  status: ('A' for Active; 'I' for Inactive)
REMARK    1  A    between atoms: C_1  and  C_4 
REMARK    2  A    between atoms: C_3  and  C_11 
REMARK    3  A    between atoms: C_6  and  N_9 
REMARK    4  A    between atoms: C_10  and  C_11 
REMARK    5  A    between atoms: C_10  and  O_12 
REMARK    6  A    between atoms: O_12  and  C_15 
REMARK    7  A    between atoms: C_14  and  C_15 
ROOT
HETATM    1  C   UNK N   1      25.761  25.199  -5.120  0.00  0.00    -0.035 A 
HETATM    2  C   UNK N   1      26.551  25.431  -3.973  0.00  0.00     0.010 A 
HETATM    3  C   UNK N   1      26.581  26.715  -3.405  0.00  0.00     0.044 A 
HETATM    4  C   UNK N   1      25.833  27.755  -3.964  0.00  0.00     0.026 A 
HETATM    5  C   UNK N   1      25.044  27.521  -5.088  0.00  0.00     0.029 A 
HETATM    6  C   UNK N   1      25.007  26.250  -5.661  0.00  0.00     0.011 A 
ENDROOT
BRANCH   1   7
HETATM    7  C   UNK N   1      25.705  23.853  -5.790  0.00  0.00     0.150 C 
BRANCH   7   8
HETATM    8  C   UNK N   1      26.239  23.928  -7.201  0.00  0.00     0.263 C 
HETATM    9  O   UNK N   1      27.360  24.372  -7.399  0.00  0.00    -0.265 OA
BRANCH   8  10
HETATM   10  O   UNK N   1      25.508  23.512  -8.260  0.00  0.00    -0.320 OA
BRANCH  10  11
HETATM   11  C   UNK N   1      26.066  22.889  -9.351  0.00  0.00     0.189 C 
BRANCH  11  12
HETATM   12  C   UNK N   1      26.077  21.382  -9.120  0.00  0.00     0.112 C 
HETATM   13 Br   UNK N   1      27.782  20.768  -8.414  0.00  0.00    -0.094 Br
ENDBRANCH  11  12
ENDBRANCH  10  11
ENDBRANCH   8  10
ENDBRANCH   7   8
ENDBRANCH   1   7
BRANCH   2  14
HETATM   14  C   UNK N   1      27.352  24.348  -3.374  0.00  0.00     0.270 C 
HETATM   15  O   UNK N   1      27.002  23.808  -2.335  0.00  0.00    -0.301 OA
ENDBRANCH   2  14
BRANCH   4  16
HETATM   16  N   UNK N   1      25.880  29.043  -3.394  0.00  0.00    -0.399 N 
HETATM   17  H   UNK N   1      25.751  29.201  -2.431  0.00  0.00     0.156 HD
HETATM   18  H   UNK N   1      26.049  29.814  -3.982  0.00  0.00     0.156 HD
ENDBRANCH   4  16
TORSDOF 7
ENDMDL
MODEL 8
REMARK VINA RESULT:      -4.9      9.381     11.317
REMARK  7 active torsions:
REMARK  status: ('A' for Active; 'I' for Inactive)
REMARK    1  A    between atoms: C_1  and  C_4 
REMARK    2  A    between atoms: C_3  and  C_11 
REMARK    3  A    between atoms: C_6  and  N_9 
REMARK    4  A    between atoms: C_10  and  C_11 
REMARK    5  A    between atoms: C_10  and  O_12 
REMARK    6  A    between atoms: O_12  and  C_15 
REMARK    7  A    between atoms: C_14  and  C_15 
ROOT
HETATM    1  C   UNK N   1      32.839  17.864   7.665  0.00  0.00    -0.035 A 
HETATM    2  C   UNK N   1      32.595  17.374   6.364  0.00  0.00     0.010 A 
HETATM    3  C   UNK N   1      31.290  17.008   5.998  0.00  0.00     0.044 A 
HETATM    4  C   UNK N   1      30.237  17.132   6.908  0.00  0.00     0.026 A 
HETATM    5  C   UNK N   1      30.476  17.628   8.188  0.00  0.00     0.029 A 
HETATM    6  C   UNK N   1      31.769  17.994   8.563  0.00  0.00     0.011 A 
ENDROOT
BRANCH   1   7
HETATM    7  C   UNK N   1      34.217  18.250   8.128  0.00  0.00     0.150 C 
BRANCH   7   8
HETATM    8  C   UNK N   1      34.765  17.235   9.102  0.00  0.00     0.263 C 
HETATM    9  O   UNK N   1      35.407  17.613  10.070  0.00  0.00    -0.265 OA
BRANCH   8  10
HETATM   10  O   UNK N   1      34.561  15.908   8.935  0.00  0.00    -0.320 OA
BRANCH  10  11
HETATM   11  C   UNK N   1      33.927  15.128   9.872  0.00  0.00     0.189 C 
BRANCH  11  12
HETATM   12  C   UNK N   1      32.692  14.491   9.246  0.00  0.00     0.112 C 
HETATM   13 Br   UNK N   1      33.060  13.779   7.474  0.00  0.00    -0.094 Br
ENDBRANCH  11  12
ENDBRANCH  10  11
ENDBRANCH   8  10
ENDBRANCH   7   8
ENDBRANCH   1   7
BRANCH   2  14
HETATM   14  C   UNK N   1      33.695  17.230   5.392  0.00  0.00     0.270 C 
HETATM   15  O   UNK N   1      33.996  16.134   4.942  0.00  0.00    -0.301 OA
ENDBRANCH   2  14
BRANCH   4  16
HETATM   16  N   UNK N   1      28.933  16.750   6.535  0.00  0.00    -0.399 N 
HETATM   17  H   UNK N   1      28.151  17.333   6.671  0.00  0.00     0.156 HD
HETATM   18  H   UNK N   1      28.799  15.867   6.121  0.00  0.00     0.156 HD
ENDBRANCH   4  16
TORSDOF 7
ENDMDL
MODEL 9
REMARK VINA RESULT:      -4.9     27.008     28.681
REMARK  7 active torsions:
REMARK  status: ('A' for Active; 'I' for Inactive)
REMARK    1  A    between atoms: C_1  and  C_4 
REMARK    2  A    between atoms: C_3  and  C_11 
REMARK    3  A    between atoms: C_6  and  N_9 
REMARK    4  A    between atoms: C_10  and  C_11 
REMARK    5  A    between atoms: C_10  and  O_12 
REMARK    6  A    between atoms: O_12  and  C_15 
REMARK    7  A    between atoms: C_14  and  C_15 
ROOT
HETATM    1  C   UNK N   1      26.053  27.133  -6.676  0.00  0.00    -0.035 A 
HETATM    2  C   UNK N   1      27.145  28.007  -6.484  0.00  0.00     0.010 A 
HETATM    3  C   UNK N   1      27.189  28.814  -5.335  0.00  0.00     0.044 A 
HETATM    4  C   UNK N   1      26.166  28.752  -4.386  0.00  0.00     0.026 A 
HETATM    5  C   UNK N   1      25.094  27.880  -4.570  0.00  0.00     0.029 A 
HETATM    6  C   UNK N   1      25.040  27.074  -5.707  0.00  0.00     0.011 A 
ENDROOT
BRANCH   1   7
HETATM    7  C   UNK N   1      25.933  26.261  -7.896  0.00  0.00     0.150 C 
BRANCH   7   8
HETATM    8  C   UNK N   1      25.890  24.800  -7.514  0.00  0.00     0.263 C 
HETATM    9  O   UNK N   1      25.112  24.051  -8.084  0.00  0.00    -0.265 OA
BRANCH   8  10
HETATM   10  O   UNK N   1      26.697  24.292  -6.555  0.00  0.00    -0.320 OA
BRANCH  10  11
HETATM   11  C   UNK N   1      26.233  23.497  -5.535  0.00  0.00     0.189 C 
BRANCH  11  12
HETATM   12  C   UNK N   1      26.468  24.198  -4.202  0.00  0.00     0.112 C 
HETATM   13 Br   UNK N   1      28.164  25.150  -4.170  0.00  0.00    -0.094 Br
ENDBRANCH  11  12
ENDBRANCH  10  11
ENDBRANCH   8  10
ENDBRANCH   7   8
ENDBRANCH   1   7
BRANCH   2  14
HETATM   14  C   UNK N   1      28.231  28.090  -7.479  0.00  0.00     0.270 C 
HETATM   15  O   UNK N   1      28.773  29.156  -7.729  0.00  0.00    -0.301 OA
ENDBRANCH   2  14
BRANCH   4  16
HETATM   16  N   UNK N   1      26.213  29.575  -3.243  0.00  0.00    -0.399 N 
HETATM   17  H   UNK N   1      26.460  29.233  -2.354  0.00  0.00     0.156 HD
HETATM   18  H   UNK N   1      25.992  30.530  -3.338  0.00  0.00     0.156 HD
ENDBRANCH   4  16
TORSDOF 7
ENDMDL
