MODEL 1
REMARK VINA RESULT:      -6.2      0.000      0.000
REMARK  7 active torsions:
REMARK  status: ('A' for Active; 'I' for Inactive)
REMARK    1  A    between atoms: C_1  and  C_3 
REMARK    2  A    between atoms: C_9  and  N_10 
REMARK       I    between atoms: N_10  and  C_11 
REMARK    3  A    between atoms: C_11  and  C_13 
REMARK    4  A    between atoms: C_13  and  C_14 
REMARK    5  A    between atoms: C_13  and  N_17 
REMARK       I    between atoms: N_17  and  C_18 
REMARK    6  A    between atoms: C_18  and  O_20 
REMARK    7  A    between atoms: O_20  and  C_21 
ROOT
HETATM    1  N   UNK N   1      28.409  24.758  -4.187  0.00  0.00    -0.324 N 
HETATM    2  C   UNK N   1      27.112  24.913  -3.810  0.00  0.00     0.245 C 
HETATM    3  O   UNK N   1      26.543  24.047  -3.161  0.00  0.00    -0.271 OA
HETATM    4  H   UNK N   1      28.840  25.519  -4.641  0.00  0.00     0.169 HD
ENDROOT
BRANCH   2   5
HETATM    5  C   UNK N   1      26.401  26.203  -4.183  0.00  0.00     0.182 C 
BRANCH   5   6
HETATM    6  C   UNK N   1      25.444  26.071  -5.391  0.00  0.00     0.009 C 
HETATM    7  C   UNK N   1      24.498  27.236  -5.605  0.00  0.00     0.012 C 
HETATM    8  C   UNK N   1      26.227  25.852  -6.679  0.00  0.00     0.012 C 
ENDBRANCH   5   6
BRANCH   5   9
HETATM    9  N   UNK N   1      27.305  27.347  -4.271  0.00  0.00    -0.323 N 
HETATM   10  C   UNK N   1      27.450  28.360  -3.372  0.00  0.00     0.362 C 
HETATM   11  O   UNK N   1      26.784  28.392  -2.348  0.00  0.00    -0.238 OA
HETATM   12  H   UNK N   1      27.875  27.391  -5.072  0.00  0.00     0.165 HD
BRANCH  10  13
HETATM   13  O   UNK N   1      28.293  29.386  -3.644  0.00  0.00    -0.294 OA
BRANCH  13  14
HETATM   14  C   UNK N   1      29.586  29.488  -3.153  0.00  0.00     0.061 C 
HETATM   15  C   UNK N   1      29.587  30.073  -1.751  0.00  0.00     0.046 C 
HETATM   16  C   UNK N   1      30.370  30.418  -4.054  0.00  0.00     0.046 C 
HETATM   17  C   UNK N   1      30.280  28.137  -3.142  0.00  0.00     0.046 C 
ENDBRANCH  13  14
ENDBRANCH  10  13
ENDBRANCH   5   9
ENDBRANCH   2   5
BRANCH   1  18
HETATM   18  C   UNK N   1      29.199  23.593  -3.984  0.00  0.00     0.049 A 
HETATM   19  C   UNK N   1      29.390  22.614  -4.999  0.00  0.00     0.050 A 
HETATM   20  C   UNK N   1      30.260  21.530  -4.748  0.00  0.00     0.049 A 
HETATM   21 Cl   UNK N   1      30.579  20.308  -5.973  0.00  0.00    -0.083 Cl
HETATM   22  C   UNK N   1      30.922  21.424  -3.523  0.00  0.00     0.025 A 
HETATM   23  C   UNK N   1      30.736  22.388  -2.536  0.00  0.00     0.004 A 
HETATM   24  C   UNK N   1      29.890  23.471  -2.771  0.00  0.00     0.030 A 
BRANCH  19  25
HETATM   25  C   UNK N   1      28.754  22.701  -6.338  0.00  0.00     0.274 C 
HETATM   26  O   UNK N   1      27.546  22.663  -6.499  0.00  0.00    -0.301 OA
ENDBRANCH  19  25
ENDBRANCH   1  18
TORSDOF 7
ENDMDL
MODEL 2
REMARK VINA RESULT:      -6.2     14.274     17.409
REMARK  7 active torsions:
REMARK  status: ('A' for Active; 'I' for Inactive)
REMARK    1  A    between atoms: C_1  and  C_3 
REMARK    2  A    between atoms: C_9  and  N_10 
REMARK       I    between atoms: N_10  and  C_11 
REMARK    3  A    between atoms: C_11  and  C_13 
REMARK    4  A    between atoms: C_13  and  C_14 
REMARK    5  A    between atoms: C_13  and  N_17 
REMARK       I    between atoms: N_17  and  C_18 
REMARK    6  A    between atoms: C_18  and  O_20 
REMARK    7  A    between atoms: O_20  and  C_21 
ROOT
HETATM    1  N   UNK N   1      31.878  16.717   8.292  0.00  0.00    -0.324 N 
HETATM    2  C   UNK N   1      33.118  17.267   8.189  0.00  0.00     0.245 C 
HETATM    3  O   UNK N   1      33.255  18.468   8.003  0.00  0.00    -0.271 OA
HETATM    4  H   UNK N   1      31.829  15.760   8.518  0.00  0.00     0.169 HD
ENDROOT
BRANCH   2   5
HETATM    5  C   UNK N   1      34.326  16.359   8.349  0.00  0.00     0.182 C 
BRANCH   5   6
HETATM    6  C   UNK N   1      34.469  15.295   7.235  0.00  0.00     0.009 C 
HETATM    7  C   UNK N   1      34.566  15.838   5.823  0.00  0.00     0.012 C 
HETATM    8  C   UNK N   1      35.680  14.408   7.489  0.00  0.00     0.012 C 
ENDBRANCH   5   6
BRANCH   5   9
HETATM    9  N   UNK N   1      34.459  15.819   9.699  0.00  0.00    -0.323 N 
HETATM   10  C   UNK N   1      35.238  16.294  10.709  0.00  0.00     0.362 C 
HETATM   11  O   UNK N   1      35.940  17.282  10.551  0.00  0.00    -0.238 OA
HETATM   12  H   UNK N   1      33.922  15.019   9.903  0.00  0.00     0.165 HD
BRANCH  10  13
HETATM   13  O   UNK N   1      35.294  15.626  11.888  0.00  0.00    -0.294 OA
BRANCH  13  14
HETATM   14  C   UNK N   1      35.862  14.372  12.052  0.00  0.00     0.061 C 
HETATM   15  C   UNK N   1      34.820  13.279  11.882  0.00  0.00     0.046 C 
HETATM   16  C   UNK N   1      36.422  14.278  13.455  0.00  0.00     0.046 C 
HETATM   17  C   UNK N   1      36.999  14.150  11.068  0.00  0.00     0.046 C 
ENDBRANCH  13  14
ENDBRANCH  10  13
ENDBRANCH   5   9
ENDBRANCH   2   5
BRANCH   1  18
HETATM   18  C   UNK N   1      30.648  17.403   8.100  0.00  0.00     0.049 A 
HETATM   19  C   UNK N   1      30.013  17.490   6.829  0.00  0.00     0.050 A 
HETATM   20  C   UNK N   1      28.749  18.114   6.739  0.00  0.00     0.049 A 
HETATM   21 Cl   UNK N   1      27.885  18.215   5.209  0.00  0.00    -0.083 Cl
HETATM   22  C   UNK N   1      28.133  18.634   7.879  0.00  0.00     0.025 A 
HETATM   23  C   UNK N   1      28.757  18.540   9.121  0.00  0.00     0.004 A 
HETATM   24  C   UNK N   1      29.999  17.918   9.231  0.00  0.00     0.030 A 
BRANCH  19  25
HETATM   25  C   UNK N   1      30.594  16.911   5.592  0.00  0.00     0.274 C 
HETATM   26  O   UNK N   1      31.581  17.374   5.047  0.00  0.00    -0.301 OA
ENDBRANCH  19  25
ENDBRANCH   1  18
TORSDOF 7
ENDMDL
MODEL 3
REMARK VINA RESULT:      -6.1     17.381     20.654
REMARK  7 active torsions:
REMARK  status: ('A' for Active; 'I' for Inactive)
REMARK    1  A    between atoms: C_1  and  C_3 
REMARK    2  A    between atoms: C_9  and  N_10 
REMARK       I    between atoms: N_10  and  C_11 
REMARK    3  A    between atoms: C_11  and  C_13 
REMARK    4  A    between atoms: C_13  and  C_14 
REMARK    5  A    between atoms: C_13  and  N_17 
REMARK       I    between atoms: N_17  and  C_18 
REMARK    6  A    between atoms: C_18  and  O_20 
REMARK    7  A    between atoms: O_20  and  C_21 
ROOT
HETATM    1  N   UNK N   1      35.256  14.982   9.483  0.00  0.00    -0.324 N 
HETATM    2  C   UNK N   1      36.209  15.241  10.419  0.00  0.00     0.245 C 
HETATM    3  O   UNK N   1      36.608  16.382  10.604  0.00  0.00    -0.271 OA
HETATM    4  H   UNK N   1      34.917  14.058   9.430  0.00  0.00     0.169 HD
ENDROOT
BRANCH   2   5
HETATM    5  C   UNK N   1      36.736  14.084  11.251  0.00  0.00     0.182 C 
BRANCH   5   6
HETATM    6  C   UNK N   1      37.413  12.967  10.424  0.00  0.00     0.009 C 
HETATM    7  C   UNK N   1      38.922  13.066  10.305  0.00  0.00     0.012 C 
HETATM    8  C   UNK N   1      37.069  11.595  10.987  0.00  0.00     0.012 C 
ENDBRANCH   5   6
BRANCH   5   9
HETATM    9  N   UNK N   1      35.763  13.590  12.222  0.00  0.00    -0.323 N 
HETATM   10  C   UNK N   1      35.685  13.894  13.547  0.00  0.00     0.362 C 
HETATM   11  O   UNK N   1      36.484  14.660  14.064  0.00  0.00    -0.238 OA
HETATM   12  H   UNK N   1      35.084  12.965  11.878  0.00  0.00     0.165 HD
BRANCH  10  13
HETATM   13  O   UNK N   1      34.752  13.289  14.323  0.00  0.00    -0.294 OA
BRANCH  13  14
HETATM   14  C   UNK N   1      34.987  12.160  15.093  0.00  0.00     0.061 C 
HETATM   15  C   UNK N   1      33.913  11.111  14.857  0.00  0.00     0.046 C 
HETATM   16  C   UNK N   1      34.949  12.558  16.553  0.00  0.00     0.046 C 
HETATM   17  C   UNK N   1      36.354  11.565  14.796  0.00  0.00     0.046 C 
ENDBRANCH  13  14
ENDBRANCH  10  13
ENDBRANCH   5   9
ENDBRANCH   2   5
BRANCH   1  18
HETATM   18  C   UNK N   1      34.706  15.927   8.575  0.00  0.00     0.049 A 
HETATM   19  C   UNK N   1      34.623  15.681   7.175  0.00  0.00     0.050 A 
HETATM   20  C   UNK N   1      33.984  16.633   6.351  0.00  0.00     0.049 A 
HETATM   21 Cl   UNK N   1      33.803  16.373   4.620  0.00  0.00    -0.083 Cl
HETATM   22  C   UNK N   1      33.442  17.796   6.903  0.00  0.00     0.025 A 
HETATM   23  C   UNK N   1      33.521  18.029   8.273  0.00  0.00     0.004 A 
HETATM   24  C   UNK N   1      34.138  17.094   9.104  0.00  0.00     0.030 A 
BRANCH  19  25
HETATM   25  C   UNK N   1      35.134  14.441   6.539  0.00  0.00     0.274 C 
HETATM   26  O   UNK N   1      36.244  13.992   6.767  0.00  0.00    -0.301 OA
ENDBRANCH  19  25
ENDBRANCH   1  18
TORSDOF 7
ENDMDL
MODEL 4
REMARK VINA RESULT:      -6.1     17.920     21.143
REMARK  7 active torsions:
REMARK  status: ('A' for Active; 'I' for Inactive)
REMARK    1  A    between atoms: C_1  and  C_3 
REMARK    2  A    between atoms: C_9  and  N_10 
REMARK       I    between atoms: N_10  and  C_11 
REMARK    3  A    between atoms: C_11  and  C_13 
REMARK    4  A    between atoms: C_13  and  C_14 
REMARK    5  A    between atoms: C_13  and  N_17 
REMARK       I    between atoms: N_17  and  C_18 
REMARK    6  A    between atoms: C_18  and  O_20 
REMARK    7  A    between atoms: O_20  and  C_21 
ROOT
HETATM    1  N   UNK N   1      33.741  14.080  10.288  0.00  0.00    -0.324 N 
HETATM    2  C   UNK N   1      34.648  13.106  10.004  0.00  0.00     0.245 C 
HETATM    3  O   UNK N   1      35.287  13.134   8.961  0.00  0.00    -0.271 OA
HETATM    4  H   UNK N   1      33.312  14.049  11.174  0.00  0.00     0.169 HD
ENDROOT
BRANCH   2   5
HETATM    5  C   UNK N   1      34.872  12.008  11.029  0.00  0.00     0.182 C 
BRANCH   5   6
HETATM    6  C   UNK N   1      34.232  10.651  10.653  0.00  0.00     0.009 C 
HETATM    7  C   UNK N   1      35.128   9.696   9.889  0.00  0.00     0.012 C 
HETATM    8  C   UNK N   1      33.720   9.934  11.894  0.00  0.00     0.012 C 
ENDBRANCH   5   6
BRANCH   5   9
HETATM    9  N   UNK N   1      34.584  12.435  12.396  0.00  0.00    -0.323 N 
HETATM   10  C   UNK N   1      35.391  13.150  13.228  0.00  0.00     0.362 C 
HETATM   11  O   UNK N   1      36.501  13.514  12.869  0.00  0.00    -0.238 OA
HETATM   12  H   UNK N   1      33.706  12.178  12.756  0.00  0.00     0.165 HD
BRANCH  10  13
HETATM   13  O   UNK N   1      34.991  13.405  14.498  0.00  0.00    -0.294 OA
BRANCH  13  14
HETATM   14  C   UNK N   1      35.050  12.489  15.537  0.00  0.00     0.061 C 
HETATM   15  C   UNK N   1      34.808  13.170  16.873  0.00  0.00     0.046 C 
HETATM   16  C   UNK N   1      36.435  11.877  15.560  0.00  0.00     0.046 C 
HETATM   17  C   UNK N   1      34.038  11.372  15.344  0.00  0.00     0.046 C 
ENDBRANCH  13  14
ENDBRANCH  10  13
ENDBRANCH   5   9
ENDBRANCH   2   5
BRANCH   1  18
HETATM   18  C   UNK N   1      33.357  15.137   9.418  0.00  0.00     0.049 A 
HETATM   19  C   UNK N   1      34.081  16.360   9.339  0.00  0.00     0.050 A 
HETATM   20  C   UNK N   1      33.688  17.326   8.387  0.00  0.00     0.049 A 
HETATM   21 Cl   UNK N   1      34.565  18.840   8.201  0.00  0.00    -0.083 Cl
HETATM   22  C   UNK N   1      32.607  17.082   7.536  0.00  0.00     0.025 A 
HETATM   23  C   UNK N   1      31.907  15.881   7.615  0.00  0.00     0.004 A 
HETATM   24  C   UNK N   1      32.289  14.911   8.540  0.00  0.00     0.030 A 
BRANCH  19  25
HETATM   25  C   UNK N   1      35.268  16.654  10.180  0.00  0.00     0.274 C 
HETATM   26  O   UNK N   1      35.323  16.375  11.365  0.00  0.00    -0.301 OA
ENDBRANCH  19  25
ENDBRANCH   1  18
TORSDOF 7
ENDMDL
MODEL 5
REMARK VINA RESULT:      -6.0     16.157     19.469
REMARK  7 active torsions:
REMARK  status: ('A' for Active; 'I' for Inactive)
REMARK    1  A    between atoms: C_1  and  C_3 
REMARK    2  A    between atoms: C_9  and  N_10 
REMARK       I    between atoms: N_10  and  C_11 
REMARK    3  A    between atoms: C_11  and  C_13 
REMARK    4  A    between atoms: C_13  and  C_14 
REMARK    5  A    between atoms: C_13  and  N_17 
REMARK       I    between atoms: N_17  and  C_18 
REMARK    6  A    between atoms: C_18  and  O_20 
REMARK    7  A    between atoms: O_20  and  C_21 
ROOT
HETATM    1  N   UNK N   1      33.524  15.438   8.876  0.00  0.00    -0.324 N 
HETATM    2  C   UNK N   1      34.518  16.010   9.608  0.00  0.00     0.245 C 
HETATM    3  O   UNK N   1      34.594  17.226   9.714  0.00  0.00    -0.271 OA
HETATM    4  H   UNK N   1      33.466  14.455   8.888  0.00  0.00     0.169 HD
ENDROOT
BRANCH   2   5
HETATM    5  C   UNK N   1      35.506  15.101  10.318  0.00  0.00     0.182 C 
BRANCH   5   6
HETATM    6  C   UNK N   1      36.449  14.327   9.368  0.00  0.00     0.009 C 
HETATM    7  C   UNK N   1      37.899  14.250   9.806  0.00  0.00     0.012 C 
HETATM    8  C   UNK N   1      35.944  12.908   9.143  0.00  0.00     0.012 C 
ENDBRANCH   5   6
BRANCH   5   9
HETATM    9  N   UNK N   1      34.879  14.262  11.336  0.00  0.00    -0.323 N 
HETATM   10  C   UNK N   1      35.294  14.064  12.618  0.00  0.00     0.362 C 
HETATM   11  O   UNK N   1      36.299  14.612  13.046  0.00  0.00    -0.238 OA
HETATM   12  H   UNK N   1      34.062  13.785  11.065  0.00  0.00     0.165 HD
BRANCH  10  13
HETATM   13  O   UNK N   1      34.627  13.193  13.415  0.00  0.00    -0.294 OA
BRANCH  13  14
HETATM   14  C   UNK N   1      35.087  11.929  13.751  0.00  0.00     0.061 C 
HETATM   15  C   UNK N   1      33.932  11.016  14.130  0.00  0.00     0.046 C 
HETATM   16  C   UNK N   1      36.004  12.055  14.949  0.00  0.00     0.046 C 
HETATM   17  C   UNK N   1      35.874  11.307  12.610  0.00  0.00     0.046 C 
ENDBRANCH  13  14
ENDBRANCH  10  13
ENDBRANCH   5   9
ENDBRANCH   2   5
BRANCH   1  18
HETATM   18  C   UNK N   1      32.562  16.135   8.095  0.00  0.00     0.049 A 
HETATM   19  C   UNK N   1      32.744  16.385   6.705  0.00  0.00     0.050 A 
HETATM   20  C   UNK N   1      31.702  17.006   5.981  0.00  0.00     0.049 A 
HETATM   21 Cl   UNK N   1      31.839  17.302   4.252  0.00  0.00    -0.083 Cl
HETATM   22  C   UNK N   1      30.515  17.368   6.620  0.00  0.00     0.025 A 
HETATM   23  C   UNK N   1      30.340  17.116   7.979  0.00  0.00     0.004 A 
HETATM   24  C   UNK N   1      31.353  16.493   8.706  0.00  0.00     0.030 A 
BRANCH  19  25
HETATM   25  C   UNK N   1      33.962  15.977   5.962  0.00  0.00     0.274 C 
HETATM   26  O   UNK N   1      35.074  16.390   6.241  0.00  0.00    -0.301 OA
ENDBRANCH  19  25
ENDBRANCH   1  18
TORSDOF 7
ENDMDL
MODEL 6
REMARK VINA RESULT:      -5.9     13.683     16.015
REMARK  7 active torsions:
REMARK  status: ('A' for Active; 'I' for Inactive)
REMARK    1  A    between atoms: C_1  and  C_3 
REMARK    2  A    between atoms: C_9  and  N_10 
REMARK       I    between atoms: N_10  and  C_11 
REMARK    3  A    between atoms: C_11  and  C_13 
REMARK    4  A    between atoms: C_13  and  C_14 
REMARK    5  A    between atoms: C_13  and  N_17 
REMARK       I    between atoms: N_17  and  C_18 
REMARK    6  A    between atoms: C_18  and  O_20 
REMARK    7  A    between atoms: O_20  and  C_21 
ROOT
HETATM    1  N   UNK N   1      21.351  17.517   5.089  0.00  0.00    -0.324 N 
HETATM    2  C   UNK N   1      21.189  17.533   6.440  0.00  0.00     0.245 C 
HETATM    3  O   UNK N   1      21.213  18.587   7.059  0.00  0.00    -0.271 OA
HETATM    4  H   UNK N   1      21.246  16.649   4.634  0.00  0.00     0.169 HD
ENDROOT
BRANCH   2   5
HETATM    5  C   UNK N   1      20.941  16.214   7.152  0.00  0.00     0.182 C 
BRANCH   5   6
HETATM    6  C   UNK N   1      20.252  16.359   8.530  0.00  0.00     0.009 C 
HETATM    7  C   UNK N   1      18.803  16.806   8.491  0.00  0.00     0.012 C 
HETATM    8  C   UNK N   1      20.326  15.054   9.310  0.00  0.00     0.012 C 
ENDBRANCH   5   6
BRANCH   5   9
HETATM    9  N   UNK N   1      22.115  15.346   7.171  0.00  0.00    -0.323 N 
HETATM   10  C   UNK N   1      22.490  14.438   6.228  0.00  0.00     0.362 C 
HETATM   11  O   UNK N   1      21.821  14.265   5.220  0.00  0.00    -0.238 OA
HETATM   12  H   UNK N   1      22.704  15.428   7.955  0.00  0.00     0.165 HD
BRANCH  10  13
HETATM   13  O   UNK N   1      23.581  13.662   6.437  0.00  0.00    -0.294 OA
BRANCH  13  14
HETATM   14  C   UNK N   1      23.604  12.548   7.262  0.00  0.00     0.061 C 
HETATM   15  C   UNK N   1      24.484  12.791   8.477  0.00  0.00     0.046 C 
HETATM   16  C   UNK N   1      24.183  11.385   6.484  0.00  0.00     0.046 C 
HETATM   17  C   UNK N   1      22.204  12.169   7.715  0.00  0.00     0.046 C 
ENDBRANCH  13  14
ENDBRANCH  10  13
ENDBRANCH   5   9
ENDBRANCH   2   5
BRANCH   1  18
HETATM   18  C   UNK N   1      21.660  18.642   4.277  0.00  0.00     0.049 A 
HETATM   19  C   UNK N   1      22.998  19.005   3.953  0.00  0.00     0.050 A 
HETATM   20  C   UNK N   1      23.217  20.084   3.068  0.00  0.00     0.049 A 
HETATM   21 Cl   UNK N   1      24.841  20.558   2.586  0.00  0.00    -0.083 Cl
HETATM   22  C   UNK N   1      22.138  20.781   2.521  0.00  0.00     0.025 A 
HETATM   23  C   UNK N   1      20.831  20.418   2.838  0.00  0.00     0.004 A 
HETATM   24  C   UNK N   1      20.596  19.347   3.700  0.00  0.00     0.030 A 
BRANCH  19  25
HETATM   25  C   UNK N   1      24.182  18.270   4.461  0.00  0.00     0.274 C 
HETATM   26  O   UNK N   1      24.220  17.054   4.543  0.00  0.00    -0.301 OA
ENDBRANCH  19  25
ENDBRANCH   1  18
TORSDOF 7
ENDMDL
MODEL 7
REMARK VINA RESULT:      -5.9     17.947     21.245
REMARK  7 active torsions:
REMARK  status: ('A' for Active; 'I' for Inactive)
REMARK    1  A    between atoms: C_1  and  C_3 
REMARK    2  A    between atoms: C_9  and  N_10 
REMARK       I    between atoms: N_10  and  C_11 
REMARK    3  A    between atoms: C_11  and  C_13 
REMARK    4  A    between atoms: C_13  and  C_14 
REMARK    5  A    between atoms: C_13  and  N_17 
REMARK       I    between atoms: N_17  and  C_18 
REMARK    6  A    between atoms: C_18  and  O_20 
REMARK    7  A    between atoms: O_20  and  C_21 
ROOT
HETATM    1  N   UNK N   1      35.854  13.930   9.744  0.00  0.00    -0.324 N 
HETATM    2  C   UNK N   1      37.155  13.914  10.139  0.00  0.00     0.245 C 
HETATM    3  O   UNK N   1      37.979  14.643   9.605  0.00  0.00    -0.271 OA
HETATM    4  H   UNK N   1      35.220  13.379  10.260  0.00  0.00     0.169 HD
ENDROOT
BRANCH   2   5
HETATM    5  C   UNK N   1      37.550  12.996  11.284  0.00  0.00     0.182 C 
BRANCH   5   6
HETATM    6  C   UNK N   1      37.372  11.491  10.978  0.00  0.00     0.009 C 
HETATM    7  C   UNK N   1      38.059  10.994   9.722  0.00  0.00     0.012 C 
HETATM    8  C   UNK N   1      37.850  10.642  12.149  0.00  0.00     0.012 C 
ENDBRANCH   5   6
BRANCH   5   9
HETATM    9  N   UNK N   1      36.984  13.407  12.566  0.00  0.00    -0.323 N 
HETATM   10  C   UNK N   1      35.708  13.226  13.005  0.00  0.00     0.362 C 
HETATM   11  O   UNK N   1      34.876  12.666  12.306  0.00  0.00    -0.238 OA
HETATM   12  H   UNK N   1      37.596  13.868  13.185  0.00  0.00     0.165 HD
BRANCH  10  13
HETATM   13  O   UNK N   1      35.330  13.734  14.204  0.00  0.00    -0.294 OA
BRANCH  13  14
HETATM   14  C   UNK N   1      35.871  13.351  15.422  0.00  0.00     0.061 C 
HETATM   15  C   UNK N   1      36.486  11.965  15.329  0.00  0.00     0.046 C 
HETATM   16  C   UNK N   1      34.759  13.307  16.449  0.00  0.00     0.046 C 
HETATM   17  C   UNK N   1      36.920  14.343  15.895  0.00  0.00     0.046 C 
ENDBRANCH  13  14
ENDBRANCH  10  13
ENDBRANCH   5   9
ENDBRANCH   2   5
BRANCH   1  18
HETATM   18  C   UNK N   1      35.327  14.671   8.650  0.00  0.00     0.049 A 
HETATM   19  C   UNK N   1      34.874  16.014   8.787  0.00  0.00     0.050 A 
HETATM   20  C   UNK N   1      34.447  16.710   7.635  0.00  0.00     0.049 A 
HETATM   21 Cl   UNK N   1      33.919  18.386   7.722  0.00  0.00    -0.083 Cl
HETATM   22  C   UNK N   1      34.471  16.091   6.384  0.00  0.00     0.025 A 
HETATM   23  C   UNK N   1      34.921  14.779   6.256  0.00  0.00     0.004 A 
HETATM   24  C   UNK N   1      35.358  14.080   7.380  0.00  0.00     0.030 A 
BRANCH  19  25
HETATM   25  C   UNK N   1      34.874  16.740  10.081  0.00  0.00     0.274 C 
HETATM   26  O   UNK N   1      35.887  17.198  10.581  0.00  0.00    -0.301 OA
ENDBRANCH  19  25
ENDBRANCH   1  18
TORSDOF 7
ENDMDL
MODEL 8
REMARK VINA RESULT:      -5.6     18.110     21.110
REMARK  7 active torsions:
REMARK  status: ('A' for Active; 'I' for Inactive)
REMARK    1  A    between atoms: C_1  and  C_3 
REMARK    2  A    between atoms: C_9  and  N_10 
REMARK       I    between atoms: N_10  and  C_11 
REMARK    3  A    between atoms: C_11  and  C_13 
REMARK    4  A    between atoms: C_13  and  C_14 
REMARK    5  A    between atoms: C_13  and  N_17 
REMARK       I    between atoms: N_17  and  C_18 
REMARK    6  A    between atoms: C_18  and  O_20 
REMARK    7  A    between atoms: O_20  and  C_21 
ROOT
HETATM    1  N   UNK N   1      35.936  12.338  12.009  0.00  0.00    -0.324 N 
HETATM    2  C   UNK N   1      35.460  13.183  11.055  0.00  0.00     0.245 C 
HETATM    3  O   UNK N   1      34.436  13.824  11.244  0.00  0.00    -0.271 OA
HETATM    4  H   UNK N   1      36.804  11.906  11.834  0.00  0.00     0.169 HD
ENDROOT
BRANCH   2   5
HETATM    5  C   UNK N   1      36.250  13.335   9.766  0.00  0.00     0.182 C 
BRANCH   5   6
HETATM    6  C   UNK N   1      37.768  13.079   9.921  0.00  0.00     0.009 C 
HETATM    7  C   UNK N   1      38.283  11.803   9.284  0.00  0.00     0.012 C 
HETATM    8  C   UNK N   1      38.572  14.246   9.366  0.00  0.00     0.012 C 
ENDBRANCH   5   6
BRANCH   5   9
HETATM    9  N   UNK N   1      35.932  14.564   9.043  0.00  0.00    -0.323 N 
HETATM   10  C   UNK N   1      35.180  14.691   7.915  0.00  0.00     0.362 C 
HETATM   11  O   UNK N   1      34.678  13.713   7.381  0.00  0.00    -0.238 OA
HETATM   12  H   UNK N   1      36.304  15.395   9.415  0.00  0.00     0.165 HD
BRANCH  10  13
HETATM   13  O   UNK N   1      35.039  15.907   7.334  0.00  0.00    -0.294 OA
BRANCH  13  14
HETATM   14  C   UNK N   1      34.041  16.816   7.650  0.00  0.00     0.061 C 
HETATM   15  C   UNK N   1      32.921  16.142   8.425  0.00  0.00     0.046 C 
HETATM   16  C   UNK N   1      33.463  17.362   6.361  0.00  0.00     0.046 C 
HETATM   17  C   UNK N   1      34.591  17.979   8.458  0.00  0.00     0.046 C 
ENDBRANCH  13  14
ENDBRANCH  10  13
ENDBRANCH   5   9
ENDBRANCH   2   5
BRANCH   1  18
HETATM   18  C   UNK N   1      35.291  12.024  13.236  0.00  0.00     0.049 A 
HETATM   19  C   UNK N   1      35.521  12.765  14.430  0.00  0.00     0.050 A 
HETATM   20  C   UNK N   1      34.775  12.446  15.586  0.00  0.00     0.049 A 
HETATM   21 Cl   UNK N   1      34.973  13.350  17.083  0.00  0.00    -0.083 Cl
HETATM   22  C   UNK N   1      33.828  11.421  15.556  0.00  0.00     0.025 A 
HETATM   23  C   UNK N   1      33.603  10.703  14.384  0.00  0.00     0.004 A 
HETATM   24  C   UNK N   1      34.321  11.013  13.230  0.00  0.00     0.030 A 
BRANCH  19  25
HETATM   25  C   UNK N   1      36.477  13.898  14.509  0.00  0.00     0.274 C 
HETATM   26  O   UNK N   1      36.379  14.894  13.812  0.00  0.00    -0.301 OA
ENDBRANCH  19  25
ENDBRANCH   1  18
TORSDOF 7
ENDMDL
MODEL 9
REMARK VINA RESULT:      -5.6     11.364     14.300
REMARK  7 active torsions:
REMARK  status: ('A' for Active; 'I' for Inactive)
REMARK    1  A    between atoms: C_1  and  C_3 
REMARK    2  A    between atoms: C_9  and  N_10 
REMARK       I    between atoms: N_10  and  C_11 
REMARK    3  A    between atoms: C_11  and  C_13 
REMARK    4  A    between atoms: C_13  and  C_14 
REMARK    5  A    between atoms: C_13  and  N_17 
REMARK       I    between atoms: N_17  and  C_18 
REMARK    6  A    between atoms: C_18  and  O_20 
REMARK    7  A    between atoms: O_20  and  C_21 
ROOT
HETATM    1  N   UNK N   1      29.465  18.095   4.409  0.00  0.00    -0.324 N 
HETATM    2  C   UNK N   1      30.046  17.585   5.529  0.00  0.00     0.245 C 
HETATM    3  O   UNK N   1      29.403  17.452   6.561  0.00  0.00    -0.271 OA
HETATM    4  H   UNK N   1      30.007  18.107   3.587  0.00  0.00     0.169 HD
ENDROOT
BRANCH   2   5
HETATM    5  C   UNK N   1      31.500  17.152   5.453  0.00  0.00     0.182 C 
BRANCH   5   6
HETATM    6  C   UNK N   1      31.739  15.882   4.603  0.00  0.00     0.009 C 
HETATM    7  C   UNK N   1      32.920  15.943   3.654  0.00  0.00     0.012 C 
HETATM    8  C   UNK N   1      31.908  14.659   5.495  0.00  0.00     0.012 C 
ENDBRANCH   5   6
BRANCH   5   9
HETATM    9  N   UNK N   1      32.154  17.117   6.759  0.00  0.00    -0.323 N 
HETATM   10  C   UNK N   1      33.417  17.524   7.065  0.00  0.00     0.362 C 
HETATM   11  O   UNK N   1      34.155  17.983   6.206  0.00  0.00    -0.238 OA
HETATM   12  H   UNK N   1      31.619  16.758   7.503  0.00  0.00     0.165 HD
BRANCH  10  13
HETATM   13  O   UNK N   1      33.891  17.357   8.324  0.00  0.00    -0.294 OA
BRANCH  13  14
HETATM   14  C   UNK N   1      34.274  16.138   8.861  0.00  0.00     0.061 C 
HETATM   15  C   UNK N   1      35.257  16.335  10.003  0.00  0.00     0.046 C 
HETATM   16  C   UNK N   1      34.961  15.331   7.780  0.00  0.00     0.046 C 
HETATM   17  C   UNK N   1      33.072  15.351   9.354  0.00  0.00     0.046 C 
ENDBRANCH  13  14
ENDBRANCH  10  13
ENDBRANCH   5   9
ENDBRANCH   2   5
BRANCH   1  18
HETATM   18  C   UNK N   1      28.143  18.611   4.322  0.00  0.00     0.049 A 
HETATM   19  C   UNK N   1      27.022  17.790   4.012  0.00  0.00     0.050 A 
HETATM   20  C   UNK N   1      25.731  18.362   4.031  0.00  0.00     0.049 A 
HETATM   21 Cl   UNK N   1      24.297  17.396   3.704  0.00  0.00    -0.083 Cl
HETATM   22  C   UNK N   1      25.559  19.710   4.351  0.00  0.00     0.025 A 
HETATM   23  C   UNK N   1      26.658  20.507   4.659  0.00  0.00     0.004 A 
HETATM   24  C   UNK N   1      27.939  19.956   4.657  0.00  0.00     0.030 A 
BRANCH  19  25
HETATM   25  C   UNK N   1      27.138  16.341   3.715  0.00  0.00     0.274 C 
HETATM   26  O   UNK N   1      28.011  15.881   2.999  0.00  0.00    -0.301 OA
ENDBRANCH  19  25
ENDBRANCH   1  18
TORSDOF 7
ENDMDL
