MODEL 1
REMARK VINA RESULT:      -5.7      0.000      0.000
REMARK  8 active torsions:
REMARK  status: ('A' for Active; 'I' for Inactive)
REMARK    1  A    between atoms: C_1  and  O_3 
REMARK    2  A    between atoms: C_1  and  C_4 
REMARK    3  A    between atoms: C_6  and  N_7 
REMARK    4  A    between atoms: C_10  and  C_11 
REMARK    5  A    between atoms: C_11  and  O_12 
REMARK    6  A    between atoms: C_11  and  C_16 
REMARK    7  A    between atoms: O_12  and  C_13 
REMARK    8  A    between atoms: C_16  and  O_18 
ROOT
HETATM    1  C   UNK N   1      30.835  16.487   6.850  0.00  0.00     0.049 A 
HETATM    2  C   UNK N   1      29.507  16.954   6.923  0.00  0.00     0.048 A 
HETATM    3  C   UNK N   1      29.112  17.905   7.855  0.00  0.00     0.026 A 
HETATM    4  C   UNK N   1      30.040  18.441   8.731  0.00  0.00     0.029 A 
HETATM    5  C   UNK N   1      31.362  18.011   8.684  0.00  0.00     0.013 A 
HETATM    6  C   UNK N   1      31.806  17.030   7.769  0.00  0.00    -0.002 A 
ENDROOT
BRANCH   6   7
HETATM    7  C   UNK N   1      33.277  16.596   7.924  0.00  0.00     0.265 C 
BRANCH   7   8
HETATM    8  O   UNK N   1      33.785  17.167   9.089  0.00  0.00    -0.301 OA
BRANCH   8   9
HETATM    9  C   UNK N   1      34.845  16.717   9.811  0.00  0.00     0.255 C 
HETATM   10  O   UNK N   1      35.638  17.494  10.320  0.00  0.00    -0.266 OA
HETATM   11  C   UNK N   1      35.031  15.251   9.994  0.00  0.00     0.126 C 
ENDBRANCH   8   9
ENDBRANCH   7   8
BRANCH   7  12
HETATM   12  C   UNK N   1      34.202  16.965   6.773  0.00  0.00     0.292 C 
HETATM   13  O   UNK N   1      34.183  18.103   6.331  0.00  0.00    -0.262 OA
BRANCH  12  14
HETATM   14  O   UNK N   1      35.089  16.071   6.249  0.00  0.00    -0.324 OA
HETATM   15  C   UNK N   1      34.838  14.722   6.106  0.00  0.00     0.213 C 
ENDBRANCH  12  14
ENDBRANCH   7  12
ENDBRANCH   6   7
BRANCH   1  16
HETATM   16  C   UNK N   1      31.076  15.463   5.794  0.00  0.00     0.176 C 
HETATM   17  O   UNK N   1      31.337  15.772   4.646  0.00  0.00    -0.646 OA
BRANCH  16  18
HETATM   18  O   UNK N   1      30.995  14.155   6.104  0.00  0.00    -0.773 OA
HETATM   19  H   UNK N   1      31.210  13.863   6.968  0.00  0.00     0.167 HD
ENDBRANCH  16  18
ENDBRANCH   1  16
BRANCH   3  20
HETATM   20  N   UNK N   1      27.766  18.319   7.913  0.00  0.00    -0.399 N 
HETATM   21  H   UNK N   1      27.283  18.316   8.772  0.00  0.00     0.156 HD
HETATM   22  H   UNK N   1      27.308  18.613   7.094  0.00  0.00     0.156 HD
ENDBRANCH   3  20
TORSDOF 8
ENDMDL
MODEL 2
REMARK VINA RESULT:      -5.5      9.818     11.858
REMARK  8 active torsions:
REMARK  status: ('A' for Active; 'I' for Inactive)
REMARK    1  A    between atoms: C_1  and  O_3 
REMARK    2  A    between atoms: C_1  and  C_4 
REMARK    3  A    between atoms: C_6  and  N_7 
REMARK    4  A    between atoms: C_10  and  C_11 
REMARK    5  A    between atoms: C_11  and  O_12 
REMARK    6  A    between atoms: C_11  and  C_16 
REMARK    7  A    between atoms: O_12  and  C_13 
REMARK    8  A    between atoms: C_16  and  O_18 
ROOT
HETATM    1  C   UNK N   1      22.822  20.029   3.098  0.00  0.00     0.049 A 
HETATM    2  C   UNK N   1      24.121  20.491   2.807  0.00  0.00     0.048 A 
HETATM    3  C   UNK N   1      25.243  19.987   3.453  0.00  0.00     0.026 A 
HETATM    4  C   UNK N   1      25.104  18.983   4.396  0.00  0.00     0.029 A 
HETATM    5  C   UNK N   1      23.839  18.495   4.703  0.00  0.00     0.013 A 
HETATM    6  C   UNK N   1      22.668  18.992   4.090  0.00  0.00    -0.002 A 
ENDROOT
BRANCH   6   7
HETATM    7  C   UNK N   1      21.341  18.413   4.624  0.00  0.00     0.265 C 
BRANCH   7   8
HETATM    8  O   UNK N   1      21.612  17.694   5.786  0.00  0.00    -0.301 OA
BRANCH   8   9
HETATM    9  C   UNK N   1      20.928  17.771   6.959  0.00  0.00     0.255 C 
HETATM   10  O   UNK N   1      20.759  18.841   7.522  0.00  0.00    -0.266 OA
HETATM   11  C   UNK N   1      20.366  16.528   7.557  0.00  0.00     0.126 C 
ENDBRANCH   8   9
ENDBRANCH   7   8
BRANCH   7  12
HETATM   12  C   UNK N   1      20.583  17.503   3.669  0.00  0.00     0.292 C 
HETATM   13  O   UNK N   1      19.600  17.931   3.086  0.00  0.00    -0.262 OA
BRANCH  12  14
HETATM   14  O   UNK N   1      20.999  16.230   3.410  0.00  0.00    -0.324 OA
HETATM   15  C   UNK N   1      20.290  15.097   3.751  0.00  0.00     0.213 C 
ENDBRANCH  12  14
ENDBRANCH   7  12
ENDBRANCH   6   7
BRANCH   1  16
HETATM   16  C   UNK N   1      21.739  20.687   2.313  0.00  0.00     0.176 C 
HETATM   17  O   UNK N   1      21.635  20.539   1.110  0.00  0.00    -0.646 OA
BRANCH  16  18
HETATM   18  O   UNK N   1      20.849  21.479   2.942  0.00  0.00    -0.773 OA
HETATM   19  H   UNK N   1      20.275  22.028   2.444  0.00  0.00     0.167 HD
ENDBRANCH  16  18
ENDBRANCH   1  16
BRANCH   3  20
HETATM   20  N   UNK N   1      26.520  20.501   3.153  0.00  0.00    -0.399 N 
HETATM   21  H   UNK N   1      27.308  19.911   3.167  0.00  0.00     0.156 HD
HETATM   22  H   UNK N   1      26.625  21.454   2.931  0.00  0.00     0.156 HD
ENDBRANCH   3  20
TORSDOF 8
ENDMDL
MODEL 3
REMARK VINA RESULT:      -5.5      9.247     11.679
REMARK  8 active torsions:
REMARK  status: ('A' for Active; 'I' for Inactive)
REMARK    1  A    between atoms: C_1  and  O_3 
REMARK    2  A    between atoms: C_1  and  C_4 
REMARK    3  A    between atoms: C_6  and  N_7 
REMARK    4  A    between atoms: C_10  and  C_11 
REMARK    5  A    between atoms: C_11  and  O_12 
REMARK    6  A    between atoms: C_11  and  C_16 
REMARK    7  A    between atoms: O_12  and  C_13 
REMARK    8  A    between atoms: C_16  and  O_18 
ROOT
HETATM    1  C   UNK N   1      21.068  18.684   2.839  0.00  0.00     0.049 A 
HETATM    2  C   UNK N   1      20.160  18.410   1.796  0.00  0.00     0.048 A 
HETATM    3  C   UNK N   1      19.950  17.121   1.323  0.00  0.00     0.026 A 
HETATM    4  C   UNK N   1      20.625  16.057   1.896  0.00  0.00     0.029 A 
HETATM    5  C   UNK N   1      21.523  16.287   2.933  0.00  0.00     0.013 A 
HETATM    6  C   UNK N   1      21.786  17.582   3.432  0.00  0.00    -0.002 A 
ENDROOT
BRANCH   6   7
HETATM    7  C   UNK N   1      22.886  17.667   4.510  0.00  0.00     0.265 C 
BRANCH   7   8
HETATM    8  O   UNK N   1      22.402  18.428   5.572  0.00  0.00    -0.301 OA
BRANCH   8   9
HETATM    9  C   UNK N   1      21.518  18.018   6.521  0.00  0.00     0.255 C 
HETATM   10  O   UNK N   1      20.849  18.822   7.150  0.00  0.00    -0.266 OA
HETATM   11  C   UNK N   1      21.359  16.561   6.785  0.00  0.00     0.126 C 
ENDBRANCH   8   9
ENDBRANCH   7   8
BRANCH   7  12
HETATM   12  C   UNK N   1      24.209  18.269   4.061  0.00  0.00     0.292 C 
HETATM   13  O   UNK N   1      24.440  19.445   4.287  0.00  0.00    -0.262 OA
BRANCH  12  14
HETATM   14  O   UNK N   1      25.169  17.516   3.451  0.00  0.00    -0.324 OA
HETATM   15  C   UNK N   1      25.491  16.225   3.815  0.00  0.00     0.213 C 
ENDBRANCH  12  14
ENDBRANCH   7  12
ENDBRANCH   6   7
BRANCH   1  16
HETATM   16  C   UNK N   1      21.169  20.124   3.212  0.00  0.00     0.176 C 
HETATM   17  O   UNK N   1      20.325  20.671   3.896  0.00  0.00    -0.646 OA
BRANCH  16  18
HETATM   18  O   UNK N   1      22.215  20.852   2.777  0.00  0.00    -0.773 OA
HETATM   19  H   UNK N   1      22.088  21.516   2.128  0.00  0.00     0.167 HD
ENDBRANCH  16  18
ENDBRANCH   1  16
BRANCH   3  20
HETATM   20  N   UNK N   1      19.057  16.898   0.256  0.00  0.00    -0.399 N 
HETATM   21  H   UNK N   1      19.340  17.069  -0.672  0.00  0.00     0.156 HD
HETATM   22  H   UNK N   1      18.148  16.570   0.439  0.00  0.00     0.156 HD
ENDBRANCH   3  20
TORSDOF 8
ENDMDL
MODEL 4
REMARK VINA RESULT:      -5.5     13.063     14.891
REMARK  8 active torsions:
REMARK  status: ('A' for Active; 'I' for Inactive)
REMARK    1  A    between atoms: C_1  and  O_3 
REMARK    2  A    between atoms: C_1  and  C_4 
REMARK    3  A    between atoms: C_6  and  N_7 
REMARK    4  A    between atoms: C_10  and  C_11 
REMARK    5  A    between atoms: C_11  and  O_12 
REMARK    6  A    between atoms: C_11  and  C_16 
REMARK    7  A    between atoms: O_12  and  C_13 
REMARK    8  A    between atoms: C_16  and  O_18 
ROOT
HETATM    1  C   UNK N   1      29.656  22.579  -3.552  0.00  0.00     0.049 A 
HETATM    2  C   UNK N   1      30.459  21.444  -3.783  0.00  0.00     0.048 A 
HETATM    3  C   UNK N   1      30.701  20.962  -5.063  0.00  0.00     0.026 A 
HETATM    4  C   UNK N   1      30.167  21.617  -6.160  0.00  0.00     0.029 A 
HETATM    5  C   UNK N   1      29.377  22.746  -5.972  0.00  0.00     0.013 A 
HETATM    6  C   UNK N   1      29.085  23.259  -4.689  0.00  0.00    -0.002 A 
ENDROOT
BRANCH   6   7
HETATM    7  C   UNK N   1      28.108  24.453  -4.657  0.00  0.00     0.265 C 
BRANCH   7   8
HETATM    8  O   UNK N   1      28.572  25.376  -3.722  0.00  0.00    -0.301 OA
BRANCH   8   9
HETATM    9  C   UNK N   1      29.458  26.380  -3.951  0.00  0.00     0.255 C 
HETATM   10  O   UNK N   1      29.116  27.409  -4.512  0.00  0.00    -0.266 OA
HETATM   11  C   UNK N   1      30.868  26.224  -3.498  0.00  0.00     0.126 C 
ENDBRANCH   8   9
ENDBRANCH   7   8
BRANCH   7  12
HETATM   12  C   UNK N   1      26.664  24.119  -4.318  0.00  0.00     0.292 C 
HETATM   13  O   UNK N   1      26.313  24.094  -3.149  0.00  0.00    -0.262 OA
BRANCH  12  14
HETATM   14  O   UNK N   1      25.733  23.890  -5.288  0.00  0.00    -0.324 OA
HETATM   15  C   UNK N   1      25.900  24.219  -6.618  0.00  0.00     0.213 C 
ENDBRANCH  12  14
ENDBRANCH   7  12
ENDBRANCH   6   7
BRANCH   1  16
HETATM   16  C   UNK N   1      29.501  22.948  -2.116  0.00  0.00     0.176 C 
HETATM   17  O   UNK N   1      30.461  23.167  -1.400  0.00  0.00    -0.646 OA
BRANCH  16  18
HETATM   18  O   UNK N   1      28.268  23.034  -1.580  0.00  0.00    -0.773 OA
HETATM   19  H   UNK N   1      28.151  22.944  -0.655  0.00  0.00     0.167 HD
ENDBRANCH  16  18
ENDBRANCH   1  16
BRANCH   3  20
HETATM   20  N   UNK N   1      31.484  19.805  -5.245  0.00  0.00    -0.399 N 
HETATM   21  H   UNK N   1      31.327  19.008  -4.688  0.00  0.00     0.156 HD
HETATM   22  H   UNK N   1      32.189  19.793  -5.931  0.00  0.00     0.156 HD
ENDBRANCH   3  20
TORSDOF 8
ENDMDL
MODEL 5
REMARK VINA RESULT:      -5.4     14.744     16.667
REMARK  8 active torsions:
REMARK  status: ('A' for Active; 'I' for Inactive)
REMARK    1  A    between atoms: C_1  and  O_3 
REMARK    2  A    between atoms: C_1  and  C_4 
REMARK    3  A    between atoms: C_6  and  N_7 
REMARK    4  A    between atoms: C_10  and  C_11 
REMARK    5  A    between atoms: C_11  and  O_12 
REMARK    6  A    between atoms: C_11  and  C_16 
REMARK    7  A    between atoms: O_12  and  C_13 
REMARK    8  A    between atoms: C_16  and  O_18 
ROOT
HETATM    1  C   UNK N   1      26.729  25.116  -4.204  0.00  0.00     0.049 A 
HETATM    2  C   UNK N   1      26.447  26.394  -3.684  0.00  0.00     0.048 A 
HETATM    3  C   UNK N   1      25.715  27.334  -4.399  0.00  0.00     0.026 A 
HETATM    4  C   UNK N   1      25.219  27.015  -5.652  0.00  0.00     0.029 A 
HETATM    5  C   UNK N   1      25.470  25.759  -6.194  0.00  0.00     0.013 A 
HETATM    6  C   UNK N   1      26.228  24.780  -5.514  0.00  0.00    -0.002 A 
ENDROOT
BRANCH   6   7
HETATM    7  C   UNK N   1      26.498  23.483  -6.304  0.00  0.00     0.265 C 
BRANCH   7   8
HETATM    8  O   UNK N   1      27.860  23.419  -6.592  0.00  0.00    -0.301 OA
BRANCH   8   9
HETATM    9  C   UNK N   1      28.645  22.310  -6.532  0.00  0.00     0.255 C 
HETATM   10  O   UNK N   1      29.397  22.119  -5.590  0.00  0.00    -0.266 OA
HETATM   11  C   UNK N   1      28.573  21.308  -7.631  0.00  0.00     0.126 C 
ENDBRANCH   8   9
ENDBRANCH   7   8
BRANCH   7  12
HETATM   12  C   UNK N   1      25.731  23.329  -7.609  0.00  0.00     0.292 C 
HETATM   13  O   UNK N   1      26.148  23.876  -8.617  0.00  0.00    -0.262 OA
BRANCH  12  14
HETATM   14  O   UNK N   1      24.610  22.557  -7.696  0.00  0.00    -0.324 OA
HETATM   15  C   UNK N   1      24.483  21.306  -7.127  0.00  0.00     0.213 C 
ENDBRANCH  12  14
ENDBRANCH   7  12
ENDBRANCH   6   7
BRANCH   1  16
HETATM   16  C   UNK N   1      27.532  24.242  -3.301  0.00  0.00     0.176 C 
HETATM   17  O   UNK N   1      27.050  23.728  -2.308  0.00  0.00    -0.646 OA
BRANCH  16  18
HETATM   18  O   UNK N   1      28.831  24.016  -3.575  0.00  0.00    -0.773 OA
HETATM   19  H   UNK N   1      29.442  24.726  -3.573  0.00  0.00     0.167 HD
ENDBRANCH  16  18
ENDBRANCH   1  16
BRANCH   3  20
HETATM   20  N   UNK N   1      25.484  28.613  -3.854  0.00  0.00    -0.399 N 
HETATM   21  H   UNK N   1      26.228  29.129  -3.467  0.00  0.00     0.156 HD
HETATM   22  H   UNK N   1      24.575  28.991  -3.860  0.00  0.00     0.156 HD
ENDBRANCH   3  20
TORSDOF 8
ENDMDL
MODEL 6
REMARK VINA RESULT:      -5.3      9.494     12.077
REMARK  8 active torsions:
REMARK  status: ('A' for Active; 'I' for Inactive)
REMARK    1  A    between atoms: C_1  and  O_3 
REMARK    2  A    between atoms: C_1  and  C_4 
REMARK    3  A    between atoms: C_6  and  N_7 
REMARK    4  A    between atoms: C_10  and  C_11 
REMARK    5  A    between atoms: C_11  and  O_12 
REMARK    6  A    between atoms: C_11  and  C_16 
REMARK    7  A    between atoms: O_12  and  C_13 
REMARK    8  A    between atoms: C_16  and  O_18 
ROOT
HETATM    1  C   UNK N   1      20.785  19.029   3.049  0.00  0.00     0.049 A 
HETATM    2  C   UNK N   1      20.127  18.622   1.871  0.00  0.00     0.048 A 
HETATM    3  C   UNK N   1      19.881  17.285   1.590  0.00  0.00     0.026 A 
HETATM    4  C   UNK N   1      20.263  16.307   2.493  0.00  0.00     0.029 A 
HETATM    5  C   UNK N   1      20.906  16.671   3.671  0.00  0.00     0.013 A 
HETATM    6  C   UNK N   1      21.199  18.015   3.989  0.00  0.00    -0.002 A 
ENDROOT
BRANCH   6   7
HETATM    7  C   UNK N   1      22.010  18.231   5.284  0.00  0.00     0.265 C 
BRANCH   7   8
HETATM    8  O   UNK N   1      23.159  17.445   5.219  0.00  0.00    -0.301 OA
BRANCH   8   9
HETATM    9  C   UNK N   1      24.333  17.784   4.623  0.00  0.00     0.255 C 
HETATM   10  O   UNK N   1      24.778  18.918   4.702  0.00  0.00    -0.266 OA
HETATM   11  C   UNK N   1      25.094  16.746   3.872  0.00  0.00     0.126 C 
ENDBRANCH   8   9
ENDBRANCH   7   8
BRANCH   7  12
HETATM   12  C   UNK N   1      21.286  17.903   6.581  0.00  0.00     0.292 C 
HETATM   13  O   UNK N   1      20.832  18.811   7.259  0.00  0.00    -0.262 OA
BRANCH  12  14
HETATM   14  O   UNK N   1      21.088  16.617   6.988  0.00  0.00    -0.324 OA
HETATM   15  C   UNK N   1      20.703  16.256   8.263  0.00  0.00     0.213 C 
ENDBRANCH  12  14
ENDBRANCH   7  12
ENDBRANCH   6   7
BRANCH   1  16
HETATM   16  C   UNK N   1      20.970  20.502   3.180  0.00  0.00     0.176 C 
HETATM   17  O   UNK N   1      21.952  21.069   2.739  0.00  0.00    -0.646 OA
BRANCH  16  18
HETATM   18  O   UNK N   1      20.034  21.237   3.812  0.00  0.00    -0.773 OA
HETATM   19  H   UNK N   1      19.984  21.230   4.747  0.00  0.00     0.167 HD
ENDBRANCH  16  18
ENDBRANCH   1  16
BRANCH   3  20
HETATM   20  N   UNK N   1      19.249  16.921   0.384  0.00  0.00    -0.399 N 
HETATM   21  H   UNK N   1      19.193  17.564  -0.360  0.00  0.00     0.156 HD
HETATM   22  H   UNK N   1      18.861  16.022   0.285  0.00  0.00     0.156 HD
ENDBRANCH   3  20
TORSDOF 8
ENDMDL
MODEL 7
REMARK VINA RESULT:      -5.3     13.705     15.124
REMARK  8 active torsions:
REMARK  status: ('A' for Active; 'I' for Inactive)
REMARK    1  A    between atoms: C_1  and  O_3 
REMARK    2  A    between atoms: C_1  and  C_4 
REMARK    3  A    between atoms: C_6  and  N_7 
REMARK    4  A    between atoms: C_10  and  C_11 
REMARK    5  A    between atoms: C_11  and  O_12 
REMARK    6  A    between atoms: C_11  and  C_16 
REMARK    7  A    between atoms: O_12  and  C_13 
REMARK    8  A    between atoms: C_16  and  O_18 
ROOT
HETATM    1  C   UNK N   1      26.924  23.997  -4.987  0.00  0.00     0.049 A 
HETATM    2  C   UNK N   1      25.829  23.592  -5.776  0.00  0.00     0.048 A 
HETATM    3  C   UNK N   1      25.988  22.792  -6.900  0.00  0.00     0.026 A 
HETATM    4  C   UNK N   1      27.249  22.348  -7.259  0.00  0.00     0.029 A 
HETATM    5  C   UNK N   1      28.353  22.720  -6.500  0.00  0.00     0.013 A 
HETATM    6  C   UNK N   1      28.244  23.550  -5.363  0.00  0.00    -0.002 A 
ENDROOT
BRANCH   6   7
HETATM    7  C   UNK N   1      29.578  23.950  -4.701  0.00  0.00     0.265 C 
BRANCH   7   8
HETATM    8  O   UNK N   1      29.487  23.690  -3.335  0.00  0.00    -0.301 OA
BRANCH   8   9
HETATM    9  C   UNK N   1      30.227  22.790  -2.634  0.00  0.00     0.255 C 
HETATM   10  O   UNK N   1      30.502  22.977  -1.459  0.00  0.00    -0.266 OA
HETATM   11  C   UNK N   1      30.698  21.551  -3.313  0.00  0.00     0.126 C 
ENDBRANCH   8   9
ENDBRANCH   7   8
BRANCH   7  12
HETATM   12  C   UNK N   1      29.999  25.401  -4.880  0.00  0.00     0.292 C 
HETATM   13  O   UNK N   1      30.387  25.782  -5.972  0.00  0.00    -0.262 OA
BRANCH  12  14
HETATM   14  O   UNK N   1      29.912  26.304  -3.862  0.00  0.00    -0.324 OA
HETATM   15  C   UNK N   1      30.995  26.956  -3.307  0.00  0.00     0.213 C 
ENDBRANCH  12  14
ENDBRANCH   7  12
ENDBRANCH   6   7
BRANCH   1  16
HETATM   16  C   UNK N   1      26.567  24.859  -3.824  0.00  0.00     0.176 C 
HETATM   17  O   UNK N   1      26.161  25.997  -3.968  0.00  0.00    -0.646 OA
BRANCH  16  18
HETATM   18  O   UNK N   1      26.701  24.378  -2.573  0.00  0.00    -0.773 OA
HETATM   19  H   UNK N   1      25.944  24.250  -2.036  0.00  0.00     0.167 HD
ENDBRANCH  16  18
ENDBRANCH   1  16
BRANCH   3  20
HETATM   20  N   UNK N   1      24.868  22.437  -7.678  0.00  0.00    -0.399 N 
HETATM   21  H   UNK N   1      24.989  21.982  -8.543  0.00  0.00     0.156 HD
HETATM   22  H   UNK N   1      23.962  22.645  -7.356  0.00  0.00     0.156 HD
ENDBRANCH   3  20
TORSDOF 8
ENDMDL
MODEL 8
REMARK VINA RESULT:      -5.3      1.312      2.366
REMARK  8 active torsions:
REMARK  status: ('A' for Active; 'I' for Inactive)
REMARK    1  A    between atoms: C_1  and  O_3 
REMARK    2  A    between atoms: C_1  and  C_4 
REMARK    3  A    between atoms: C_6  and  N_7 
REMARK    4  A    between atoms: C_10  and  C_11 
REMARK    5  A    between atoms: C_11  and  O_12 
REMARK    6  A    between atoms: C_11  and  C_16 
REMARK    7  A    between atoms: O_12  and  C_13 
REMARK    8  A    between atoms: C_16  and  O_18 
ROOT
HETATM    1  C   UNK N   1      30.274  17.154   6.789  0.00  0.00     0.049 A 
HETATM    2  C   UNK N   1      29.046  17.795   7.046  0.00  0.00     0.048 A 
HETATM    3  C   UNK N   1      28.839  18.557   8.189  0.00  0.00     0.026 A 
HETATM    4  C   UNK N   1      29.866  18.725   9.102  0.00  0.00     0.029 A 
HETATM    5  C   UNK N   1      31.095  18.115   8.878  0.00  0.00     0.013 A 
HETATM    6  C   UNK N   1      31.345  17.313   7.743  0.00  0.00    -0.002 A 
ENDROOT
BRANCH   6   7
HETATM    7  C   UNK N   1      32.726  16.628   7.704  0.00  0.00     0.265 C 
BRANCH   7   8
HETATM    8  O   UNK N   1      32.681  15.499   8.521  0.00  0.00    -0.301 OA
BRANCH   8   9
HETATM    9  C   UNK N   1      32.791  14.207   8.115  0.00  0.00     0.255 C 
HETATM   10  O   UNK N   1      32.079  13.760   7.229  0.00  0.00    -0.266 OA
HETATM   11  C   UNK N   1      33.806  13.326   8.757  0.00  0.00     0.126 C 
ENDBRANCH   8   9
ENDBRANCH   7   8
BRANCH   7  12
HETATM   12  C   UNK N   1      33.903  17.485   8.146  0.00  0.00     0.292 C 
HETATM   13  O   UNK N   1      34.498  18.158   7.320  0.00  0.00    -0.262 OA
BRANCH  12  14
HETATM   14  O   UNK N   1      34.286  17.559   9.453  0.00  0.00    -0.324 OA
HETATM   15  C   UNK N   1      35.252  16.756  10.026  0.00  0.00     0.213 C 
ENDBRANCH  12  14
ENDBRANCH   7  12
ENDBRANCH   6   7
BRANCH   1  16
HETATM   16  C   UNK N   1      30.313  16.374   5.519  0.00  0.00     0.176 C 
HETATM   17  O   UNK N   1      30.491  16.909   4.441  0.00  0.00    -0.646 OA
BRANCH  16  18
HETATM   18  O   UNK N   1      30.137  15.039   5.552  0.00  0.00    -0.773 OA
HETATM   19  H   UNK N   1      29.408  14.673   6.013  0.00  0.00     0.167 HD
ENDBRANCH  16  18
ENDBRANCH   1  16
BRANCH   3  20
HETATM   20  N   UNK N   1      27.584  19.154   8.422  0.00  0.00    -0.399 N 
HETATM   21  H   UNK N   1      26.755  18.666   8.207  0.00  0.00     0.156 HD
HETATM   22  H   UNK N   1      27.535  20.061   8.800  0.00  0.00     0.156 HD
ENDBRANCH   3  20
TORSDOF 8
ENDMDL
MODEL 9
REMARK VINA RESULT:      -5.2      1.805      3.730
REMARK  8 active torsions:
REMARK  status: ('A' for Active; 'I' for Inactive)
REMARK    1  A    between atoms: C_1  and  O_3 
REMARK    2  A    between atoms: C_1  and  C_4 
REMARK    3  A    between atoms: C_6  and  N_7 
REMARK    4  A    between atoms: C_10  and  C_11 
REMARK    5  A    between atoms: C_11  and  O_12 
REMARK    6  A    between atoms: C_11  and  C_16 
REMARK    7  A    between atoms: O_12  and  C_13 
REMARK    8  A    between atoms: C_16  and  O_18 
ROOT
HETATM    1  C   UNK N   1      30.739  16.944   7.866  0.00  0.00     0.049 A 
HETATM    2  C   UNK N   1      29.729  17.557   8.635  0.00  0.00     0.048 A 
HETATM    3  C   UNK N   1      28.615  18.147   8.051  0.00  0.00     0.026 A 
HETATM    4  C   UNK N   1      28.462  18.121   6.675  0.00  0.00     0.029 A 
HETATM    5  C   UNK N   1      29.434  17.518   5.884  0.00  0.00     0.013 A 
HETATM    6  C   UNK N   1      30.593  16.926   6.431  0.00  0.00    -0.002 A 
ENDROOT
BRANCH   6   7
HETATM    7  C   UNK N   1      31.616  16.397   5.405  0.00  0.00     0.265 C 
BRANCH   7   8
HETATM    8  O   UNK N   1      32.691  17.283   5.358  0.00  0.00    -0.301 OA
BRANCH   8   9
HETATM    9  C   UNK N   1      33.914  17.096   5.922  0.00  0.00     0.255 C 
HETATM   10  O   UNK N   1      34.441  17.972   6.589  0.00  0.00    -0.266 OA
HETATM   11  C   UNK N   1      34.613  15.795   5.730  0.00  0.00     0.126 C 
ENDBRANCH   8   9
ENDBRANCH   7   8
BRANCH   7  12
HETATM   12  C   UNK N   1      31.096  16.208   3.988  0.00  0.00     0.292 C 
HETATM   13  O   UNK N   1      31.501  16.939   3.098  0.00  0.00    -0.262 OA
BRANCH  12  14
HETATM   14  O   UNK N   1      30.222  15.210   3.671  0.00  0.00    -0.324 OA
HETATM   15  C   UNK N   1      29.143  15.364   2.824  0.00  0.00     0.213 C 
ENDBRANCH  12  14
ENDBRANCH   7  12
ENDBRANCH   6   7
BRANCH   1  16
HETATM   16  C   UNK N   1      31.861  16.370   8.661  0.00  0.00     0.176 C 
HETATM   17  O   UNK N   1      31.953  15.175   8.874  0.00  0.00    -0.646 OA
BRANCH  16  18
HETATM   18  O   UNK N   1      32.802  17.187   9.173  0.00  0.00    -0.773 OA
HETATM   19  H   UNK N   1      33.677  17.162   8.840  0.00  0.00     0.167 HD
ENDBRANCH  16  18
ENDBRANCH   1  16
BRANCH   3  20
HETATM   20  N   UNK N   1      27.646  18.777   8.856  0.00  0.00    -0.399 N 
HETATM   21  H   UNK N   1      26.836  19.162   8.448  0.00  0.00     0.156 HD
HETATM   22  H   UNK N   1      27.778  18.833   9.830  0.00  0.00     0.156 HD
ENDBRANCH   3  20
TORSDOF 8
ENDMDL
