MODEL 1
REMARK VINA RESULT:      -6.5      0.000      0.000
REMARK  7 active torsions:
REMARK  status: ('A' for Active; 'I' for Inactive)
REMARK       I    between atoms: N_1  and  C_2 
REMARK    1  A    between atoms: C_2  and  C_4 
REMARK    2  A    between atoms: C_4  and  C_5 
REMARK    3  A    between atoms: C_11  and  C_12 
REMARK    4  A    between atoms: C_12  and  C_13 
REMARK    5  A    between atoms: C_16  and  C_17 
REMARK    6  A    between atoms: C_17  and  C_18 
REMARK    7  A    between atoms: C_18  and  O_20 
ROOT
HETATM    1  C   UNK N   1      21.582  17.543   5.111  0.00  0.00     0.019 A 
HETATM    2  N   UNK N   1      21.304  18.549   4.253  0.00  0.00    -0.358 N 
HETATM    3  C   UNK N   1      22.485  19.090   3.934  0.00  0.00     0.049 A 
HETATM    4  C   UNK N   1      23.507  18.448   4.572  0.00  0.00    -0.006 A 
HETATM    5  C   UNK N   1      22.957  17.441   5.341  0.00  0.00     0.039 A 
HETATM    6  C   UNK N   1      24.837  18.837   4.395  0.00  0.00     0.021 A 
HETATM    7  C   UNK N   1      25.098  19.923   3.529  0.00  0.00    -0.057 A 
HETATM    8  C   UNK N   1      24.021  20.577   2.876  0.00  0.00     0.017 A 
HETATM    9  C   UNK N   1      22.692  20.161   3.076  0.00  0.00    -0.020 A 
HETATM   10  H   UNK N   1      20.416  18.825   3.930  0.00  0.00     0.166 HD
ENDROOT
BRANCH   1  11
HETATM   11  C   UNK N   1      20.535  16.655   5.728  0.00  0.00     0.159 C 
BRANCH  11  12
HETATM   12  C   UNK N   1      20.345  16.787   7.225  0.00  0.00     0.221 C 
HETATM   13  N   UNK N   1      19.993  15.703   7.940  0.00  0.00    -0.370 N 
HETATM   14  H   UNK N   1      19.862  14.838   7.489  0.00  0.00     0.159 HD
HETATM   15  H   UNK N   1      19.866  15.775   8.913  0.00  0.00     0.159 HD
HETATM   16  O   UNK N   1      20.504  17.854   7.800  0.00  0.00    -0.273 OA
ENDBRANCH  11  12
ENDBRANCH   1  11
BRANCH   9  17
HETATM   17  C   UNK N   1      21.501  20.811   2.414  0.00  0.00     0.150 C 
BRANCH  17  18
HETATM   18  C   UNK N   1      20.957  20.231   1.136  0.00  0.00     0.143 C 
HETATM   19  O   UNK N   1      21.110  20.788   0.061  0.00  0.00    -0.650 OA
BRANCH  18  20
HETATM   20  O   UNK N   1      20.284  19.068   1.187  0.00  0.00    -0.776 OA
HETATM   21  H   UNK N   1      20.707  18.295   1.508  0.00  0.00     0.167 HD
ENDBRANCH  18  20
ENDBRANCH  17  18
ENDBRANCH   9  17
BRANCH   7  22
HETATM   22  C   UNK N   1      26.516  20.371   3.313  0.00  0.00     0.038 C 
BRANCH  22  23
HETATM   23  C   UNK N   1      27.412  20.123   4.525  0.00  0.00     0.000 C 
HETATM   24  C   UNK N   1      27.174  21.183   5.578  0.00  0.00     0.005 C 
ENDBRANCH  22  23
ENDBRANCH   7  22
TORSDOF 7
ENDMDL
MODEL 2
REMARK VINA RESULT:      -6.5      8.289     11.006
REMARK  7 active torsions:
REMARK  status: ('A' for Active; 'I' for Inactive)
REMARK       I    between atoms: N_1  and  C_2 
REMARK    1  A    between atoms: C_2  and  C_4 
REMARK    2  A    between atoms: C_4  and  C_5 
REMARK    3  A    between atoms: C_11  and  C_12 
REMARK    4  A    between atoms: C_12  and  C_13 
REMARK    5  A    between atoms: C_16  and  C_17 
REMARK    6  A    between atoms: C_17  and  C_18 
REMARK    7  A    between atoms: C_18  and  O_20 
ROOT
HETATM    1  C   UNK N   1      30.449  17.634   8.586  0.00  0.00     0.019 A 
HETATM    2  N   UNK N   1      31.790  17.749   8.698  0.00  0.00    -0.358 N 
HETATM    3  C   UNK N   1      32.277  17.515   7.474  0.00  0.00     0.049 A 
HETATM    4  C   UNK N   1      31.271  17.255   6.588  0.00  0.00    -0.006 A 
HETATM    5  C   UNK N   1      30.076  17.324   7.275  0.00  0.00     0.039 A 
HETATM    6  C   UNK N   1      31.537  16.980   5.244  0.00  0.00     0.021 A 
HETATM    7  C   UNK N   1      32.886  16.979   4.823  0.00  0.00    -0.057 A 
HETATM    8  C   UNK N   1      33.915  17.253   5.761  0.00  0.00     0.017 A 
HETATM    9  C   UNK N   1      33.616  17.526   7.108  0.00  0.00    -0.020 A 
HETATM   10  H   UNK N   1      32.302  17.961   9.511  0.00  0.00     0.166 HD
ENDROOT
BRANCH   1  11
HETATM   11  C   UNK N   1      29.494  17.820   9.735  0.00  0.00     0.159 C 
BRANCH  11  12
HETATM   12  C   UNK N   1      28.019  17.784   9.391  0.00  0.00     0.221 C 
HETATM   13  N   UNK N   1      27.441  18.879   8.864  0.00  0.00    -0.370 N 
HETATM   14  H   UNK N   1      27.977  19.690   8.707  0.00  0.00     0.159 HD
HETATM   15  H   UNK N   1      26.484  18.869   8.636  0.00  0.00     0.159 HD
HETATM   16  O   UNK N   1      27.341  16.785   9.579  0.00  0.00    -0.273 OA
ENDBRANCH  11  12
ENDBRANCH   1  11
BRANCH   9  17
HETATM   17  C   UNK N   1      34.661  17.825   8.155  0.00  0.00     0.150 C 
BRANCH  17  18
HETATM   18  C   UNK N   1      34.926  16.821   9.244  0.00  0.00     0.143 C 
HETATM   19  O   UNK N   1      35.206  15.660   8.993  0.00  0.00    -0.650 OA
BRANCH  18  20
HETATM   20  O   UNK N   1      34.850  17.219  10.526  0.00  0.00    -0.776 OA
HETATM   21  H   UNK N   1      34.056  17.098  11.008  0.00  0.00     0.167 HD
ENDBRANCH  18  20
ENDBRANCH  17  18
ENDBRANCH   9  17
BRANCH   7  22
HETATM   22  C   UNK N   1      33.210  16.688   3.385  0.00  0.00     0.038 C 
BRANCH  22  23
HETATM   23  C   UNK N   1      32.963  15.231   3.000  0.00  0.00     0.000 C 
HETATM   24  C   UNK N   1      34.181  14.391   3.317  0.00  0.00     0.005 C 
ENDBRANCH  22  23
ENDBRANCH   7  22
TORSDOF 7
ENDMDL
MODEL 3
REMARK VINA RESULT:      -6.4      9.320     11.779
REMARK  7 active torsions:
REMARK  status: ('A' for Active; 'I' for Inactive)
REMARK       I    between atoms: N_1  and  C_2 
REMARK    1  A    between atoms: C_2  and  C_4 
REMARK    2  A    between atoms: C_4  and  C_5 
REMARK    3  A    between atoms: C_11  and  C_12 
REMARK    4  A    between atoms: C_12  and  C_13 
REMARK    5  A    between atoms: C_16  and  C_17 
REMARK    6  A    between atoms: C_17  and  C_18 
REMARK    7  A    between atoms: C_18  and  O_20 
ROOT
HETATM    1  C   UNK N   1      34.452  16.918   9.371  0.00  0.00     0.019 A 
HETATM    2  N   UNK N   1      33.101  16.933   9.393  0.00  0.00    -0.358 N 
HETATM    3  C   UNK N   1      32.719  17.071   8.118  0.00  0.00     0.049 A 
HETATM    4  C   UNK N   1      33.800  17.145   7.288  0.00  0.00    -0.006 A 
HETATM    5  C   UNK N   1      34.937  17.049   8.066  0.00  0.00     0.039 A 
HETATM    6  C   UNK N   1      33.650  17.291   5.907  0.00  0.00     0.021 A 
HETATM    7  C   UNK N   1      32.337  17.362   5.389  0.00  0.00    -0.057 A 
HETATM    8  C   UNK N   1      31.228  17.284   6.270  0.00  0.00     0.017 A 
HETATM    9  C   UNK N   1      31.412  17.136   7.656  0.00  0.00    -0.020 A 
HETATM   10  H   UNK N   1      32.520  16.857  10.184  0.00  0.00     0.166 HD
ENDROOT
BRANCH   1  11
HETATM   11  C   UNK N   1      35.308  16.778  10.601  0.00  0.00     0.159 C 
BRANCH  11  12
HETATM   12  C   UNK N   1      35.215  15.456  11.334  0.00  0.00     0.221 C 
HETATM   13  N   UNK N   1      36.330  14.918  11.861  0.00  0.00    -0.370 N 
HETATM   14  H   UNK N   1      37.192  15.384  11.767  0.00  0.00     0.159 HD
HETATM   15  H   UNK N   1      36.283  14.060  12.339  0.00  0.00     0.159 HD
HETATM   16  O   UNK N   1      34.152  14.866  11.458  0.00  0.00    -0.273 OA
ENDBRANCH  11  12
ENDBRANCH   1  11
BRANCH   9  17
HETATM   17  C   UNK N   1      30.278  17.046   8.648  0.00  0.00     0.150 C 
BRANCH  17  18
HETATM   18  C   UNK N   1      29.577  18.303   9.088  0.00  0.00     0.143 C 
HETATM   19  O   UNK N   1      28.834  18.920   8.340  0.00  0.00    -0.650 OA
BRANCH  18  20
HETATM   20  O   UNK N   1      29.778  18.755  10.338  0.00  0.00    -0.776 OA
HETATM   21  H   UNK N   1      30.506  18.441  10.838  0.00  0.00     0.167 HD
ENDBRANCH  18  20
ENDBRANCH  17  18
ENDBRANCH   9  17
BRANCH   7  22
HETATM   22  C   UNK N   1      32.135  17.520   3.907  0.00  0.00     0.038 C 
BRANCH  22  23
HETATM   23  C   UNK N   1      32.950  16.525   3.085  0.00  0.00     0.000 C 
HETATM   24  C   UNK N   1      32.343  15.143   3.182  0.00  0.00     0.005 C 
ENDBRANCH  22  23
ENDBRANCH   7  22
TORSDOF 7
ENDMDL
MODEL 4
REMARK VINA RESULT:      -6.4      3.067      7.245
REMARK  7 active torsions:
REMARK  status: ('A' for Active; 'I' for Inactive)
REMARK       I    between atoms: N_1  and  C_2 
REMARK    1  A    between atoms: C_2  and  C_4 
REMARK    2  A    between atoms: C_4  and  C_5 
REMARK    3  A    between atoms: C_11  and  C_12 
REMARK    4  A    between atoms: C_12  and  C_13 
REMARK    5  A    between atoms: C_16  and  C_17 
REMARK    6  A    between atoms: C_17  and  C_18 
REMARK    7  A    between atoms: C_18  and  O_20 
ROOT
HETATM    1  C   UNK N   1      21.797  17.713   5.503  0.00  0.00     0.019 A 
HETATM    2  N   UNK N   1      20.987  17.903   6.567  0.00  0.00    -0.358 N 
HETATM    3  C   UNK N   1      21.024  16.759   7.260  0.00  0.00     0.049 A 
HETATM    4  C   UNK N   1      21.842  15.847   6.656  0.00  0.00    -0.006 A 
HETATM    5  C   UNK N   1      22.358  16.433   5.518  0.00  0.00     0.039 A 
HETATM    6  C   UNK N   1      22.040  14.575   7.198  0.00  0.00     0.021 A 
HETATM    7  C   UNK N   1      21.364  14.254   8.397  0.00  0.00    -0.057 A 
HETATM    8  C   UNK N   1      20.520  15.216   9.007  0.00  0.00     0.017 A 
HETATM    9  C   UNK N   1      20.341  16.490   8.437  0.00  0.00    -0.020 A 
HETATM   10  H   UNK N   1      20.476  18.715   6.787  0.00  0.00     0.166 HD
ENDROOT
BRANCH   1  11
HETATM   11  C   UNK N   1      22.052  18.756   4.448  0.00  0.00     0.159 C 
BRANCH  11  12
HETATM   12  C   UNK N   1      20.826  19.354   3.789  0.00  0.00     0.221 C 
HETATM   13  N   UNK N   1      20.051  18.571   3.015  0.00  0.00    -0.370 N 
HETATM   14  H   UNK N   1      20.284  17.624   2.884  0.00  0.00     0.159 HD
HETATM   15  H   UNK N   1      19.252  18.947   2.581  0.00  0.00     0.159 HD
HETATM   16  O   UNK N   1      20.524  20.527   3.942  0.00  0.00    -0.273 OA
ENDBRANCH  11  12
ENDBRANCH   1  11
BRANCH   9  17
HETATM   17  C   UNK N   1      19.458  17.559   9.034  0.00  0.00     0.150 C 
BRANCH  17  18
HETATM   18  C   UNK N   1      17.965  17.369   9.038  0.00  0.00     0.143 C 
HETATM   19  O   UNK N   1      17.412  16.607   8.262  0.00  0.00    -0.650 OA
BRANCH  18  20
HETATM   20  O   UNK N   1      17.226  18.061   9.924  0.00  0.00    -0.776 OA
HETATM   21  H   UNK N   1      17.452  18.945  10.134  0.00  0.00     0.167 HD
ENDBRANCH  18  20
ENDBRANCH  17  18
ENDBRANCH   9  17
BRANCH   7  22
HETATM   22  C   UNK N   1      21.553  12.894   9.009  0.00  0.00     0.038 C 
BRANCH  22  23
HETATM   23  C   UNK N   1      21.302  12.877  10.515  0.00  0.00     0.000 C 
HETATM   24  C   UNK N   1      22.417  12.140  11.224  0.00  0.00     0.005 C 
ENDBRANCH  22  23
ENDBRANCH   7  22
TORSDOF 7
ENDMDL
MODEL 5
REMARK VINA RESULT:      -6.3     10.793     12.755
REMARK  7 active torsions:
REMARK  status: ('A' for Active; 'I' for Inactive)
REMARK       I    between atoms: N_1  and  C_2 
REMARK    1  A    between atoms: C_2  and  C_4 
REMARK    2  A    between atoms: C_4  and  C_5 
REMARK    3  A    between atoms: C_11  and  C_12 
REMARK    4  A    between atoms: C_12  and  C_13 
REMARK    5  A    between atoms: C_16  and  C_17 
REMARK    6  A    between atoms: C_17  and  C_18 
REMARK    7  A    between atoms: C_18  and  O_20 
ROOT
HETATM    1  C   UNK N   1      26.309  25.836  -5.159  0.00  0.00     0.019 A 
HETATM    2  N   UNK N   1      27.381  25.439  -4.439  0.00  0.00    -0.358 N 
HETATM    3  C   UNK N   1      27.859  24.358  -5.065  0.00  0.00     0.049 A 
HETATM    4  C   UNK N   1      27.112  24.060  -6.168  0.00  0.00    -0.006 A 
HETATM    5  C   UNK N   1      26.102  24.997  -6.258  0.00  0.00     0.039 A 
HETATM    6  C   UNK N   1      27.420  22.969  -6.984  0.00  0.00     0.021 A 
HETATM    7  C   UNK N   1      28.535  22.176  -6.633  0.00  0.00    -0.057 A 
HETATM    8  C   UNK N   1      29.297  22.503  -5.483  0.00  0.00     0.017 A 
HETATM    9  C   UNK N   1      28.962  23.608  -4.681  0.00  0.00    -0.020 A 
HETATM   10  H   UNK N   1      27.735  25.860  -3.622  0.00  0.00     0.166 HD
ENDROOT
BRANCH   1  11
HETATM   11  C   UNK N   1      25.460  27.029  -4.810  0.00  0.00     0.159 C 
BRANCH  11  12
HETATM   12  C   UNK N   1      25.782  27.719  -3.501  0.00  0.00     0.221 C 
HETATM   13  N   UNK N   1      25.883  29.061  -3.474  0.00  0.00    -0.370 N 
HETATM   14  H   UNK N   1      25.747  29.580  -4.298  0.00  0.00     0.159 HD
HETATM   15  H   UNK N   1      26.091  29.521  -2.630  0.00  0.00     0.159 HD
HETATM   16  O   UNK N   1      25.953  27.088  -2.469  0.00  0.00    -0.273 OA
ENDBRANCH  11  12
ENDBRANCH   1  11
BRANCH   9  17
HETATM   17  C   UNK N   1      29.729  24.012  -3.445  0.00  0.00     0.150 C 
BRANCH  17  18
HETATM   18  C   UNK N   1      29.501  23.269  -2.156  0.00  0.00     0.143 C 
HETATM   19  O   UNK N   1      30.427  22.925  -1.440  0.00  0.00    -0.650 OA
BRANCH  18  20
HETATM   20  O   UNK N   1      28.240  22.979  -1.789  0.00  0.00    -0.776 OA
HETATM   21  H   UNK N   1      27.908  23.288  -0.969  0.00  0.00     0.167 HD
ENDBRANCH  18  20
ENDBRANCH  17  18
ENDBRANCH   9  17
BRANCH   7  22
HETATM   22  C   UNK N   1      28.898  20.993  -7.488  0.00  0.00     0.038 C 
BRANCH  22  23
HETATM   23  C   UNK N   1      29.978  20.114  -6.864  0.00  0.00     0.000 C 
HETATM   24  C   UNK N   1      31.172  20.015  -7.787  0.00  0.00     0.005 C 
ENDBRANCH  22  23
ENDBRANCH   7  22
TORSDOF 7
ENDMDL
MODEL 6
REMARK VINA RESULT:      -6.1      3.499      7.535
REMARK  7 active torsions:
REMARK  status: ('A' for Active; 'I' for Inactive)
REMARK       I    between atoms: N_1  and  C_2 
REMARK    1  A    between atoms: C_2  and  C_4 
REMARK    2  A    between atoms: C_4  and  C_5 
REMARK    3  A    between atoms: C_11  and  C_12 
REMARK    4  A    between atoms: C_12  and  C_13 
REMARK    5  A    between atoms: C_16  and  C_17 
REMARK    6  A    between atoms: C_17  and  C_18 
REMARK    7  A    between atoms: C_18  and  O_20 
ROOT
HETATM    1  C   UNK N   1      22.292  16.752   5.960  0.00  0.00     0.019 A 
HETATM    2  N   UNK N   1      21.193  17.025   6.696  0.00  0.00    -0.358 N 
HETATM    3  C   UNK N   1      21.118  16.051   7.610  0.00  0.00     0.049 A 
HETATM    4  C   UNK N   1      22.147  15.165   7.468  0.00  0.00    -0.006 A 
HETATM    5  C   UNK N   1      22.925  15.590   6.410  0.00  0.00     0.039 A 
HETATM    6  C   UNK N   1      22.279  14.060   8.312  0.00  0.00     0.021 A 
HETATM    7  C   UNK N   1      21.310  13.882   9.325  0.00  0.00    -0.057 A 
HETATM    8  C   UNK N   1      20.249  14.814   9.455  0.00  0.00     0.017 A 
HETATM    9  C   UNK N   1      20.143  15.918   8.589  0.00  0.00    -0.020 A 
HETATM   10  H   UNK N   1      20.576  17.784   6.583  0.00  0.00     0.166 HD
ENDROOT
BRANCH   1  11
HETATM   11  C   UNK N   1      22.760  17.600   4.808  0.00  0.00     0.159 C 
BRANCH  11  12
HETATM   12  C   UNK N   1      24.260  17.731   4.640  0.00  0.00     0.221 C 
HETATM   13  N   UNK N   1      24.924  18.649   5.367  0.00  0.00    -0.370 N 
HETATM   14  H   UNK N   1      24.434  19.224   5.998  0.00  0.00     0.159 HD
HETATM   15  H   UNK N   1      25.898  18.744   5.268  0.00  0.00     0.159 HD
HETATM   16  O   UNK N   1      24.882  17.025   3.861  0.00  0.00    -0.273 OA
ENDBRANCH  11  12
ENDBRANCH   1  11
BRANCH   9  17
HETATM   17  C   UNK N   1      19.041  16.946   8.672  0.00  0.00     0.150 C 
BRANCH  17  18
HETATM   18  C   UNK N   1      19.337  18.304   9.248  0.00  0.00     0.143 C 
HETATM   19  O   UNK N   1      18.835  18.682  10.295  0.00  0.00    -0.650 OA
BRANCH  18  20
HETATM   20  O   UNK N   1      20.178  19.120   8.587  0.00  0.00    -0.776 OA
HETATM   21  H   UNK N   1      19.941  19.454   7.744  0.00  0.00     0.167 HD
ENDBRANCH  18  20
ENDBRANCH  17  18
ENDBRANCH   9  17
BRANCH   7  22
HETATM   22  C   UNK N   1      21.420  12.704  10.253  0.00  0.00     0.038 C 
BRANCH  22  23
HETATM   23  C   UNK N   1      22.864  12.303  10.541  0.00  0.00     0.000 C 
HETATM   24  C   UNK N   1      23.032  11.963  12.006  0.00  0.00     0.005 C 
ENDBRANCH  22  23
ENDBRANCH   7  22
TORSDOF 7
ENDMDL
MODEL 7
REMARK VINA RESULT:      -6.0     10.718     13.012
REMARK  7 active torsions:
REMARK  status: ('A' for Active; 'I' for Inactive)
REMARK       I    between atoms: N_1  and  C_2 
REMARK    1  A    between atoms: C_2  and  C_4 
REMARK    2  A    between atoms: C_4  and  C_5 
REMARK    3  A    between atoms: C_11  and  C_12 
REMARK    4  A    between atoms: C_12  and  C_13 
REMARK    5  A    between atoms: C_16  and  C_17 
REMARK    6  A    between atoms: C_17  and  C_18 
REMARK    7  A    between atoms: C_18  and  O_20 
ROOT
HETATM    1  C   UNK N   1      26.120  26.611  -4.441  0.00  0.00     0.019 A 
HETATM    2  N   UNK N   1      27.210  25.998  -3.930  0.00  0.00    -0.358 N 
HETATM    3  C   UNK N   1      27.452  24.958  -4.736  0.00  0.00     0.049 A 
HETATM    4  C   UNK N   1      26.537  24.900  -5.748  0.00  0.00    -0.006 A 
HETATM    5  C   UNK N   1      25.662  25.955  -5.587  0.00  0.00     0.039 A 
HETATM    6  C   UNK N   1      26.587  23.895  -6.718  0.00  0.00     0.021 A 
HETATM    7  C   UNK N   1      27.618  22.934  -6.622  0.00  0.00    -0.057 A 
HETATM    8  C   UNK N   1      28.558  23.014  -5.562  0.00  0.00     0.017 A 
HETATM    9  C   UNK N   1      28.481  24.037  -4.601  0.00  0.00    -0.020 A 
HETATM   10  H   UNK N   1      27.719  26.262  -3.130  0.00  0.00     0.166 HD
ENDROOT
BRANCH   1  11
HETATM   11  C   UNK N   1      25.494  27.842  -3.841  0.00  0.00     0.159 C 
BRANCH  11  12
HETATM   12  C   UNK N   1      26.451  28.919  -3.375  0.00  0.00     0.221 C 
HETATM   13  N   UNK N   1      26.525  30.074  -4.063  0.00  0.00    -0.370 N 
HETATM   14  H   UNK N   1      25.962  30.209  -4.859  0.00  0.00     0.159 HD
HETATM   15  H   UNK N   1      27.143  30.782  -3.771  0.00  0.00     0.159 HD
HETATM   16  O   UNK N   1      27.156  28.767  -2.389  0.00  0.00    -0.273 OA
ENDBRANCH  11  12
ENDBRANCH   1  11
BRANCH   9  17
HETATM   17  C   UNK N   1      29.447  24.180  -3.449  0.00  0.00     0.150 C 
BRANCH  17  18
HETATM   18  C   UNK N   1      29.257  23.340  -2.215  0.00  0.00     0.143 C 
HETATM   19  O   UNK N   1      28.149  22.993  -1.838  0.00  0.00    -0.650 OA
BRANCH  18  20
HETATM   20  O   UNK N   1      30.341  22.964  -1.513  0.00  0.00    -0.776 OA
HETATM   21  H   UNK N   1      30.253  22.711  -0.615  0.00  0.00     0.167 HD
ENDBRANCH  18  20
ENDBRANCH  17  18
ENDBRANCH   9  17
BRANCH   7  22
HETATM   22  C   UNK N   1      27.704  21.838  -7.648  0.00  0.00     0.038 C 
BRANCH  22  23
HETATM   23  C   UNK N   1      26.481  21.778  -8.561  0.00  0.00     0.000 C 
HETATM   24  C   UNK N   1      25.556  20.664  -8.125  0.00  0.00     0.005 C 
ENDBRANCH  22  23
ENDBRANCH   7  22
TORSDOF 7
ENDMDL
MODEL 8
REMARK VINA RESULT:      -6.0      1.702      4.958
REMARK  7 active torsions:
REMARK  status: ('A' for Active; 'I' for Inactive)
REMARK       I    between atoms: N_1  and  C_2 
REMARK    1  A    between atoms: C_2  and  C_4 
REMARK    2  A    between atoms: C_4  and  C_5 
REMARK    3  A    between atoms: C_11  and  C_12 
REMARK    4  A    between atoms: C_12  and  C_13 
REMARK    5  A    between atoms: C_16  and  C_17 
REMARK    6  A    between atoms: C_17  and  C_18 
REMARK    7  A    between atoms: C_18  and  O_20 
ROOT
HETATM    1  C   UNK N   1      21.837  20.051   2.897  0.00  0.00     0.019 A 
HETATM    2  N   UNK N   1      21.893  18.945   3.669  0.00  0.00    -0.358 N 
HETATM    3  C   UNK N   1      23.184  18.783   3.979  0.00  0.00     0.049 A 
HETATM    4  C   UNK N   1      23.949  19.765   3.419  0.00  0.00    -0.006 A 
HETATM    5  C   UNK N   1      23.109  20.602   2.712  0.00  0.00     0.039 A 
HETATM    6  C   UNK N   1      25.333  19.806   3.604  0.00  0.00     0.021 A 
HETATM    7  C   UNK N   1      25.925  18.794   4.393  0.00  0.00    -0.057 A 
HETATM    8  C   UNK N   1      25.111  17.783   4.966  0.00  0.00     0.017 A 
HETATM    9  C   UNK N   1      23.720  17.770   4.762  0.00  0.00    -0.020 A 
HETATM   10  H   UNK N   1      21.139  18.375   3.946  0.00  0.00     0.166 HD
ENDROOT
BRANCH   1  11
HETATM   11  C   UNK N   1      20.563  20.605   2.318  0.00  0.00     0.159 C 
BRANCH  11  12
HETATM   12  C   UNK N   1      20.670  21.230   0.943  0.00  0.00     0.221 C 
HETATM   13  N   UNK N   1      20.279  22.507   0.770  0.00  0.00    -0.370 N 
HETATM   14  H   UNK N   1      19.930  23.021   1.532  0.00  0.00     0.159 HD
HETATM   15  H   UNK N   1      20.344  22.925  -0.119  0.00  0.00     0.159 HD
HETATM   16  O   UNK N   1      21.102  20.605  -0.014  0.00  0.00    -0.273 OA
ENDBRANCH  11  12
ENDBRANCH   1  11
BRANCH   9  17
HETATM   17  C   UNK N   1      22.797  16.725   5.341  0.00  0.00     0.150 C 
BRANCH  17  18
HETATM   18  C   UNK N   1      21.904  17.085   6.497  0.00  0.00     0.143 C 
HETATM   19  O   UNK N   1      21.470  16.238   7.262  0.00  0.00    -0.650 OA
BRANCH  18  20
HETATM   20  O   UNK N   1      21.577  18.376   6.688  0.00  0.00    -0.776 OA
HETATM   21  H   UNK N   1      20.715  18.603   6.976  0.00  0.00     0.167 HD
ENDBRANCH  18  20
ENDBRANCH  17  18
ENDBRANCH   9  17
BRANCH   7  22
HETATM   22  C   UNK N   1      27.412  18.805   4.614  0.00  0.00     0.038 C 
BRANCH  22  23
HETATM   23  C   UNK N   1      27.958  20.195   4.930  0.00  0.00     0.000 C 
HETATM   24  C   UNK N   1      27.563  20.609   6.331  0.00  0.00     0.005 C 
ENDBRANCH  22  23
ENDBRANCH   7  22
TORSDOF 7
ENDMDL
MODEL 9
REMARK VINA RESULT:      -6.0     14.642     16.765
REMARK  7 active torsions:
REMARK  status: ('A' for Active; 'I' for Inactive)
REMARK       I    between atoms: N_1  and  C_2 
REMARK    1  A    between atoms: C_2  and  C_4 
REMARK    2  A    between atoms: C_4  and  C_5 
REMARK    3  A    between atoms: C_11  and  C_12 
REMARK    4  A    between atoms: C_12  and  C_13 
REMARK    5  A    between atoms: C_16  and  C_17 
REMARK    6  A    between atoms: C_17  and  C_18 
REMARK    7  A    between atoms: C_18  and  O_20 
ROOT
HETATM    1  C   UNK N   1      33.977  10.420  11.773  0.00  0.00     0.019 A 
HETATM    2  N   UNK N   1      34.592  11.616  11.646  0.00  0.00    -0.358 N 
HETATM    3  C   UNK N   1      34.760  12.072  12.893  0.00  0.00     0.049 A 
HETATM    4  C   UNK N   1      34.264  11.188  13.808  0.00  0.00    -0.006 A 
HETATM    5  C   UNK N   1      33.751  10.109  13.117  0.00  0.00     0.039 A 
HETATM    6  C   UNK N   1      34.326  11.448  15.179  0.00  0.00     0.021 A 
HETATM    7  C   UNK N   1      34.921  12.659  15.597  0.00  0.00    -0.057 A 
HETATM    8  C   UNK N   1      35.430  13.563  14.629  0.00  0.00     0.017 A 
HETATM    9  C   UNK N   1      35.352  13.273  13.254  0.00  0.00    -0.020 A 
HETATM   10  H   UNK N   1      34.860  12.060  10.809  0.00  0.00     0.166 HD
ENDROOT
BRANCH   1  11
HETATM   11  C   UNK N   1      33.593   9.548  10.607  0.00  0.00     0.159 C 
BRANCH  11  12
HETATM   12  C   UNK N   1      33.061  10.265   9.383  0.00  0.00     0.221 C 
HETATM   13  N   UNK N   1      33.784  10.248   8.248  0.00  0.00    -0.370 N 
HETATM   14  H   UNK N   1      34.646   9.774   8.221  0.00  0.00     0.159 HD
HETATM   15  H   UNK N   1      33.451  10.709   7.446  0.00  0.00     0.159 HD
HETATM   16  O   UNK N   1      31.993  10.857   9.400  0.00  0.00    -0.273 OA
ENDBRANCH  11  12
ENDBRANCH   1  11
BRANCH   9  17
HETATM   17  C   UNK N   1      35.873  14.189  12.174  0.00  0.00     0.150 C 
BRANCH  17  18
HETATM   18  C   UNK N   1      34.934  15.162  11.512  0.00  0.00     0.143 C 
HETATM   19  O   UNK N   1      35.317  16.247  11.103  0.00  0.00    -0.650 OA
BRANCH  18  20
HETATM   20  O   UNK N   1      33.641  14.823  11.371  0.00  0.00    -0.776 OA
HETATM   21  H   UNK N   1      33.326  14.016  11.730  0.00  0.00     0.167 HD
ENDBRANCH  18  20
ENDBRANCH  17  18
ENDBRANCH   9  17
BRANCH   7  22
HETATM   22  C   UNK N   1      35.006  12.973  17.065  0.00  0.00     0.038 C 
BRANCH  22  23
HETATM   23  C   UNK N   1      35.314  11.747  17.920  0.00  0.00     0.000 C 
HETATM   24  C   UNK N   1      35.399  12.134  19.380  0.00  0.00     0.005 C 
ENDBRANCH  22  23
ENDBRANCH   7  22
TORSDOF 7
ENDMDL
