REMARK  1 active torsions:
REMARK  status: ('A' for Active; 'I' for Inactive)
REMARK    1  A    between atoms: C_6  and  C_7 
ROOT
HETATM    1  C   UNK N   1       2.215   3.818   0.000  0.00  0.00     0.032 A 
HETATM    2  C   UNK N   1       3.430   3.102   0.000  0.00  0.00     0.002 A 
HETATM    3  C   UNK N   1       3.430   1.687   0.000  0.00  0.00     0.001 A 
HETATM    4  C   UNK N   1       2.215   0.978   0.000  0.00  0.00     0.016 A 
HETATM    5  C   UNK N   1       1.037   1.719   0.000  0.00  0.00     0.024 A 
HETATM    6  C   UNK N   1      -0.285   1.353  -0.000  0.00  0.00     0.104 A 
HETATM    7  N   UNK N   1      -0.232   3.533   0.000  0.00  0.00    -0.299 N 
HETATM    8  C   UNK N   1       1.036   3.080   0.000  0.00  0.00     0.060 A 
HETATM    9  N   UNK N   1      -1.043   2.476  -0.000  0.00  0.00    -0.296 N 
ATOM     10  HN  UNK N   1      -2.063   2.507  -0.000  1.00  0.00     0.187 HD
HETATM   11  H   UNK N   1      -0.510   4.478   0.000  0.00  0.00     0.187 HD
ENDROOT
BRANCH   6  12
HETATM   12  C   UNK N   1      -0.798  -0.020  -0.000  0.00  0.00     0.136 A 
HETATM   13  N   UNK N   1       0.017  -1.105  -0.000  0.00  0.00    -0.339 N 
HETATM   14  C   UNK N   1      -0.825  -2.142  -0.000  0.00  0.00     0.060 A 
HETATM   15  H   UNK N   1       1.002  -1.124   0.000  0.00  0.00     0.167 HD
HETATM   16  C   UNK N   1      -0.509  -3.495   0.000  0.00  0.00     0.032 A 
HETATM   17  C   UNK N   1      -2.109  -1.691  -0.000  0.00  0.00     0.060 A 
HETATM   18  C   UNK N   1      -1.578  -4.409  -0.000  0.00  0.00     0.002 A 
HETATM   19  C   UNK N   1      -2.916  -3.944  -0.000  0.00  0.00     0.002 A 
HETATM   20  C   UNK N   1      -3.194  -2.562  -0.000  0.00  0.00     0.032 A 
HETATM   21  N   UNK N   1      -2.117  -0.348  -0.000  0.00  0.00    -0.339 N 
ATOM     22  HN  UNK N   1      -2.923   0.278  -0.000  1.00  0.00     0.167 HD
ENDBRANCH   6  12
TORSDOF 1
