MODEL 1
REMARK VINA RESULT:      -6.7      0.000      0.000
REMARK  1 active torsions:
REMARK  status: ('A' for Active; 'I' for Inactive)
REMARK    1  A    between atoms: C_6  and  C_7 
ROOT
HETATM    1  C   UNK N   1      34.537  16.574   7.432  0.00  0.00     0.032 A 
HETATM    2  C   UNK N   1      34.615  15.362   6.714  0.00  0.00     0.002 A 
HETATM    3  C   UNK N   1      34.863  14.143   7.388  0.00  0.00     0.001 A 
HETATM    4  C   UNK N   1      35.034  14.127   8.784  0.00  0.00     0.016 A 
HETATM    5  C   UNK N   1      34.949  15.342   9.458  0.00  0.00     0.024 A 
HETATM    6  C   UNK N   1      35.064  15.673  10.784  0.00  0.00     0.104 A 
HETATM    7  N   UNK N   1      34.681  17.526   9.699  0.00  0.00    -0.299 N 
HETATM    8  C   UNK N   1      34.711  16.515   8.810  0.00  0.00     0.060 A 
HETATM    9  N   UNK N   1      34.897  17.012  10.909  0.00  0.00    -0.296 N 
ATOM     10  HN  UNK N   1      34.930  17.538  11.783  1.00  0.00     0.187 HD
HETATM   11  H   UNK N   1      34.526  18.476   9.491  0.00  0.00     0.187 HD
ENDROOT
BRANCH   6  12
HETATM   12  C   UNK N   1      35.324  14.741  11.885  0.00  0.00     0.136 A 
HETATM   13  N   UNK N   1      34.640  13.580  12.036  0.00  0.00    -0.339 N 
HETATM   14  C   UNK N   1      35.168  13.034  13.135  0.00  0.00     0.060 A 
HETATM   15  H   UNK N   1      33.920  13.221  11.467  0.00  0.00     0.167 HD
HETATM   16  C   UNK N   1      34.825  11.829  13.737  0.00  0.00     0.032 A 
HETATM   17  C   UNK N   1      36.142  13.846  13.629  0.00  0.00     0.060 A 
HETATM   18  C   UNK N   1      35.528  11.462  14.898  0.00  0.00     0.002 A 
HETATM   19  C   UNK N   1      36.543  12.305  15.415  0.00  0.00     0.002 A 
HETATM   20  C   UNK N   1      36.861  13.520  14.774  0.00  0.00     0.032 A 
HETATM   21  N   UNK N   1      36.259  14.936  12.852  0.00  0.00    -0.339 N 
ATOM     22  HN  UNK N   1      36.899  15.723  12.962  1.00  0.00     0.167 HD
ENDBRANCH   6  12
TORSDOF 1
ENDMDL
MODEL 2
REMARK VINA RESULT:      -6.6      1.509      6.405
REMARK  1 active torsions:
REMARK  status: ('A' for Active; 'I' for Inactive)
REMARK    1  A    between atoms: C_6  and  C_7 
ROOT
HETATM    1  C   UNK N   1      36.075  11.412  15.912  0.00  0.00     0.032 A 
HETATM    2  C   UNK N   1      34.991  10.542  15.676  0.00  0.00     0.002 A 
HETATM    3  C   UNK N   1      34.113  10.767  14.589  0.00  0.00     0.001 A 
HETATM    4  C   UNK N   1      34.313  11.864  13.732  0.00  0.00     0.016 A 
HETATM    5  C   UNK N   1      35.393  12.701  13.997  0.00  0.00     0.024 A 
HETATM    6  C   UNK N   1      35.862  13.830  13.375  0.00  0.00     0.104 A 
HETATM    7  N   UNK N   1      37.187  13.440  15.063  0.00  0.00    -0.299 N 
HETATM    8  C   UNK N   1      36.238  12.485  15.042  0.00  0.00     0.060 A 
HETATM    9  N   UNK N   1      36.959  14.265  14.042  0.00  0.00    -0.296 N 
ATOM     10  HN  UNK N   1      37.515  15.086  13.803  1.00  0.00     0.187 HD
HETATM   11  H   UNK N   1      37.920  13.515  15.716  0.00  0.00     0.187 HD
ENDROOT
BRANCH   6  12
HETATM   12  C   UNK N   1      35.281  14.463  12.188  0.00  0.00     0.136 A 
HETATM   13  N   UNK N   1      35.689  15.674  11.732  0.00  0.00    -0.339 N 
HETATM   14  C   UNK N   1      34.926  15.889  10.657  0.00  0.00     0.060 A 
HETATM   15  H   UNK N   1      36.387  16.260  12.107  0.00  0.00     0.167 HD
HETATM   16  C   UNK N   1      34.937  16.991   9.811  0.00  0.00     0.032 A 
HETATM   17  C   UNK N   1      34.084  14.836  10.474  0.00  0.00     0.060 A 
HETATM   18  C   UNK N   1      34.032  16.990   8.734  0.00  0.00     0.002 A 
HETATM   19  C   UNK N   1      33.154  15.896   8.540  0.00  0.00     0.002 A 
HETATM   20  C   UNK N   1      33.175  14.796   9.421  0.00  0.00     0.032 A 
HETATM   21  N   UNK N   1      34.290  13.919  11.433  0.00  0.00    -0.339 N 
ATOM     22  HN  UNK N   1      33.816  13.025  11.564  1.00  0.00     0.167 HD
ENDBRANCH   6  12
TORSDOF 1
ENDMDL
MODEL 3
REMARK VINA RESULT:      -6.6      7.502      9.999
REMARK  1 active torsions:
REMARK  status: ('A' for Active; 'I' for Inactive)
REMARK    1  A    between atoms: C_6  and  C_7 
ROOT
HETATM    1  C   UNK N   1      24.564  19.067   3.887  0.00  0.00     0.032 A 
HETATM    2  C   UNK N   1      25.146  20.139   3.180  0.00  0.00     0.002 A 
HETATM    3  C   UNK N   1      26.520  20.440   3.335  0.00  0.00     0.001 A 
HETATM    4  C   UNK N   1      27.322  19.671   4.198  0.00  0.00     0.016 A 
HETATM    5  C   UNK N   1      26.712  18.621   4.878  0.00  0.00     0.024 A 
HETATM    6  C   UNK N   1      27.190  17.698   5.773  0.00  0.00     0.104 A 
HETATM    7  N   UNK N   1      25.068  17.274   5.500  0.00  0.00    -0.299 N 
HETATM    8  C   UNK N   1      25.390  18.331   4.730  0.00  0.00     0.060 A 
HETATM    9  N   UNK N   1      26.170  16.885   6.140  0.00  0.00    -0.296 N 
ATOM     10  HN  UNK N   1      26.235  16.106   6.796  1.00  0.00     0.187 HD
HETATM   11  H   UNK N   1      24.177  16.863   5.576  0.00  0.00     0.187 HD
ENDROOT
BRANCH   6  12
HETATM   12  C   UNK N   1      28.571  17.602   6.255  0.00  0.00     0.136 A 
HETATM   13  N   UNK N   1      28.930  17.946   7.518  0.00  0.00    -0.339 N 
HETATM   14  C   UNK N   1      30.246  17.717   7.553  0.00  0.00     0.060 A 
HETATM   15  H   UNK N   1      28.354  18.286   8.241  0.00  0.00     0.167 HD
HETATM   16  C   UNK N   1      31.114  17.905   8.622  0.00  0.00     0.032 A 
HETATM   17  C   UNK N   1      30.663  17.248   6.346  0.00  0.00     0.060 A 
HETATM   18  C   UNK N   1      32.469  17.590   8.417  0.00  0.00     0.002 A 
HETATM   19  C   UNK N   1      32.908  17.102   7.162  0.00  0.00     0.002 A 
HETATM   20  C   UNK N   1      31.995  16.925   6.103  0.00  0.00     0.032 A 
HETATM   21  N   UNK N   1      29.618  17.166   5.506  0.00  0.00    -0.339 N 
ATOM     22  HN  UNK N   1      29.612  16.852   4.535  1.00  0.00     0.167 HD
ENDBRANCH   6  12
TORSDOF 1
ENDMDL
MODEL 4
REMARK VINA RESULT:      -6.6      2.010      6.865
REMARK  1 active torsions:
REMARK  status: ('A' for Active; 'I' for Inactive)
REMARK    1  A    between atoms: C_6  and  C_7 
ROOT
HETATM    1  C   UNK N   1      36.061  10.875  17.123  0.00  0.00     0.032 A 
HETATM    2  C   UNK N   1      35.411  11.822  17.941  0.00  0.00     0.002 A 
HETATM    3  C   UNK N   1      34.906  13.023  17.388  0.00  0.00     0.001 A 
HETATM    4  C   UNK N   1      35.046  13.284  16.012  0.00  0.00     0.016 A 
HETATM    5  C   UNK N   1      35.693  12.325  15.238  0.00  0.00     0.024 A 
HETATM    6  C   UNK N   1      35.990  12.265  13.900  0.00  0.00     0.104 A 
HETATM    7  N   UNK N   1      36.752  10.431  14.800  0.00  0.00    -0.299 N 
HETATM    8  C   UNK N   1      36.179  11.171  15.769  0.00  0.00     0.060 A 
HETATM    9  N   UNK N   1      36.637  11.101  13.654  0.00  0.00    -0.296 N 
ATOM     10  HN  UNK N   1      36.979  10.789  12.745  1.00  0.00     0.187 HD
HETATM   11  H   UNK N   1      37.179   9.552  14.919  0.00  0.00     0.187 HD
ENDROOT
BRANCH   6  12
HETATM   12  C   UNK N   1      35.666  13.286  12.900  0.00  0.00     0.136 A 
HETATM   13  N   UNK N   1      34.649  13.144  12.013  0.00  0.00    -0.339 N 
HETATM   14  C   UNK N   1      34.687  14.268  11.293  0.00  0.00     0.060 A 
HETATM   15  H   UNK N   1      34.026  12.386  11.921  0.00  0.00     0.167 HD
HETATM   16  C   UNK N   1      33.855  14.636  10.242  0.00  0.00     0.032 A 
HETATM   17  C   UNK N   1      35.700  15.063  11.736  0.00  0.00     0.060 A 
HETATM   18  C   UNK N   1      34.093  15.881   9.634  0.00  0.00     0.002 A 
HETATM   19  C   UNK N   1      35.146  16.711  10.092  0.00  0.00     0.002 A 
HETATM   20  C   UNK N   1      35.967  16.301  11.161  0.00  0.00     0.032 A 
HETATM   21  N   UNK N   1      36.335  14.461  12.755  0.00  0.00    -0.339 N 
ATOM     22  HN  UNK N   1      37.131  14.804  13.293  1.00  0.00     0.167 HD
ENDBRANCH   6  12
TORSDOF 1
ENDMDL
MODEL 5
REMARK VINA RESULT:      -6.6      2.555      7.214
REMARK  1 active torsions:
REMARK  status: ('A' for Active; 'I' for Inactive)
REMARK    1  A    between atoms: C_6  and  C_7 
ROOT
HETATM    1  C   UNK N   1      35.527  14.541  11.778  0.00  0.00     0.032 A 
HETATM    2  C   UNK N   1      35.230  13.211  11.415  0.00  0.00     0.002 A 
HETATM    3  C   UNK N   1      34.507  12.934  10.230  0.00  0.00     0.001 A 
HETATM    4  C   UNK N   1      34.075  13.985   9.401  0.00  0.00     0.016 A 
HETATM    5  C   UNK N   1      34.386  15.284   9.793  0.00  0.00     0.024 A 
HETATM    6  C   UNK N   1      34.123  16.507   9.230  0.00  0.00     0.104 A 
HETATM    7  N   UNK N   1      35.240  16.882  11.065  0.00  0.00    -0.299 N 
HETATM    8  C   UNK N   1      35.082  15.551  10.932  0.00  0.00     0.060 A 
HETATM    9  N   UNK N   1      34.654  17.469  10.023  0.00  0.00    -0.296 N 
ATOM     10  HN  UNK N   1      34.611  18.474   9.851  1.00  0.00     0.187 HD
HETATM   11  H   UNK N   1      35.708  17.339  11.801  0.00  0.00     0.187 HD
ENDROOT
BRANCH   6  12
HETATM   12  C   UNK N   1      33.392  16.740   7.981  0.00  0.00     0.136 A 
HETATM   13  N   UNK N   1      34.010  17.101   6.828  0.00  0.00    -0.339 N 
HETATM   14  C   UNK N   1      33.012  17.212   5.947  0.00  0.00     0.060 A 
HETATM   15  H   UNK N   1      34.972  17.247   6.676  0.00  0.00     0.167 HD
HETATM   16  C   UNK N   1      33.096  17.560   4.605  0.00  0.00     0.032 A 
HETATM   17  C   UNK N   1      31.829  16.925   6.555  0.00  0.00     0.060 A 
HETATM   18  C   UNK N   1      31.896  17.611   3.873  0.00  0.00     0.002 A 
HETATM   19  C   UNK N   1      30.663  17.314   4.502  0.00  0.00     0.002 A 
HETATM   20  C   UNK N   1      30.620  16.964   5.867  0.00  0.00     0.032 A 
HETATM   21  N   UNK N   1      32.044  16.623   7.846  0.00  0.00    -0.339 N 
ATOM     22  HN  UNK N   1      31.358  16.367   8.557  1.00  0.00     0.167 HD
ENDBRANCH   6  12
TORSDOF 1
ENDMDL
MODEL 6
REMARK VINA RESULT:      -6.5      7.831     11.439
REMARK  1 active torsions:
REMARK  status: ('A' for Active; 'I' for Inactive)
REMARK    1  A    between atoms: C_6  and  C_7 
ROOT
HETATM    1  C   UNK N   1      30.868  16.880   8.883  0.00  0.00     0.032 A 
HETATM    2  C   UNK N   1      31.615  16.326   7.822  0.00  0.00     0.002 A 
HETATM    3  C   UNK N   1      31.198  16.502   6.482  0.00  0.00     0.001 A 
HETATM    4  C   UNK N   1      30.031  17.232   6.192  0.00  0.00     0.016 A 
HETATM    5  C   UNK N   1      29.321  17.763   7.265  0.00  0.00     0.024 A 
HETATM    6  C   UNK N   1      28.170  18.507   7.334  0.00  0.00     0.104 A 
HETATM    7  N   UNK N   1      28.855  18.209   9.383  0.00  0.00    -0.299 N 
HETATM    8  C   UNK N   1      29.721  17.595   8.555  0.00  0.00     0.060 A 
HETATM    9  N   UNK N   1      27.904  18.769   8.637  0.00  0.00    -0.296 N 
ATOM     10  HN  UNK N   1      27.109  19.304   8.987  1.00  0.00     0.187 HD
HETATM   11  H   UNK N   1      28.915  18.239  10.366  0.00  0.00     0.187 HD
ENDROOT
BRANCH   6  12
HETATM   12  C   UNK N   1      27.361  18.949   6.195  0.00  0.00     0.136 A 
HETATM   13  N   UNK N   1      26.089  18.520   5.992  0.00  0.00    -0.339 N 
HETATM   14  C   UNK N   1      25.713  19.143   4.871  0.00  0.00     0.060 A 
HETATM   15  H   UNK N   1      25.564  17.895   6.543  0.00  0.00     0.167 HD
HETATM   16  C   UNK N   1      24.490  19.055   4.218  0.00  0.00     0.032 A 
HETATM   17  C   UNK N   1      26.731  19.923   4.416  0.00  0.00     0.060 A 
HETATM   18  C   UNK N   1      24.328  19.812   3.044  0.00  0.00     0.002 A 
HETATM   19  C   UNK N   1      25.385  20.625   2.566  0.00  0.00     0.002 A 
HETATM   20  C   UNK N   1      26.611  20.687   3.259  0.00  0.00     0.032 A 
HETATM   21  N   UNK N   1      27.787  19.816   5.239  0.00  0.00    -0.339 N 
ATOM     22  HN  UNK N   1      28.695  20.277   5.164  1.00  0.00     0.167 HD
ENDBRANCH   6  12
TORSDOF 1
ENDMDL
MODEL 7
REMARK VINA RESULT:      -6.5      1.675      5.999
REMARK  1 active torsions:
REMARK  status: ('A' for Active; 'I' for Inactive)
REMARK    1  A    between atoms: C_6  and  C_7 
ROOT
HETATM    1  C   UNK N   1      36.579  12.087  13.978  0.00  0.00     0.032 A 
HETATM    2  C   UNK N   1      36.016  10.982  13.307  0.00  0.00     0.002 A 
HETATM    3  C   UNK N   1      35.256  11.168  12.128  0.00  0.00     0.001 A 
HETATM    4  C   UNK N   1      35.054  12.461  11.612  0.00  0.00     0.016 A 
HETATM    5  C   UNK N   1      35.625  13.526  12.301  0.00  0.00     0.024 A 
HETATM    6  C   UNK N   1      35.623  14.880  12.077  0.00  0.00     0.104 A 
HETATM    7  N   UNK N   1      36.786  14.541  13.890  0.00  0.00    -0.299 N 
HETATM    8  C   UNK N   1      36.356  13.348  13.435  0.00  0.00     0.060 A 
HETATM    9  N   UNK N   1      36.337  15.480  13.059  0.00  0.00    -0.296 N 
ATOM     10  HN  UNK N   1      36.503  16.483  13.147  1.00  0.00     0.187 HD
HETATM   11  H   UNK N   1      37.334  14.691  14.695  0.00  0.00     0.187 HD
ENDROOT
BRANCH   6  12
HETATM   12  C   UNK N   1      34.961  15.567  10.964  0.00  0.00     0.136 A 
HETATM   13  N   UNK N   1      33.750  15.185  10.486  0.00  0.00    -0.339 N 
HETATM   14  C   UNK N   1      33.506  16.048   9.496  0.00  0.00     0.060 A 
HETATM   15  H   UNK N   1      33.181  14.442  10.796  0.00  0.00     0.167 HD
HETATM   16  C   UNK N   1      32.391  16.103   8.670  0.00  0.00     0.032 A 
HETATM   17  C   UNK N   1      34.542  16.923   9.385  0.00  0.00     0.060 A 
HETATM   18  C   UNK N   1      32.360  17.111   7.690  0.00  0.00     0.002 A 
HETATM   19  C   UNK N   1      33.436  18.024   7.570  0.00  0.00     0.002 A 
HETATM   20  C   UNK N   1      34.550  17.935   8.429  0.00  0.00     0.032 A 
HETATM   21  N   UNK N   1      35.477  16.638  10.306  0.00  0.00    -0.339 N 
ATOM     22  HN  UNK N   1      36.365  17.112  10.471  1.00  0.00     0.167 HD
ENDBRANCH   6  12
TORSDOF 1
ENDMDL
MODEL 8
REMARK VINA RESULT:      -6.4      2.835      7.435
REMARK  1 active torsions:
REMARK  status: ('A' for Active; 'I' for Inactive)
REMARK    1  A    between atoms: C_6  and  C_7 
ROOT
HETATM    1  C   UNK N   1      35.442  11.365  18.658  0.00  0.00     0.032 A 
HETATM    2  C   UNK N   1      35.188  12.663  19.149  0.00  0.00     0.002 A 
HETATM    3  C   UNK N   1      35.221  13.779  18.279  0.00  0.00     0.001 A 
HETATM    4  C   UNK N   1      35.507  13.605  16.913  0.00  0.00     0.016 A 
HETATM    5  C   UNK N   1      35.753  12.311  16.466  0.00  0.00     0.024 A 
HETATM    6  C   UNK N   1      36.056  11.802  15.229  0.00  0.00     0.104 A 
HETATM    7  N   UNK N   1      35.994  10.114  16.608  0.00  0.00    -0.299 N 
HETATM    8  C   UNK N   1      35.722  11.236  17.301  0.00  0.00     0.060 A 
HETATM    9  N   UNK N   1      36.198  10.459  15.338  0.00  0.00    -0.296 N 
ATOM     10  HN  UNK N   1      36.425   9.820  14.575  1.00  0.00     0.187 HD
HETATM   11  H   UNK N   1      36.034   9.201  16.976  0.00  0.00     0.187 HD
ENDROOT
BRANCH   6  12
HETATM   12  C   UNK N   1      36.201  12.576  13.992  0.00  0.00     0.136 A 
HETATM   13  N   UNK N   1      37.166  12.313  13.075  0.00  0.00    -0.339 N 
HETATM   14  C   UNK N   1      36.960  13.223  12.119  0.00  0.00     0.060 A 
HETATM   15  H   UNK N   1      37.858  11.612  13.106  0.00  0.00     0.167 HD
HETATM   16  C   UNK N   1      37.675  13.396  10.940  0.00  0.00     0.032 A 
HETATM   17  C   UNK N   1      35.901  14.009  12.454  0.00  0.00     0.060 A 
HETATM   18  C   UNK N   1      37.266  14.433  10.082  0.00  0.00     0.002 A 
HETATM   19  C   UNK N   1      36.165  15.254  10.427  0.00  0.00     0.002 A 
HETATM   20  C   UNK N   1      35.465  15.044  11.633  0.00  0.00     0.032 A 
HETATM   21  N   UNK N   1      35.404  13.618  13.639  0.00  0.00    -0.339 N 
ATOM     22  HN  UNK N   1      34.614  14.010  14.152  1.00  0.00     0.167 HD
ENDBRANCH   6  12
TORSDOF 1
ENDMDL
MODEL 9
REMARK VINA RESULT:      -6.3     20.193     21.971
REMARK  1 active torsions:
REMARK  status: ('A' for Active; 'I' for Inactive)
REMARK    1  A    between atoms: C_6  and  C_7 
ROOT
HETATM    1  C   UNK N   1      28.541  20.023  -8.203  0.00  0.00     0.032 A 
HETATM    2  C   UNK N   1      29.760  20.131  -7.502  0.00  0.00     0.002 A 
HETATM    3  C   UNK N   1      29.973  21.191  -6.589  0.00  0.00     0.001 A 
HETATM    4  C   UNK N   1      28.967  22.150  -6.370  0.00  0.00     0.016 A 
HETATM    5  C   UNK N   1      27.778  22.011  -7.079  0.00  0.00     0.024 A 
HETATM    6  C   UNK N   1      26.623  22.751  -7.102  0.00  0.00     0.104 A 
HETATM    7  N   UNK N   1      26.344  21.099  -8.498  0.00  0.00    -0.299 N 
HETATM    8  C   UNK N   1      27.573  20.992  -7.958  0.00  0.00     0.060 A 
HETATM    9  N   UNK N   1      25.761  22.177  -7.975  0.00  0.00    -0.296 N 
ATOM     10  HN  UNK N   1      24.823  22.513  -8.195  1.00  0.00     0.187 HD
HETATM   11  H   UNK N   1      25.948  20.489  -9.163  0.00  0.00     0.187 HD
ENDROOT
BRANCH   6  12
HETATM   12  C   UNK N   1      26.360  23.960  -6.317  0.00  0.00     0.136 A 
HETATM   13  N   UNK N   1      25.605  24.986  -6.785  0.00  0.00    -0.339 N 
HETATM   14  C   UNK N   1      25.610  25.873  -5.786  0.00  0.00     0.060 A 
HETATM   15  H   UNK N   1      25.157  25.060  -7.659  0.00  0.00     0.167 HD
HETATM   16  C   UNK N   1      24.983  27.112  -5.745  0.00  0.00     0.032 A 
HETATM   17  C   UNK N   1      26.347  25.392  -4.748  0.00  0.00     0.060 A 
HETATM   18  C   UNK N   1      25.133  27.875  -4.573  0.00  0.00     0.002 A 
HETATM   19  C   UNK N   1      25.900  27.378  -3.490  0.00  0.00     0.002 A 
HETATM   20  C   UNK N   1      26.520  26.115  -3.572  0.00  0.00     0.032 A 
HETATM   21  N   UNK N   1      26.833  24.179  -5.061  0.00  0.00    -0.339 N 
ATOM     22  HN  UNK N   1      27.419  23.568  -4.492  1.00  0.00     0.167 HD
ENDBRANCH   6  12
TORSDOF 1
ENDMDL
