MODEL 1
REMARK VINA RESULT:      -5.7      0.000      0.000
REMARK  7 active torsions:
REMARK  status: ('A' for Active; 'I' for Inactive)
REMARK    1  A    between atoms: C_1  and  C_2 
REMARK    2  A    between atoms: C_1  and  O_15 
REMARK    3  A    between atoms: C_4  and  O_17 
REMARK    4  A    between atoms: C_5  and  N_14 
REMARK    5  A    between atoms: C_6  and  O_7 
REMARK    6  A    between atoms: O_7  and  C_8 
REMARK    7  A    between atoms: C_8  and  C_9 
REMARK       I    between atoms: C_12  and  N_14 
ROOT
HETATM    1  C   UNK N   1      21.599  19.532   2.929  0.00  0.00     0.144 C 
HETATM    2  C   UNK N   1      20.654  19.194   2.028  0.00  0.00     0.050 C 
HETATM    3  C   UNK N   1      19.771  17.990   2.229  0.00  0.00     0.171 C 
HETATM    4  C   UNK N   1      20.330  17.046   3.324  0.00  0.00     0.172 C 
HETATM    5  C   UNK N   1      20.823  17.881   4.515  0.00  0.00     0.291 C 
HETATM    6  O   UNK N   1      21.769  18.792   4.058  0.00  0.00    -0.311 OA
ENDROOT
BRANCH   4   7
HETATM    7  N   UNK N   1      19.328  16.098   3.783  0.00  0.00    -0.349 N 
HETATM    8  C   UNK N   1      19.471  14.748   3.791  0.00  0.00     0.214 C 
HETATM    9  C   UNK N   1      20.745  14.089   3.372  0.00  0.00     0.117 C 
HETATM   10  O   UNK N   1      18.542  14.053   4.167  0.00  0.00    -0.274 OA
HETATM   11  H   UNK N   1      18.476  16.464   4.115  0.00  0.00     0.163 HD
ENDBRANCH   4   7
BRANCH   3  12
HETATM   12  O   UNK N   1      18.497  18.446   2.577  0.00  0.00    -0.389 OA
HETATM   13  H   UNK N   1      17.614  18.574   2.956  0.00  0.00     0.210 HD
ENDBRANCH   3  12
BRANCH   5  14
HETATM   14  O   UNK N   1      21.394  17.004   5.461  0.00  0.00    -0.358 OA
BRANCH  14  15
HETATM   15  C   UNK N   1      21.063  17.434   6.756  0.00  0.00     0.174 C 
BRANCH  15  16
HETATM   16  C   UNK N   1      19.967  16.560   7.348  0.00  0.00     0.001 C 
HETATM   17  C   UNK N   1      19.642  17.062   8.740  0.00  0.00     0.011 C 
HETATM   18  C   UNK N   1      20.420  15.114   7.445  0.00  0.00     0.011 C 
ENDBRANCH  15  16
ENDBRANCH  14  15
ENDBRANCH   5  14
BRANCH   1  19
HETATM   19  C   UNK N   1      22.456  20.713   2.700  0.00  0.00     0.200 C 
HETATM   20  O   UNK N   1      23.650  20.585   2.481  0.00  0.00    -0.645 OA
BRANCH  19  21
HETATM   21  O   UNK N   1      21.910  21.945   2.709  0.00  0.00    -0.771 OA
HETATM   22  H   UNK N   1      21.997  22.523   1.976  0.00  0.00     0.167 HD
ENDBRANCH  19  21
ENDBRANCH   1  19
TORSDOF 7
ENDMDL
MODEL 2
REMARK VINA RESULT:      -5.7     15.091     16.207
REMARK  7 active torsions:
REMARK  status: ('A' for Active; 'I' for Inactive)
REMARK    1  A    between atoms: C_1  and  C_2 
REMARK    2  A    between atoms: C_1  and  O_15 
REMARK    3  A    between atoms: C_4  and  O_17 
REMARK    4  A    between atoms: C_5  and  N_14 
REMARK    5  A    between atoms: C_6  and  O_7 
REMARK    6  A    between atoms: O_7  and  C_8 
REMARK    7  A    between atoms: C_8  and  C_9 
REMARK       I    between atoms: C_12  and  N_14 
ROOT
HETATM    1  C   UNK N   1      34.475  16.862   8.886  0.00  0.00     0.144 C 
HETATM    2  C   UNK N   1      33.323  16.161   8.882  0.00  0.00     0.050 C 
HETATM    3  C   UNK N   1      33.189  14.865   9.640  0.00  0.00     0.171 C 
HETATM    4  C   UNK N   1      34.571  14.299  10.057  0.00  0.00     0.172 C 
HETATM    5  C   UNK N   1      35.453  15.442  10.580  0.00  0.00     0.291 C 
HETATM    6  O   UNK N   1      35.549  16.419   9.594  0.00  0.00    -0.311 OA
ENDROOT
BRANCH   4   7
HETATM    7  N   UNK N   1      34.449  13.277  11.083  0.00  0.00    -0.349 N 
HETATM    8  C   UNK N   1      34.632  11.947  10.891  0.00  0.00     0.214 C 
HETATM    9  C   UNK N   1      35.057  11.394   9.569  0.00  0.00     0.117 C 
HETATM   10  O   UNK N   1      34.466  11.180  11.825  0.00  0.00    -0.274 OA
HETATM   11  H   UNK N   1      34.213  13.574  11.993  0.00  0.00     0.163 HD
ENDBRANCH   4   7
BRANCH   3  12
HETATM   12  O   UNK N   1      32.397  15.108  10.765  0.00  0.00    -0.389 OA
HETATM   13  H   UNK N   1      31.854  15.044  11.566  0.00  0.00     0.210 HD
ENDBRANCH   3  12
BRANCH   5  14
HETATM   14  O   UNK N   1      36.726  14.913  10.881  0.00  0.00    -0.358 OA
BRANCH  14  15
HETATM   15  C   UNK N   1      37.358  14.513   9.693  0.00  0.00     0.174 C 
BRANCH  15  16
HETATM   16  C   UNK N   1      38.459  13.504   9.984  0.00  0.00     0.001 C 
HETATM   17  C   UNK N   1      38.593  12.571   8.798  0.00  0.00     0.011 C 
HETATM   18  C   UNK N   1      38.128  12.680  11.216  0.00  0.00     0.011 C 
ENDBRANCH  15  16
ENDBRANCH  14  15
ENDBRANCH   5  14
BRANCH   1  19
HETATM   19  C   UNK N   1      34.580  18.124   8.125  0.00  0.00     0.200 C 
HETATM   20  O   UNK N   1      33.998  18.262   7.061  0.00  0.00    -0.645 OA
BRANCH  19  21
HETATM   21  O   UNK N   1      35.306  19.145   8.623  0.00  0.00    -0.771 OA
HETATM   22  H   UNK N   1      35.207  20.018   8.297  0.00  0.00     0.167 HD
ENDBRANCH  19  21
ENDBRANCH   1  19
TORSDOF 7
ENDMDL
MODEL 3
REMARK VINA RESULT:      -5.6     12.828     13.933
REMARK  7 active torsions:
REMARK  status: ('A' for Active; 'I' for Inactive)
REMARK    1  A    between atoms: C_1  and  C_2 
REMARK    2  A    between atoms: C_1  and  O_15 
REMARK    3  A    between atoms: C_4  and  O_17 
REMARK    4  A    between atoms: C_5  and  N_14 
REMARK    5  A    between atoms: C_6  and  O_7 
REMARK    6  A    between atoms: O_7  and  C_8 
REMARK    7  A    between atoms: C_8  and  C_9 
REMARK       I    between atoms: C_12  and  N_14 
ROOT
HETATM    1  C   UNK N   1      29.465  23.174  -3.405  0.00  0.00     0.144 C 
HETATM    2  C   UNK N   1      29.758  22.724  -4.641  0.00  0.00     0.050 C 
HETATM    3  C   UNK N   1      28.871  23.030  -5.821  0.00  0.00     0.171 C 
HETATM    4  C   UNK N   1      27.480  23.548  -5.372  0.00  0.00     0.172 C 
HETATM    5  C   UNK N   1      27.657  24.553  -4.225  0.00  0.00     0.291 C 
HETATM    6  O   UNK N   1      28.357  23.935  -3.194  0.00  0.00    -0.311 OA
ENDROOT
BRANCH   4   7
HETATM    7  N   UNK N   1      26.764  24.185  -6.465  0.00  0.00    -0.349 N 
HETATM    8  C   UNK N   1      25.812  23.593  -7.229  0.00  0.00     0.214 C 
HETATM    9  C   UNK N   1      25.348  22.196  -6.967  0.00  0.00     0.117 C 
HETATM   10  O   UNK N   1      25.305  24.221  -8.144  0.00  0.00    -0.274 OA
HETATM   11  H   UNK N   1      26.987  25.123  -6.668  0.00  0.00     0.163 HD
ENDBRANCH   4   7
BRANCH   3  12
HETATM   12  O   UNK N   1      29.521  23.982  -6.609  0.00  0.00    -0.389 OA
HETATM   13  H   UNK N   1      29.821  24.790  -7.053  0.00  0.00     0.210 HD
ENDBRANCH   3  12
BRANCH   5  14
HETATM   14  O   UNK N   1      26.376  24.951  -3.787  0.00  0.00    -0.358 OA
BRANCH  14  15
HETATM   15  C   UNK N   1      26.421  26.289  -3.365  0.00  0.00     0.174 C 
BRANCH  15  16
HETATM   16  C   UNK N   1      26.181  27.230  -4.537  0.00  0.00     0.001 C 
HETATM   17  C   UNK N   1      25.993  28.635  -4.004  0.00  0.00     0.011 C 
HETATM   18  C   UNK N   1      24.936  26.830  -5.308  0.00  0.00     0.011 C 
ENDBRANCH  15  16
ENDBRANCH  14  15
ENDBRANCH   5  14
BRANCH   1  19
HETATM   19  C   UNK N   1      30.349  22.851  -2.266  0.00  0.00     0.200 C 
HETATM   20  O   UNK N   1      30.014  23.111  -1.122  0.00  0.00    -0.645 OA
BRANCH  19  21
HETATM   21  O   UNK N   1      31.528  22.238  -2.490  0.00  0.00    -0.771 OA
HETATM   22  H   UNK N   1      31.849  21.572  -1.915  0.00  0.00     0.167 HD
ENDBRANCH  19  21
ENDBRANCH   1  19
TORSDOF 7
ENDMDL
MODEL 4
REMARK VINA RESULT:      -5.6     11.254     12.547
REMARK  7 active torsions:
REMARK  status: ('A' for Active; 'I' for Inactive)
REMARK    1  A    between atoms: C_1  and  C_2 
REMARK    2  A    between atoms: C_1  and  O_15 
REMARK    3  A    between atoms: C_4  and  O_17 
REMARK    4  A    between atoms: C_5  and  N_14 
REMARK    5  A    between atoms: C_6  and  O_7 
REMARK    6  A    between atoms: O_7  and  C_8 
REMARK    7  A    between atoms: C_8  and  C_9 
REMARK       I    between atoms: C_12  and  N_14 
ROOT
HETATM    1  C   UNK N   1      34.085  16.813   9.036  0.00  0.00     0.144 C 
HETATM    2  C   UNK N   1      34.631  16.677   7.811  0.00  0.00     0.050 C 
HETATM    3  C   UNK N   1      33.800  16.803   6.561  0.00  0.00     0.171 C 
HETATM    4  C   UNK N   1      32.283  16.715   6.870  0.00  0.00     0.172 C 
HETATM    5  C   UNK N   1      31.970  17.546   8.123  0.00  0.00     0.291 C 
HETATM    6  O   UNK N   1      32.758  17.085   9.172  0.00  0.00    -0.311 OA
ENDROOT
BRANCH   4   7
HETATM    7  N   UNK N   1      31.478  17.196   5.760  0.00  0.00    -0.349 N 
HETATM    8  C   UNK N   1      30.483  16.500   5.153  0.00  0.00     0.214 C 
HETATM    9  C   UNK N   1      30.066  15.147   5.630  0.00  0.00     0.117 C 
HETATM   10  O   UNK N   1      29.900  16.998   4.204  0.00  0.00    -0.274 OA
HETATM   11  H   UNK N   1      31.668  18.101   5.419  0.00  0.00     0.163 HD
ENDBRANCH   4   7
BRANCH   3  12
HETATM   12  O   UNK N   1      34.111  18.026   5.962  0.00  0.00    -0.389 OA
HETATM   13  H   UNK N   1      34.376  18.739   5.361  0.00  0.00     0.210 HD
ENDBRANCH   3  12
BRANCH   5  14
HETATM   14  O   UNK N   1      30.601  17.388   8.424  0.00  0.00    -0.358 OA
BRANCH  14  15
HETATM   15  C   UNK N   1      30.099  18.584   8.960  0.00  0.00     0.174 C 
BRANCH  15  16
HETATM   16  C   UNK N   1      28.588  18.657   8.793  0.00  0.00     0.001 C 
HETATM   17  C   UNK N   1      27.986  17.331   9.211  0.00  0.00     0.011 C 
HETATM   18  C   UNK N   1      28.216  18.926   7.345  0.00  0.00     0.011 C 
ENDBRANCH  15  16
ENDBRANCH  14  15
ENDBRANCH   5  14
BRANCH   1  19
HETATM   19  C   UNK N   1      34.923  16.675  10.244  0.00  0.00     0.200 C 
HETATM   20  O   UNK N   1      35.901  17.387  10.410  0.00  0.00    -0.645 OA
BRANCH  19  21
HETATM   21  O   UNK N   1      34.592  15.770  11.187  0.00  0.00    -0.771 OA
HETATM   22  H   UNK N   1      34.905  14.888  11.148  0.00  0.00     0.167 HD
ENDBRANCH  19  21
ENDBRANCH   1  19
TORSDOF 7
ENDMDL
MODEL 5
REMARK VINA RESULT:      -5.6      3.945      5.495
REMARK  7 active torsions:
REMARK  status: ('A' for Active; 'I' for Inactive)
REMARK    1  A    between atoms: C_1  and  C_2 
REMARK    2  A    between atoms: C_1  and  O_15 
REMARK    3  A    between atoms: C_4  and  O_17 
REMARK    4  A    between atoms: C_5  and  N_14 
REMARK    5  A    between atoms: C_6  and  O_7 
REMARK    6  A    between atoms: O_7  and  C_8 
REMARK    7  A    between atoms: C_8  and  C_9 
REMARK       I    between atoms: C_12  and  N_14 
ROOT
HETATM    1  C   UNK N   1      22.420  19.683   3.338  0.00  0.00     0.144 C 
HETATM    2  C   UNK N   1      21.828  18.740   4.099  0.00  0.00     0.050 C 
HETATM    3  C   UNK N   1      22.637  17.787   4.940  0.00  0.00     0.171 C 
HETATM    4  C   UNK N   1      24.131  17.783   4.526  0.00  0.00     0.172 C 
HETATM    5  C   UNK N   1      24.597  19.226   4.285  0.00  0.00     0.291 C 
HETATM    6  O   UNK N   1      23.775  19.805   3.324  0.00  0.00    -0.311 OA
ENDROOT
BRANCH   4   7
HETATM    7  N   UNK N   1      24.972  17.170   5.541  0.00  0.00    -0.349 N 
HETATM    8  C   UNK N   1      25.843  16.151   5.327  0.00  0.00     0.214 C 
HETATM    9  C   UNK N   1      26.075  15.587   3.962  0.00  0.00     0.117 C 
HETATM   10  O   UNK N   1      26.469  15.694   6.269  0.00  0.00    -0.274 OA
HETATM   11  H   UNK N   1      24.904  17.521   6.459  0.00  0.00     0.163 HD
ENDBRANCH   4   7
BRANCH   3  12
HETATM   12  O   UNK N   1      22.498  18.171   6.276  0.00  0.00    -0.389 OA
HETATM   13  H   UNK N   1      22.239  18.581   7.115  0.00  0.00     0.210 HD
ENDBRANCH   3  12
BRANCH   5  14
HETATM   14  O   UNK N   1      25.934  19.189   3.838  0.00  0.00    -0.358 OA
BRANCH  14  15
HETATM   15  C   UNK N   1      26.611  20.333   4.290  0.00  0.00     0.174 C 
BRANCH  15  16
HETATM   16  C   UNK N   1      26.756  20.307   5.805  0.00  0.00     0.001 C 
HETATM   17  C   UNK N   1      27.148  21.690   6.281  0.00  0.00     0.011 C 
HETATM   18  C   UNK N   1      27.831  19.322   6.230  0.00  0.00     0.011 C 
ENDBRANCH  15  16
ENDBRANCH  14  15
ENDBRANCH   5  14
BRANCH   1  19
HETATM   19  C   UNK N   1      21.601  20.598   2.517  0.00  0.00     0.200 C 
HETATM   20  O   UNK N   1      21.725  20.626   1.303  0.00  0.00    -0.645 OA
BRANCH  19  21
HETATM   21  O   UNK N   1      20.689  21.393   3.111  0.00  0.00    -0.771 OA
HETATM   22  H   UNK N   1      19.771  21.280   2.960  0.00  0.00     0.167 HD
ENDBRANCH  19  21
ENDBRANCH   1  19
TORSDOF 7
ENDMDL
MODEL 6
REMARK VINA RESULT:      -5.5      4.440      6.458
REMARK  7 active torsions:
REMARK  status: ('A' for Active; 'I' for Inactive)
REMARK    1  A    between atoms: C_1  and  C_2 
REMARK    2  A    between atoms: C_1  and  O_15 
REMARK    3  A    between atoms: C_4  and  O_17 
REMARK    4  A    between atoms: C_5  and  N_14 
REMARK    5  A    between atoms: C_6  and  O_7 
REMARK    6  A    between atoms: O_7  and  C_8 
REMARK    7  A    between atoms: C_8  and  C_9 
REMARK       I    between atoms: C_12  and  N_14 
ROOT
HETATM    1  C   UNK N   1      19.940  16.057   8.333  0.00  0.00     0.144 C 
HETATM    2  C   UNK N   1      20.798  16.602   7.447  0.00  0.00     0.050 C 
HETATM    3  C   UNK N   1      21.925  15.801   6.848  0.00  0.00     0.171 C 
HETATM    4  C   UNK N   1      22.180  14.492   7.638  0.00  0.00     0.172 C 
HETATM    5  C   UNK N   1      20.835  13.838   7.987  0.00  0.00     0.291 C 
HETATM    6  O   UNK N   1      20.067  14.752   8.700  0.00  0.00    -0.311 OA
ENDROOT
BRANCH   4   7
HETATM    7  N   UNK N   1      22.989  13.552   6.878  0.00  0.00    -0.349 N 
HETATM    8  C   UNK N   1      24.307  13.307   7.085  0.00  0.00     0.214 C 
HETATM    9  C   UNK N   1      25.064  13.958   8.197  0.00  0.00     0.117 C 
HETATM   10  O   UNK N   1      24.888  12.520   6.357  0.00  0.00    -0.274 OA
HETATM   11  H   UNK N   1      22.544  13.053   6.154  0.00  0.00     0.163 HD
ENDBRANCH   4   7
BRANCH   3  12
HETATM   12  O   UNK N   1      21.592  15.519   5.521  0.00  0.00    -0.389 OA
HETATM   13  H   UNK N   1      21.205  15.179   4.699  0.00  0.00     0.210 HD
ENDBRANCH   3  12
BRANCH   5  14
HETATM   14  O   UNK N   1      21.094  12.691   8.768  0.00  0.00    -0.358 OA
BRANCH  14  15
HETATM   15  C   UNK N   1      21.275  13.070  10.108  0.00  0.00     0.174 C 
BRANCH  15  16
HETATM   16  C   UNK N   1      22.573  12.496  10.657  0.00  0.00     0.001 C 
HETATM   17  C   UNK N   1      22.988  11.318   9.800  0.00  0.00     0.011 C 
HETATM   18  C   UNK N   1      22.394  12.019  12.087  0.00  0.00     0.011 C 
ENDBRANCH  15  16
ENDBRANCH  14  15
ENDBRANCH   5  14
BRANCH   1  19
HETATM   19  C   UNK N   1      18.850  16.869   8.910  0.00  0.00     0.200 C 
HETATM   20  O   UNK N   1      17.805  16.349   9.266  0.00  0.00    -0.645 OA
BRANCH  19  21
HETATM   21  O   UNK N   1      19.020  18.197   9.070  0.00  0.00    -0.771 OA
HETATM   22  H   UNK N   1      18.351  18.807   8.828  0.00  0.00     0.167 HD
ENDBRANCH  19  21
ENDBRANCH   1  19
TORSDOF 7
ENDMDL
MODEL 7
REMARK VINA RESULT:      -5.5     21.196     23.842
REMARK  7 active torsions:
REMARK  status: ('A' for Active; 'I' for Inactive)
REMARK    1  A    between atoms: C_1  and  C_2 
REMARK    2  A    between atoms: C_1  and  O_15 
REMARK    3  A    between atoms: C_4  and  O_17 
REMARK    4  A    between atoms: C_5  and  N_14 
REMARK    5  A    between atoms: C_6  and  O_7 
REMARK    6  A    between atoms: O_7  and  C_8 
REMARK    7  A    between atoms: C_8  and  C_9 
REMARK       I    between atoms: C_12  and  N_14 
ROOT
HETATM    1  C   UNK N   1      42.663  20.785   3.001  0.00  0.00     0.144 C 
HETATM    2  C   UNK N   1      43.881  20.729   3.578  0.00  0.00     0.050 C 
HETATM    3  C   UNK N   1      44.798  21.925   3.595  0.00  0.00     0.171 C 
HETATM    4  C   UNK N   1      44.343  23.010   2.586  0.00  0.00     0.172 C 
HETATM    5  C   UNK N   1      42.818  23.174   2.666  0.00  0.00     0.291 C 
HETATM    6  O   UNK N   1      42.225  21.938   2.428  0.00  0.00    -0.311 OA
ENDROOT
BRANCH   4   7
HETATM    7  N   UNK N   1      44.978  24.292   2.848  0.00  0.00    -0.349 N 
HETATM    8  C   UNK N   1      45.752  24.977   1.970  0.00  0.00     0.214 C 
HETATM    9  C   UNK N   1      45.980  24.491   0.575  0.00  0.00     0.117 C 
HETATM   10  O   UNK N   1      46.262  26.029   2.319  0.00  0.00    -0.274 OA
HETATM   11  H   UNK N   1      44.835  24.695   3.736  0.00  0.00     0.163 HD
ENDBRANCH   4   7
BRANCH   3  12
HETATM   12  O   UNK N   1      44.810  22.436   4.895  0.00  0.00    -0.389 OA
HETATM   13  H   UNK N   1      44.591  22.826   5.756  0.00  0.00     0.210 HD
ENDBRANCH   3  12
BRANCH   5  14
HETATM   14  O   UNK N   1      42.424  24.110   1.687  0.00  0.00    -0.358 OA
BRANCH  14  15
HETATM   15  C   UNK N   1      41.076  23.901   1.356  0.00  0.00     0.174 C 
BRANCH  15  16
HETATM   16  C   UNK N   1      40.773  24.446  -0.033  0.00  0.00     0.001 C 
HETATM   17  C   UNK N   1      40.043  25.765   0.109  0.00  0.00     0.011 C 
HETATM   18  C   UNK N   1      39.894  23.484  -0.813  0.00  0.00     0.011 C 
ENDBRANCH  15  16
ENDBRANCH  14  15
ENDBRANCH   5  14
BRANCH   1  19
HETATM   19  C   UNK N   1      41.790  19.593   2.991  0.00  0.00     0.200 C 
HETATM   20  O   UNK N   1      40.863  19.492   3.779  0.00  0.00    -0.645 OA
BRANCH  19  21
HETATM   21  O   UNK N   1      42.003  18.617   2.086  0.00  0.00    -0.771 OA
HETATM   22  H   UNK N   1      42.790  18.586   1.579  0.00  0.00     0.167 HD
ENDBRANCH  19  21
ENDBRANCH   1  19
TORSDOF 7
ENDMDL
MODEL 8
REMARK VINA RESULT:      -5.5      2.406      3.766
REMARK  7 active torsions:
REMARK  status: ('A' for Active; 'I' for Inactive)
REMARK    1  A    between atoms: C_1  and  C_2 
REMARK    2  A    between atoms: C_1  and  O_15 
REMARK    3  A    between atoms: C_4  and  O_17 
REMARK    4  A    between atoms: C_5  and  N_14 
REMARK    5  A    between atoms: C_6  and  O_7 
REMARK    6  A    between atoms: O_7  and  C_8 
REMARK    7  A    between atoms: C_8  and  C_9 
REMARK       I    between atoms: C_12  and  N_14 
ROOT
HETATM    1  C   UNK N   1      20.999  19.535   2.080  0.00  0.00     0.144 C 
HETATM    2  C   UNK N   1      20.155  18.501   1.886  0.00  0.00     0.050 C 
HETATM    3  C   UNK N   1      20.191  17.281   2.770  0.00  0.00     0.171 C 
HETATM    4  C   UNK N   1      21.496  17.216   3.605  0.00  0.00     0.172 C 
HETATM    5  C   UNK N   1      21.815  18.612   4.160  0.00  0.00     0.291 C 
HETATM    6  O   UNK N   1      21.902  19.505   3.097  0.00  0.00    -0.311 OA
ENDROOT
BRANCH   4   7
HETATM    7  N   UNK N   1      21.385  16.274   4.707  0.00  0.00    -0.349 N 
HETATM    8  C   UNK N   1      22.101  15.129   4.834  0.00  0.00     0.214 C 
HETATM    9  C   UNK N   1      23.157  14.747   3.846  0.00  0.00     0.117 C 
HETATM   10  O   UNK N   1      21.893  14.398   5.788  0.00  0.00    -0.274 OA
HETATM   11  H   UNK N   1      20.738  16.484   5.420  0.00  0.00     0.163 HD
ENDBRANCH   4   7
BRANCH   3  12
HETATM   12  O   UNK N   1      19.073  17.324   3.605  0.00  0.00    -0.389 OA
HETATM   13  H   UNK N   1      18.226  17.520   4.036  0.00  0.00     0.210 HD
ENDBRANCH   3  12
BRANCH   5  14
HETATM   14  O   UNK N   1      23.042  18.541   4.851  0.00  0.00    -0.358 OA
BRANCH  14  15
HETATM   15  C   UNK N   1      24.095  18.455   3.926  0.00  0.00     0.174 C 
BRANCH  15  16
HETATM   16  C   UNK N   1      25.114  19.559   4.170  0.00  0.00     0.001 C 
HETATM   17  C   UNK N   1      25.289  20.353   2.892  0.00  0.00     0.011 C 
HETATM   18  C   UNK N   1      26.459  18.977   4.569  0.00  0.00     0.011 C 
ENDBRANCH  15  16
ENDBRANCH  14  15
ENDBRANCH   5  14
BRANCH   1  19
HETATM   19  C   UNK N   1      20.946  20.714   1.192  0.00  0.00     0.200 C 
HETATM   20  O   UNK N   1      21.058  20.590  -0.017  0.00  0.00    -0.645 OA
BRANCH  19  21
HETATM   21  O   UNK N   1      20.748  21.938   1.719  0.00  0.00    -0.771 OA
HETATM   22  H   UNK N   1      21.095  22.171   2.558  0.00  0.00     0.167 HD
ENDBRANCH  19  21
ENDBRANCH   1  19
TORSDOF 7
ENDMDL
MODEL 9
REMARK VINA RESULT:      -5.5     17.341     18.747
REMARK  7 active torsions:
REMARK  status: ('A' for Active; 'I' for Inactive)
REMARK    1  A    between atoms: C_1  and  C_2 
REMARK    2  A    between atoms: C_1  and  O_15 
REMARK    3  A    between atoms: C_4  and  O_17 
REMARK    4  A    between atoms: C_5  and  N_14 
REMARK    5  A    between atoms: C_6  and  O_7 
REMARK    6  A    between atoms: O_7  and  C_8 
REMARK    7  A    between atoms: C_8  and  C_9 
REMARK       I    between atoms: C_12  and  N_14 
ROOT
HETATM    1  C   UNK N   1      35.979  14.151  11.889  0.00  0.00     0.144 C 
HETATM    2  C   UNK N   1      36.775  13.193  11.373  0.00  0.00     0.050 C 
HETATM    3  C   UNK N   1      36.796  11.798  11.942  0.00  0.00     0.171 C 
HETATM    4  C   UNK N   1      36.131  11.739  13.341  0.00  0.00     0.172 C 
HETATM    5  C   UNK N   1      34.843  12.575  13.328  0.00  0.00     0.291 C 
HETATM    6  O   UNK N   1      35.158  13.873  12.938  0.00  0.00    -0.311 OA
ENDROOT
BRANCH   4   7
HETATM    7  N   UNK N   1      35.814  10.375  13.731  0.00  0.00    -0.349 N 
HETATM    8  C   UNK N   1      36.624   9.558  14.451  0.00  0.00     0.214 C 
HETATM    9  C   UNK N   1      37.940  10.024  14.984  0.00  0.00     0.117 C 
HETATM   10  O   UNK N   1      36.262   8.417  14.687  0.00  0.00    -0.274 OA
HETATM   11  H   UNK N   1      34.942  10.014  13.451  0.00  0.00     0.163 HD
ENDBRANCH   4   7
BRANCH   3  12
HETATM   12  O   UNK N   1      36.130  10.960  11.044  0.00  0.00    -0.389 OA
HETATM   13  H   UNK N   1      35.477  10.465  10.525  0.00  0.00     0.210 HD
ENDBRANCH   3  12
BRANCH   5  14
HETATM   14  O   UNK N   1      34.300  12.566  14.630  0.00  0.00    -0.358 OA
BRANCH  14  15
HETATM   15  C   UNK N   1      35.199  13.180  15.516  0.00  0.00     0.174 C 
BRANCH  15  16
HETATM   16  C   UNK N   1      34.838  12.854  16.958  0.00  0.00     0.001 C 
HETATM   17  C   UNK N   1      35.332  13.974  17.850  0.00  0.00     0.011 C 
HETATM   18  C   UNK N   1      35.490  11.556  17.400  0.00  0.00     0.011 C 
ENDBRANCH  15  16
ENDBRANCH  14  15
ENDBRANCH   5  14
BRANCH   1  19
HETATM   19  C   UNK N   1      35.987  15.513  11.316  0.00  0.00     0.200 C 
HETATM   20  O   UNK N   1      34.965  16.178  11.275  0.00  0.00    -0.645 OA
BRANCH  19  21
HETATM   21  O   UNK N   1      37.141  16.037  10.856  0.00  0.00    -0.771 OA
HETATM   22  H   UNK N   1      37.368  16.931  11.017  0.00  0.00     0.167 HD
ENDBRANCH  19  21
ENDBRANCH   1  19
TORSDOF 7
ENDMDL
