REMARK  7 active torsions:
REMARK  status: ('A' for Active; 'I' for Inactive)
REMARK    1  A    between atoms: C_1  and  C_2 
REMARK    2  A    between atoms: C_1  and  O_15 
REMARK    3  A    between atoms: C_4  and  O_17 
REMARK    4  A    between atoms: C_5  and  N_14 
REMARK    5  A    between atoms: C_6  and  O_7 
REMARK    6  A    between atoms: O_7  and  C_8 
REMARK    7  A    between atoms: C_8  and  C_9 
REMARK       I    between atoms: C_12  and  N_14 
ROOT
HETATM    1  C   UNK N   1       1.743  -1.537   0.027  0.00  0.00     0.144 C 
HETATM    2  C   UNK N   1       0.667  -2.290  -0.279  0.00  0.00     0.050 C 
HETATM    3  C   UNK N   1      -0.709  -1.686  -0.392  0.00  0.00     0.171 C 
HETATM    4  C   UNK N   1      -0.767  -0.271   0.239  0.00  0.00     0.172 C 
HETATM    5  C   UNK N   1       0.486   0.519  -0.165  0.00  0.00     0.291 C 
HETATM    6  O   UNK N   1       1.611  -0.198   0.229  0.00  0.00    -0.311 OA
ENDROOT
BRANCH   4   7
HETATM    7  N   UNK N   1      -1.952   0.459  -0.181  0.00  0.00    -0.349 N 
HETATM    8  C   UNK N   1      -3.229   0.133   0.142  0.00  0.00     0.214 C 
HETATM    9  C   UNK N   1      -3.544  -1.014   1.047  0.00  0.00     0.117 C 
HETATM   10  O   UNK N   1      -4.146   0.804  -0.302  0.00  0.00    -0.274 OA
HETATM   11  H   UNK N   1      -1.818   1.255  -0.746  0.00  0.00     0.163 HD
ENDBRANCH   4   7
BRANCH   3  12
HETATM   12  O   UNK N   1      -1.044  -1.635  -1.747  0.00  0.00    -0.389 OA
HETATM   13  H   UNK N   1      -1.130  -1.417  -2.688  0.00  0.00     0.210 HD
ENDBRANCH   3  12
BRANCH   5  14
HETATM   14  O   UNK N   1       0.444   1.772   0.482  0.00  0.00    -0.358 OA
BRANCH  14  15
HETATM   15  C   UNK N   1       1.602   2.500   0.166  0.00  0.00     0.174 C 
BRANCH  15  16
HETATM   16  C   UNK N   1       1.240   3.871  -0.387  0.00  0.00     0.001 C 
HETATM   17  C   UNK N   1       2.504   4.696  -0.514  0.00  0.00     0.011 C 
HETATM   18  C   UNK N   1       0.278   4.593   0.540  0.00  0.00     0.011 C 
ENDBRANCH  15  16
ENDBRANCH  14  15
ENDBRANCH   5  14
BRANCH   1  19
HETATM   19  C   UNK N   1       3.078  -2.159   0.140  0.00  0.00     0.200 C 
HETATM   20  O   UNK N   1       3.225  -3.358  -0.035  0.00  0.00    -0.645 OA
BRANCH  19  21
HETATM   21  O   UNK N   1       4.151  -1.391   0.415  0.00  0.00    -0.771 OA
HETATM   22  H   UNK N   1       4.986  -1.770   0.607  0.00  0.00     0.167 HD
ENDBRANCH  19  21
ENDBRANCH   1  19
TORSDOF 7
