MODEL 1
REMARK VINA RESULT:      -7.0      0.000      0.000
REMARK  6 active torsions:
REMARK  status: ('A' for Active; 'I' for Inactive)
REMARK    1  A    between atoms: C_1  and  C_2 
REMARK    2  A    between atoms: C_2  and  C_10 
REMARK    3  A    between atoms: C_10  and  N_11 
REMARK    4  A    between atoms: N_11  and  C_12 
REMARK    5  A    between atoms: C_12  and  N_13 
REMARK    6  A    between atoms: N_13  and  C_17 
ROOT
HETATM    1  C   UNK N   1      36.090  14.707  10.892  0.00  0.00     0.034 A 
HETATM    2  C   UNK N   1      35.750  16.022  11.198  0.00  0.00     0.031 A 
HETATM    3  C   UNK N   1      35.169  16.827  10.219  0.00  0.00     0.025 A 
HETATM    4  C   UNK N   1      34.962  16.327   8.928  0.00  0.00     0.044 A 
HETATM    5  C   UNK N   1      35.268  14.997   8.634  0.00  0.00     0.025 A 
HETATM    6  C   UNK N   1      35.836  14.191   9.614  0.00  0.00     0.031 A 
HETATM    7  C   UNK N   1      34.537  17.223   7.891  0.00  0.00     0.099 C 
HETATM    8  N   UNK N   1      34.194  17.978   7.085  0.00  0.00    -0.191 NA
ENDROOT
BRANCH   1   9
HETATM    9  N   UNK N   1      37.012  14.037  11.713  0.00  0.00    -0.333 N 
HETATM   10  H   UNK N   1      37.966  14.272  11.677  0.00  0.00     0.168 HD
BRANCH   9  11
HETATM   11  C   UNK N   1      36.556  13.010  12.602  0.00  0.00     0.177 C 
HETATM   12  S   UNK N   1      36.676  11.610  12.264  0.00  0.00    -0.040 SA
BRANCH  11  13
HETATM   13  N   UNK N   1      35.623  13.338  13.577  0.00  0.00    -0.323 N 
HETATM   14  H   UNK N   1      34.700  13.563  13.319  0.00  0.00     0.169 HD
BRANCH  13  15
HETATM   15  C   UNK N   1      35.997  13.348  14.929  0.00  0.00     0.081 C 
HETATM   16  N   UNK N   1      37.137  13.819  15.296  0.00  0.00    -0.389 N 
HETATM   17  H   UNK N   1      37.731  14.085  16.036  0.00  0.00     0.157 HD
ATOM     18  HN  UNK N   1      37.659  13.997  14.438  1.00  0.00     0.157 HD
BRANCH  15  19
HETATM   19  C   UNK N   1      34.876  13.287  15.866  0.00  0.00     0.118 C 
BRANCH  19  20
HETATM   20  C   UNK N   1      34.984  12.358  17.016  0.00  0.00    -0.008 A 
HETATM   21  C   UNK N   1      34.924  10.960  16.868  0.00  0.00     0.042 A 
HETATM   22 Cl   UNK N   1      34.508  10.226  15.319  0.00  0.00    -0.084 Cl
HETATM   23  C   UNK N   1      35.207  10.144  17.970  0.00  0.00     0.024 A 
HETATM   24  C   UNK N   1      35.536  10.722  19.204  0.00  0.00     0.003 A 
HETATM   25  C   UNK N   1      35.519  12.114  19.355  0.00  0.00     0.024 A 
HETATM   26  C   UNK N   1      35.233  12.930  18.259  0.00  0.00     0.042 A 
HETATM   27 Cl   UNK N   1      35.158  14.687  18.421  0.00  0.00    -0.084 Cl
ENDBRANCH  19  20
ENDBRANCH  15  19
ENDBRANCH  13  15
ENDBRANCH  11  13
ENDBRANCH   9  11
ENDBRANCH   1   9
TORSDOF 6
ENDMDL
MODEL 2
REMARK VINA RESULT:      -6.9      1.247      2.308
REMARK  6 active torsions:
REMARK  status: ('A' for Active; 'I' for Inactive)
REMARK    1  A    between atoms: C_1  and  C_2 
REMARK    2  A    between atoms: C_2  and  C_10 
REMARK    3  A    between atoms: C_10  and  N_11 
REMARK    4  A    between atoms: N_11  and  C_12 
REMARK    5  A    between atoms: C_12  and  N_13 
REMARK    6  A    between atoms: N_13  and  C_17 
ROOT
HETATM    1  C   UNK N   1      34.151  14.905  10.700  0.00  0.00     0.034 A 
HETATM    2  C   UNK N   1      34.884  16.088  10.655  0.00  0.00     0.031 A 
HETATM    3  C   UNK N   1      34.810  16.899   9.523  0.00  0.00     0.025 A 
HETATM    4  C   UNK N   1      34.032  16.509   8.427  0.00  0.00     0.044 A 
HETATM    5  C   UNK N   1      33.268  15.342   8.489  0.00  0.00     0.025 A 
HETATM    6  C   UNK N   1      33.332  14.540   9.623  0.00  0.00     0.031 A 
HETATM    7  C   UNK N   1      34.115  17.261   7.208  0.00  0.00     0.099 C 
HETATM    8  N   UNK N   1      34.211  17.894   6.245  0.00  0.00    -0.191 NA
ENDROOT
BRANCH   1   9
HETATM    9  N   UNK N   1      34.517  13.915  11.627  0.00  0.00    -0.333 N 
HETATM   10  H   UNK N   1      33.864  13.232  11.902  0.00  0.00     0.168 HD
BRANCH   9  11
HETATM   11  C   UNK N   1      35.842  13.906  12.171  0.00  0.00     0.177 C 
HETATM   12  S   UNK N   1      36.849  12.987  11.691  0.00  0.00    -0.040 SA
BRANCH  11  13
HETATM   13  N   UNK N   1      36.051  14.458  13.428  0.00  0.00    -0.323 N 
HETATM   14  H   UNK N   1      36.055  15.436  13.543  0.00  0.00     0.169 HD
BRANCH  13  15
HETATM   15  C   UNK N   1      36.255  13.621  14.536  0.00  0.00     0.081 C 
HETATM   16  N   UNK N   1      37.353  13.669  15.206  0.00  0.00    -0.389 N 
HETATM   17  H   UNK N   1      37.857  13.381  16.002  0.00  0.00     0.157 HD
ATOM     18  HN  UNK N   1      37.980  14.274  14.677  1.00  0.00     0.157 HD
BRANCH  15  19
HETATM   19  C   UNK N   1      35.026  13.117  15.147  0.00  0.00     0.118 C 
BRANCH  19  20
HETATM   20  C   UNK N   1      35.150  12.083  16.201  0.00  0.00    -0.008 A 
HETATM   21  C   UNK N   1      35.226  12.403  17.570  0.00  0.00     0.042 A 
HETATM   22 Cl   UNK N   1      35.386  14.076  18.106  0.00  0.00    -0.084 Cl
HETATM   23  C   UNK N   1      35.166  11.373  18.516  0.00  0.00     0.024 A 
HETATM   24  C   UNK N   1      35.040  10.042  18.096  0.00  0.00     0.003 A 
HETATM   25  C   UNK N   1      35.041   9.733  16.730  0.00  0.00     0.024 A 
HETATM   26  C   UNK N   1      35.105  10.758  15.784  0.00  0.00     0.042 A 
HETATM   27 Cl   UNK N   1      35.153  10.405  14.054  0.00  0.00    -0.084 Cl
ENDBRANCH  19  20
ENDBRANCH  15  19
ENDBRANCH  13  15
ENDBRANCH  11  13
ENDBRANCH   9  11
ENDBRANCH   1   9
TORSDOF 6
ENDMDL
MODEL 3
REMARK VINA RESULT:      -6.8     22.951     24.985
REMARK  6 active torsions:
REMARK  status: ('A' for Active; 'I' for Inactive)
REMARK    1  A    between atoms: C_1  and  C_2 
REMARK    2  A    between atoms: C_2  and  C_10 
REMARK    3  A    between atoms: C_10  and  N_11 
REMARK    4  A    between atoms: N_11  and  C_12 
REMARK    5  A    between atoms: C_12  and  N_13 
REMARK    6  A    between atoms: N_13  and  C_17 
ROOT
HETATM    1  C   UNK N   1      28.742  25.380  -4.396  0.00  0.00     0.034 A 
HETATM    2  C   UNK N   1      27.569  25.067  -3.713  0.00  0.00     0.031 A 
HETATM    3  C   UNK N   1      26.638  24.213  -4.302  0.00  0.00     0.025 A 
HETATM    4  C   UNK N   1      26.864  23.703  -5.585  0.00  0.00     0.044 A 
HETATM    5  C   UNK N   1      28.057  23.986  -6.253  0.00  0.00     0.025 A 
HETATM    6  C   UNK N   1      28.992  24.828  -5.660  0.00  0.00     0.031 A 
HETATM    7  C   UNK N   1      25.815  22.980  -6.245  0.00  0.00     0.099 C 
HETATM    8  N   UNK N   1      24.944  22.403  -6.741  0.00  0.00    -0.191 NA
ENDROOT
BRANCH   1   9
HETATM    9  N   UNK N   1      29.472  26.515  -4.005  0.00  0.00    -0.333 N 
HETATM   10  H   UNK N   1      29.254  26.975  -3.164  0.00  0.00     0.168 HD
BRANCH   9  11
HETATM   11  C   UNK N   1      30.533  26.998  -4.837  0.00  0.00     0.177 C 
HETATM   12  S   UNK N   1      31.918  26.725  -4.530  0.00  0.00    -0.040 SA
BRANCH  11  13
HETATM   13  N   UNK N   1      30.282  28.074  -5.679  0.00  0.00    -0.323 N 
HETATM   14  H   UNK N   1      30.652  28.081  -6.592  0.00  0.00     0.169 HD
BRANCH  13  15
HETATM   15  C   UNK N   1      29.500  29.149  -5.230  0.00  0.00     0.081 C 
HETATM   16  N   UNK N   1      30.015  30.085  -4.512  0.00  0.00    -0.389 N 
HETATM   17  H   UNK N   1      29.905  30.968  -4.090  0.00  0.00     0.157 HD
ATOM     18  HN  UNK N   1      30.956  29.773  -4.274  1.00  0.00     0.157 HD
BRANCH  15  19
HETATM   19  C   UNK N   1      28.292  29.388  -6.019  0.00  0.00     0.118 C 
BRANCH  19  20
HETATM   20  C   UNK N   1      27.142  28.475  -5.819  0.00  0.00    -0.008 A 
HETATM   21  C   UNK N   1      26.308  28.544  -4.688  0.00  0.00     0.042 A 
HETATM   22 Cl   UNK N   1      26.705  29.595  -3.328  0.00  0.00    -0.084 Cl
HETATM   23  C   UNK N   1      25.143  27.769  -4.650  0.00  0.00     0.024 A 
HETATM   24  C   UNK N   1      24.824  26.931  -5.727  0.00  0.00     0.003 A 
HETATM   25  C   UNK N   1      25.701  26.816  -6.813  0.00  0.00     0.024 A 
HETATM   26  C   UNK N   1      26.866  27.585  -6.851  0.00  0.00     0.042 A 
HETATM   27 Cl   UNK N   1      28.018  27.435  -8.182  0.00  0.00    -0.084 Cl
ENDBRANCH  19  20
ENDBRANCH  15  19
ENDBRANCH  13  15
ENDBRANCH  11  13
ENDBRANCH   9  11
ENDBRANCH   1   9
TORSDOF 6
ENDMDL
MODEL 4
REMARK VINA RESULT:      -6.7      9.528     12.523
REMARK  6 active torsions:
REMARK  status: ('A' for Active; 'I' for Inactive)
REMARK    1  A    between atoms: C_1  and  C_2 
REMARK    2  A    between atoms: C_2  and  C_10 
REMARK    3  A    between atoms: C_10  and  N_11 
REMARK    4  A    between atoms: N_11  and  C_12 
REMARK    5  A    between atoms: C_12  and  N_13 
REMARK    6  A    between atoms: N_13  and  C_17 
ROOT
HETATM    1  C   UNK N   1      27.440  18.701   4.501  0.00  0.00     0.034 A 
HETATM    2  C   UNK N   1      26.229  18.023   4.624  0.00  0.00     0.031 A 
HETATM    3  C   UNK N   1      25.071  18.581   4.084  0.00  0.00     0.025 A 
HETATM    4  C   UNK N   1      25.119  19.831   3.456  0.00  0.00     0.044 A 
HETATM    5  C   UNK N   1      26.340  20.491   3.300  0.00  0.00     0.025 A 
HETATM    6  C   UNK N   1      27.496  19.928   3.827  0.00  0.00     0.031 A 
HETATM    7  C   UNK N   1      23.892  20.469   3.074  0.00  0.00     0.099 C 
HETATM    8  N   UNK N   1      22.881  20.948   2.782  0.00  0.00    -0.191 NA
ENDROOT
BRANCH   1   9
HETATM    9  N   UNK N   1      28.498  18.360   5.360  0.00  0.00    -0.333 N 
HETATM   10  H   UNK N   1      29.381  18.138   4.988  0.00  0.00     0.168 HD
BRANCH   9  11
HETATM   11  C   UNK N   1      28.285  18.336   6.776  0.00  0.00     0.177 C 
HETATM   12  S   UNK N   1      27.889  19.521   7.501  0.00  0.00    -0.040 SA
BRANCH  11  13
HETATM   13  N   UNK N   1      28.862  17.314   7.519  0.00  0.00    -0.323 N 
HETATM   14  H   UNK N   1      28.319  16.544   7.804  0.00  0.00     0.169 HD
BRANCH  13  15
HETATM   15  C   UNK N   1      30.221  17.380   7.864  0.00  0.00     0.081 C 
HETATM   16  N   UNK N   1      30.603  17.999   8.926  0.00  0.00    -0.389 N 
HETATM   17  H   UNK N   1      31.338  18.214   9.547  0.00  0.00     0.157 HD
ATOM     18  HN  UNK N   1      29.780  18.481   9.284  1.00  0.00     0.157 HD
BRANCH  15  19
HETATM   19  C   UNK N   1      31.046  16.329   7.272  0.00  0.00     0.118 C 
BRANCH  19  20
HETATM   20  C   UNK N   1      31.467  16.490   5.860  0.00  0.00    -0.008 A 
HETATM   21  C   UNK N   1      30.740  15.944   4.786  0.00  0.00     0.042 A 
HETATM   22 Cl   UNK N   1      29.385  14.851   5.068  0.00  0.00    -0.084 Cl
HETATM   23  C   UNK N   1      31.099  16.282   3.476  0.00  0.00     0.024 A 
HETATM   24  C   UNK N   1      32.176  17.149   3.247  0.00  0.00     0.003 A 
HETATM   25  C   UNK N   1      32.937  17.625   4.322  0.00  0.00     0.024 A 
HETATM   26  C   UNK N   1      32.584  17.286   5.629  0.00  0.00     0.042 A 
HETATM   27 Cl   UNK N   1      33.544  17.831   7.007  0.00  0.00    -0.084 Cl
ENDBRANCH  19  20
ENDBRANCH  15  19
ENDBRANCH  13  15
ENDBRANCH  11  13
ENDBRANCH   9  11
ENDBRANCH   1   9
TORSDOF 6
ENDMDL
MODEL 5
REMARK VINA RESULT:      -6.7     21.118     23.649
REMARK  6 active torsions:
REMARK  status: ('A' for Active; 'I' for Inactive)
REMARK    1  A    between atoms: C_1  and  C_2 
REMARK    2  A    between atoms: C_2  and  C_10 
REMARK    3  A    between atoms: C_10  and  N_11 
REMARK    4  A    between atoms: N_11  and  C_12 
REMARK    5  A    between atoms: C_12  and  N_13 
REMARK    6  A    between atoms: N_13  and  C_17 
ROOT
HETATM    1  C   UNK N   1      25.490  25.336  -5.430  0.00  0.00     0.034 A 
HETATM    2  C   UNK N   1      26.266  25.017  -4.319  0.00  0.00     0.031 A 
HETATM    3  C   UNK N   1      26.682  26.031  -3.458  0.00  0.00     0.025 A 
HETATM    4  C   UNK N   1      26.352  27.365  -3.728  0.00  0.00     0.044 A 
HETATM    5  C   UNK N   1      25.541  27.678  -4.821  0.00  0.00     0.025 A 
HETATM    6  C   UNK N   1      25.116  26.665  -5.673  0.00  0.00     0.031 A 
HETATM    7  C   UNK N   1      26.942  28.406  -2.937  0.00  0.00     0.099 C 
HETATM    8  N   UNK N   1      27.439  29.214  -2.275  0.00  0.00    -0.191 NA
ENDROOT
BRANCH   1   9
HETATM    9  N   UNK N   1      25.408  24.415  -6.487  0.00  0.00    -0.333 N 
HETATM   10  H   UNK N   1      24.776  23.663  -6.437  0.00  0.00     0.168 HD
BRANCH   9  11
HETATM   11  C   UNK N   1      26.249  24.574  -7.636  0.00  0.00     0.177 C 
HETATM   12  S   UNK N   1      25.721  24.476  -8.978  0.00  0.00    -0.040 SA
BRANCH  11  13
HETATM   13  N   UNK N   1      27.618  24.395  -7.490  0.00  0.00    -0.323 N 
HETATM   14  H   UNK N   1      28.236  25.136  -7.685  0.00  0.00     0.169 HD
BRANCH  13  15
HETATM   15  C   UNK N   1      28.121  23.156  -7.063  0.00  0.00     0.081 C 
HETATM   16  N   UNK N   1      27.512  22.060  -7.356  0.00  0.00    -0.389 N 
HETATM   17  H   UNK N   1      27.522  21.075  -7.355  0.00  0.00     0.157 HD
ATOM     18  HN  UNK N   1      26.623  22.333  -7.774  1.00  0.00     0.157 HD
BRANCH  15  19
HETATM   19  C   UNK N   1      29.549  23.159  -6.752  0.00  0.00     0.118 C 
BRANCH  19  20
HETATM   20  C   UNK N   1      29.947  23.098  -5.326  0.00  0.00    -0.008 A 
HETATM   21  C   UNK N   1      29.975  24.236  -4.498  0.00  0.00     0.042 A 
HETATM   22 Cl   UNK N   1      29.733  25.851  -5.164  0.00  0.00    -0.084 Cl
HETATM   23  C   UNK N   1      30.192  24.076  -3.124  0.00  0.00     0.024 A 
HETATM   24  C   UNK N   1      30.386  22.794  -2.590  0.00  0.00     0.003 A 
HETATM   25  C   UNK N   1      30.431  21.679  -3.436  0.00  0.00     0.024 A 
HETATM   26  C   UNK N   1      30.220  21.837  -4.807  0.00  0.00     0.042 A 
HETATM   27 Cl   UNK N   1      30.312  20.461  -5.911  0.00  0.00    -0.084 Cl
ENDBRANCH  19  20
ENDBRANCH  15  19
ENDBRANCH  13  15
ENDBRANCH  11  13
ENDBRANCH   9  11
ENDBRANCH   1   9
TORSDOF 6
ENDMDL
MODEL 6
REMARK VINA RESULT:      -6.6      2.180      3.650
REMARK  6 active torsions:
REMARK  status: ('A' for Active; 'I' for Inactive)
REMARK    1  A    between atoms: C_1  and  C_2 
REMARK    2  A    between atoms: C_2  and  C_10 
REMARK    3  A    between atoms: C_10  and  N_11 
REMARK    4  A    between atoms: N_11  and  C_12 
REMARK    5  A    between atoms: C_12  and  N_13 
REMARK    6  A    between atoms: N_13  and  C_17 
ROOT
HETATM    1  C   UNK N   1      34.394  16.689   9.420  0.00  0.00     0.034 A 
HETATM    2  C   UNK N   1      33.341  15.777   9.423  0.00  0.00     0.031 A 
HETATM    3  C   UNK N   1      32.352  15.867   8.444  0.00  0.00     0.025 A 
HETATM    4  C   UNK N   1      32.398  16.887   7.487  0.00  0.00     0.044 A 
HETATM    5  C   UNK N   1      33.475  17.776   7.462  0.00  0.00     0.025 A 
HETATM    6  C   UNK N   1      34.468  17.679   8.431  0.00  0.00     0.031 A 
HETATM    7  C   UNK N   1      31.280  17.073   6.608  0.00  0.00     0.099 C 
HETATM    8  N   UNK N   1      30.359  17.189   5.919  0.00  0.00    -0.191 NA
ENDROOT
BRANCH   1   9
HETATM    9  N   UNK N   1      35.149  16.857  10.592  0.00  0.00    -0.333 N 
HETATM   10  H   UNK N   1      35.034  17.666  11.141  0.00  0.00     0.168 HD
BRANCH   9  11
HETATM   11  C   UNK N   1      36.086  15.848  10.985  0.00  0.00     0.177 C 
HETATM   12  S   UNK N   1      36.691  14.960  10.018  0.00  0.00    -0.040 SA
BRANCH  11  13
HETATM   13  N   UNK N   1      36.098  15.428  12.309  0.00  0.00    -0.323 N 
HETATM   14  H   UNK N   1      36.472  16.012  13.008  0.00  0.00     0.169 HD
BRANCH  13  15
HETATM   15  C   UNK N   1      35.574  14.172  12.651  0.00  0.00     0.081 C 
HETATM   16  N   UNK N   1      34.604  13.657  11.979  0.00  0.00    -0.389 N 
HETATM   17  H   UNK N   1      34.034  12.872  11.807  0.00  0.00     0.157 HD
ATOM     18  HN  UNK N   1      34.281  14.385  11.344  1.00  0.00     0.157 HD
BRANCH  15  19
HETATM   19  C   UNK N   1      36.486  13.326  13.418  0.00  0.00     0.118 C 
BRANCH  19  20
HETATM   20  C   UNK N   1      36.136  13.031  14.828  0.00  0.00    -0.008 A 
HETATM   21  C   UNK N   1      36.388  13.936  15.875  0.00  0.00     0.042 A 
HETATM   22 Cl   UNK N   1      37.328  15.404  15.603  0.00  0.00    -0.084 Cl
HETATM   23  C   UNK N   1      35.876  13.666  17.150  0.00  0.00     0.024 A 
HETATM   24  C   UNK N   1      35.129  12.500  17.372  0.00  0.00     0.003 A 
HETATM   25  C   UNK N   1      34.951  11.572  16.338  0.00  0.00     0.024 A 
HETATM   26  C   UNK N   1      35.465  11.837  15.068  0.00  0.00     0.042 A 
HETATM   27 Cl   UNK N   1      35.298  10.671  13.751  0.00  0.00    -0.084 Cl
ENDBRANCH  19  20
ENDBRANCH  15  19
ENDBRANCH  13  15
ENDBRANCH  11  13
ENDBRANCH   9  11
ENDBRANCH   1   9
TORSDOF 6
ENDMDL
MODEL 7
REMARK VINA RESULT:      -6.6     23.294     25.160
REMARK  6 active torsions:
REMARK  status: ('A' for Active; 'I' for Inactive)
REMARK    1  A    between atoms: C_1  and  C_2 
REMARK    2  A    between atoms: C_2  and  C_10 
REMARK    3  A    between atoms: C_10  and  N_11 
REMARK    4  A    between atoms: N_11  and  C_12 
REMARK    5  A    between atoms: C_12  and  N_13 
REMARK    6  A    between atoms: N_13  and  C_17 
ROOT
HETATM    1  C   UNK N   1      25.980  26.894  -7.147  0.00  0.00     0.034 A 
HETATM    2  C   UNK N   1      25.030  26.936  -6.129  0.00  0.00     0.031 A 
HETATM    3  C   UNK N   1      25.293  27.671  -4.974  0.00  0.00     0.025 A 
HETATM    4  C   UNK N   1      26.517  28.333  -4.824  0.00  0.00     0.044 A 
HETATM    5  C   UNK N   1      27.452  28.322  -5.861  0.00  0.00     0.025 A 
HETATM    6  C   UNK N   1      27.184  27.598  -7.018  0.00  0.00     0.031 A 
HETATM    7  C   UNK N   1      26.841  28.926  -3.559  0.00  0.00     0.099 C 
HETATM    8  N   UNK N   1      27.063  29.391  -2.523  0.00  0.00    -0.191 NA
ENDROOT
BRANCH   1   9
HETATM    9  N   UNK N   1      25.904  25.868  -8.103  0.00  0.00    -0.333 N 
HETATM   10  H   UNK N   1      25.153  25.232  -8.085  0.00  0.00     0.168 HD
BRANCH   9  11
HETATM   11  C   UNK N   1      26.921  25.752  -9.104  0.00  0.00     0.177 C 
HETATM   12  S   UNK N   1      26.698  26.187 -10.464  0.00  0.00    -0.040 SA
BRANCH  11  13
HETATM   13  N   UNK N   1      27.954  24.846  -8.902  0.00  0.00    -0.323 N 
HETATM   14  H   UNK N   1      28.888  25.120  -9.056  0.00  0.00     0.169 HD
BRANCH  13  15
HETATM   15  C   UNK N   1      27.668  23.539  -8.477  0.00  0.00     0.081 C 
HETATM   16  N   UNK N   1      27.295  22.639  -9.318  0.00  0.00    -0.389 N 
HETATM   17  H   UNK N   1      27.093  21.689  -9.488  0.00  0.00     0.157 HD
ATOM     18  HN  UNK N   1      27.140  23.123 -10.201  1.00  0.00     0.157 HD
BRANCH  15  19
HETATM   19  C   UNK N   1      28.288  23.167  -7.207  0.00  0.00     0.118 C 
BRANCH  19  20
HETATM   20  C   UNK N   1      27.793  23.825  -5.975  0.00  0.00    -0.008 A 
HETATM   21  C   UNK N   1      26.520  23.563  -5.436  0.00  0.00     0.042 A 
HETATM   22 Cl   UNK N   1      25.346  22.581  -6.313  0.00  0.00    -0.084 Cl
HETATM   23  C   UNK N   1      26.189  24.087  -4.181  0.00  0.00     0.024 A 
HETATM   24  C   UNK N   1      27.118  24.869  -3.480  0.00  0.00     0.003 A 
HETATM   25  C   UNK N   1      28.352  25.184  -4.062  0.00  0.00     0.024 A 
HETATM   26  C   UNK N   1      28.683  24.666  -5.316  0.00  0.00     0.042 A 
HETATM   27 Cl   UNK N   1      30.212  25.076  -6.100  0.00  0.00    -0.084 Cl
ENDBRANCH  19  20
ENDBRANCH  15  19
ENDBRANCH  13  15
ENDBRANCH  11  13
ENDBRANCH   9  11
ENDBRANCH   1   9
TORSDOF 6
ENDMDL
MODEL 8
REMARK VINA RESULT:      -6.5      9.497     13.106
REMARK  6 active torsions:
REMARK  status: ('A' for Active; 'I' for Inactive)
REMARK    1  A    between atoms: C_1  and  C_2 
REMARK    2  A    between atoms: C_2  and  C_10 
REMARK    3  A    between atoms: C_10  and  N_11 
REMARK    4  A    between atoms: N_11  and  C_12 
REMARK    5  A    between atoms: C_12  and  N_13 
REMARK    6  A    between atoms: N_13  and  C_17 
ROOT
HETATM    1  C   UNK N   1      26.151  19.438   3.398  0.00  0.00     0.034 A 
HETATM    2  C   UNK N   1      25.398  18.439   4.009  0.00  0.00     0.031 A 
HETATM    3  C   UNK N   1      24.006  18.528   4.005  0.00  0.00     0.025 A 
HETATM    4  C   UNK N   1      23.373  19.631   3.421  0.00  0.00     0.044 A 
HETATM    5  C   UNK N   1      24.128  20.612   2.775  0.00  0.00     0.025 A 
HETATM    6  C   UNK N   1      25.515  20.517   2.769  0.00  0.00     0.031 A 
HETATM    7  C   UNK N   1      21.958  19.795   3.589  0.00  0.00     0.099 C 
HETATM    8  N   UNK N   1      20.816  19.889   3.748  0.00  0.00    -0.191 NA
ENDROOT
BRANCH   1   9
HETATM    9  N   UNK N   1      27.508  19.566   3.736  0.00  0.00    -0.333 N 
HETATM   10  H   UNK N   1      28.164  19.824   3.049  0.00  0.00     0.168 HD
BRANCH   9  11
HETATM   11  C   UNK N   1      27.933  19.318   5.080  0.00  0.00     0.177 C 
HETATM   12  S   UNK N   1      27.646  20.249   6.148  0.00  0.00    -0.040 SA
BRANCH  11  13
HETATM   13  N   UNK N   1      28.975  18.425   5.296  0.00  0.00    -0.323 N 
HETATM   14  H   UNK N   1      29.868  18.609   4.924  0.00  0.00     0.169 HD
BRANCH  13  15
HETATM   15  C   UNK N   1      28.755  17.260   6.047  0.00  0.00     0.081 C 
HETATM   16  N   UNK N   1      27.568  16.783   6.193  0.00  0.00    -0.389 N 
HETATM   17  H   UNK N   1      27.000  16.044   6.512  0.00  0.00     0.157 HD
ATOM     18  HN  UNK N   1      26.933  17.480   5.805  1.00  0.00     0.157 HD
BRANCH  15  19
HETATM   19  C   UNK N   1      29.930  16.401   6.188  0.00  0.00     0.118 C 
BRANCH  19  20
HETATM   20  C   UNK N   1      31.200  17.031   6.617  0.00  0.00    -0.008 A 
HETATM   21  C   UNK N   1      31.433  17.438   7.944  0.00  0.00     0.042 A 
HETATM   22 Cl   UNK N   1      30.139  17.412   9.143  0.00  0.00    -0.084 Cl
HETATM   23  C   UNK N   1      32.714  17.864   8.314  0.00  0.00     0.024 A 
HETATM   24  C   UNK N   1      33.745  17.888   7.364  0.00  0.00     0.003 A 
HETATM   25  C   UNK N   1      33.481  17.551   6.031  0.00  0.00     0.024 A 
HETATM   26  C   UNK N   1      32.203  17.131   5.659  0.00  0.00     0.042 A 
HETATM   27 Cl   UNK N   1      31.820  16.740   3.979  0.00  0.00    -0.084 Cl
ENDBRANCH  19  20
ENDBRANCH  15  19
ENDBRANCH  13  15
ENDBRANCH  11  13
ENDBRANCH   9  11
ENDBRANCH   1   9
TORSDOF 6
ENDMDL
MODEL 9
REMARK VINA RESULT:      -6.5     20.779     25.005
REMARK  6 active torsions:
REMARK  status: ('A' for Active; 'I' for Inactive)
REMARK    1  A    between atoms: C_1  and  C_2 
REMARK    2  A    between atoms: C_2  and  C_10 
REMARK    3  A    between atoms: C_10  and  N_11 
REMARK    4  A    between atoms: N_11  and  C_12 
REMARK    5  A    between atoms: C_12  and  N_13 
REMARK    6  A    between atoms: N_13  and  C_17 
ROOT
HETATM    1  C   UNK N   1      28.061  23.093  -6.294  0.00  0.00     0.034 A 
HETATM    2  C   UNK N   1      27.445  23.689  -5.196  0.00  0.00     0.031 A 
HETATM    3  C   UNK N   1      28.121  23.753  -3.979  0.00  0.00     0.025 A 
HETATM    4  C   UNK N   1      29.397  23.191  -3.852  0.00  0.00     0.044 A 
HETATM    5  C   UNK N   1      30.029  22.628  -4.963  0.00  0.00     0.025 A 
HETATM    6  C   UNK N   1      29.359  22.575  -6.180  0.00  0.00     0.031 A 
HETATM    7  C   UNK N   1      29.996  23.103  -2.551  0.00  0.00     0.099 C 
HETATM    8  N   UNK N   1      30.443  23.052  -1.486  0.00  0.00    -0.191 NA
ENDROOT
BRANCH   1   9
HETATM    9  N   UNK N   1      27.266  22.674  -7.373  0.00  0.00    -0.333 N 
HETATM   10  H   UNK N   1      27.688  22.296  -8.178  0.00  0.00     0.168 HD
BRANCH   9  11
HETATM   11  C   UNK N   1      25.842  22.799  -7.298  0.00  0.00     0.177 C 
HETATM   12  S   UNK N   1      24.976  21.643  -7.364  0.00  0.00    -0.040 SA
BRANCH  11  13
HETATM   13  N   UNK N   1      25.264  24.027  -7.592  0.00  0.00    -0.323 N 
HETATM   14  H   UNK N   1      24.537  24.378  -7.029  0.00  0.00     0.169 HD
BRANCH  13  15
HETATM   15  C   UNK N   1      25.718  24.769  -8.694  0.00  0.00     0.081 C 
HETATM   16  N   UNK N   1      25.603  24.311  -9.891  0.00  0.00    -0.389 N 
HETATM   17  H   UNK N   1      25.683  24.477 -10.859  0.00  0.00     0.157 HD
ATOM     18  HN  UNK N   1      25.289  23.345  -9.795  1.00  0.00     0.157 HD
BRANCH  15  19
HETATM   19  C   UNK N   1      25.830  26.206  -8.449  0.00  0.00     0.118 C 
BRANCH  19  20
HETATM   20  C   UNK N   1      26.744  26.657  -7.374  0.00  0.00    -0.008 A 
HETATM   21  C   UNK N   1      26.284  27.051  -6.104  0.00  0.00     0.042 A 
HETATM   22 Cl   UNK N   1      24.560  27.228  -5.776  0.00  0.00    -0.084 Cl
HETATM   23  C   UNK N   1      27.213  27.297  -5.087  0.00  0.00     0.024 A 
HETATM   24  C   UNK N   1      28.585  27.159  -5.342  0.00  0.00     0.003 A 
HETATM   25  C   UNK N   1      29.031  26.840  -6.631  0.00  0.00     0.024 A 
HETATM   26  C   UNK N   1      28.106  26.598  -7.648  0.00  0.00     0.042 A 
HETATM   27 Cl   UNK N   1      28.632  26.236  -9.296  0.00  0.00    -0.084 Cl
ENDBRANCH  19  20
ENDBRANCH  15  19
ENDBRANCH  13  15
ENDBRANCH  11  13
ENDBRANCH   9  11
ENDBRANCH   1   9
TORSDOF 6
ENDMDL
