REMARK  6 active torsions:
REMARK  status: ('A' for Active; 'I' for Inactive)
REMARK    1  A    between atoms: C_1  and  C_2 
REMARK    2  A    between atoms: C_2  and  C_10 
REMARK    3  A    between atoms: C_10  and  N_11 
REMARK    4  A    between atoms: N_11  and  C_12 
REMARK    5  A    between atoms: C_12  and  N_13 
REMARK    6  A    between atoms: N_13  and  C_17 
ROOT
HETATM    1  C   UNK N   1       2.948   0.737  -0.256  0.00  0.00     0.034 A 
HETATM    2  C   UNK N   1       4.265   1.129  -0.029  0.00  0.00     0.031 A 
HETATM    3  C   UNK N   1       5.270   0.164   0.023  0.00  0.00     0.025 A 
HETATM    4  C   UNK N   1       4.952  -1.192  -0.117  0.00  0.00     0.044 A 
HETATM    5  C   UNK N   1       3.637  -1.580  -0.383  0.00  0.00     0.025 A 
HETATM    6  C   UNK N   1       2.637  -0.616  -0.447  0.00  0.00     0.031 A 
HETATM    7  C   UNK N   1       5.967  -2.177   0.123  0.00  0.00     0.099 C 
HETATM    8  N   UNK N   1       6.814  -2.938   0.325  0.00  0.00    -0.191 NA
ENDROOT
BRANCH   1   9
HETATM    9  N   UNK N   1       1.910   1.621   0.081  0.00  0.00    -0.333 N 
HETATM   10  H   UNK N   1       1.676   2.360  -0.525  0.00  0.00     0.168 HD
BRANCH   9  11
HETATM   11  C   UNK N   1       1.195   1.443   1.309  0.00  0.00     0.177 C 
HETATM   12  S   UNK N   1       1.537   0.389   2.237  0.00  0.00    -0.040 SA
BRANCH  11  13
HETATM   13  N   UNK N   1      -0.079   1.984   1.423  0.00  0.00    -0.323 N 
HETATM   14  H   UNK N   1      -0.301   2.566   2.186  0.00  0.00     0.169 HD
BRANCH  13  15
HETATM   15  C   UNK N   1      -1.050   1.702   0.450  0.00  0.00     0.081 C 
HETATM   16  N   UNK N   1      -0.743   1.057  -0.621  0.00  0.00    -0.389 N 
HETATM   17  H   UNK N   1      -1.053   0.607  -1.441  0.00  0.00     0.157 HD
ATOM     18  HN  UNK N   1       0.273   0.976  -0.621  1.00  0.00     0.157 HD
BRANCH  15  19
HETATM   19  C   UNK N   1      -2.425   1.719   0.946  0.00  0.00     0.118 C 
BRANCH  19  20
HETATM   20  C   UNK N   1      -3.421   0.866   0.256  0.00  0.00    -0.008 A 
HETATM   21  C   UNK N   1      -3.379  -0.540   0.308  0.00  0.00     0.042 A 
HETATM   22 Cl   UNK N   1      -2.010  -1.383   1.033  0.00  0.00    -0.084 Cl
HETATM   23  C   UNK N   1      -4.447  -1.275  -0.220  0.00  0.00     0.024 A 
HETATM   24  C   UNK N   1      -5.537  -0.610  -0.799  0.00  0.00     0.003 A 
HETATM   25  C   UNK N   1      -5.530   0.786  -0.911  0.00  0.00     0.024 A 
HETATM   26  C   UNK N   1      -4.464   1.521  -0.389  0.00  0.00     0.042 A 
HETATM   27 Cl   UNK N   1      -4.399   3.279  -0.550  0.00  0.00    -0.084 Cl
ENDBRANCH  19  20
ENDBRANCH  15  19
ENDBRANCH  13  15
ENDBRANCH  11  13
ENDBRANCH   9  11
ENDBRANCH   1   9
TORSDOF 6
