MODEL 1
REMARK VINA RESULT:      -7.2      0.000      0.000
REMARK  7 active torsions:
REMARK  status: ('A' for Active; 'I' for Inactive)
REMARK    1  A    between atoms: C_8  and  C_9 
REMARK    2  A    between atoms: C_14  and  O_15 
REMARK    3  A    between atoms: C_16  and  C_17 
REMARK       I    between atoms: C_17  and  N_19 
REMARK    4  A    between atoms: N_19  and  C_20 
REMARK    5  A    between atoms: C_20  and  C_21 
REMARK    6  A    between atoms: C_21  and  C_22 
REMARK    7  A    between atoms: C_22  and  O_24 
ROOT
HETATM    1  C   UNK N   1      36.222  13.858  12.640  0.00  0.00    -0.021 A 
HETATM    2  C   UNK N   1      35.740  15.012  12.024  0.00  0.00     0.032 A 
HETATM    3  C   UNK N   1      36.882  12.911  11.854  0.00  0.00     0.033 A 
HETATM    4  C   UNK N   1      37.044  13.119  10.483  0.00  0.00     0.041 A 
HETATM    5  I   UNK N   1      38.025  11.629   9.348  0.00  0.00    -0.042 I 
HETATM    6  C   UNK N   1      36.544  14.285   9.868  0.00  0.00     0.098 A 
HETATM    7  C   UNK N   1      35.879  15.274  10.655  0.00  0.00     0.067 A 
ENDROOT
BRANCH   7   8
HETATM    8  C   UNK N   1      35.263  16.588  10.213  0.00  0.00     0.254 C 
HETATM    9  O   UNK N   1      35.866  17.607  10.526  0.00  0.00    -0.268 OA
HETATM   10  N   UNK N   1      34.137  16.762   9.474  0.00  0.00    -0.356 N 
HETATM   11  H   UNK N   1      33.890  17.701   9.305  0.00  0.00     0.162 HD
BRANCH  10  12
HETATM   12  C   UNK N   1      33.252  15.787   8.904  0.00  0.00     0.132 C 
BRANCH  12  13
HETATM   13  C   UNK N   1      32.976  16.141   7.448  0.00  0.00     0.130 C 
BRANCH  13  14
HETATM   14  C   UNK N   1      34.205  16.696   6.769  0.00  0.00     0.259 C 
HETATM   15  O   UNK N   1      34.269  17.891   6.525  0.00  0.00    -0.265 OA
BRANCH  14  16
HETATM   16  O   UNK N   1      35.234  15.893   6.408  0.00  0.00    -0.326 OA
HETATM   17  C   UNK N   1      35.114  14.919   5.446  0.00  0.00     0.213 C 
ENDBRANCH  14  16
ENDBRANCH  13  14
ENDBRANCH  12  13
ENDBRANCH  10  12
ENDBRANCH   7   8
BRANCH   6  18
HETATM   18  O   UNK N   1      36.688  14.407   8.543  0.00  0.00    -0.358 OA
HETATM   19  H   UNK N   1      36.596  13.657   7.989  0.00  0.00     0.217 HD
ENDBRANCH   6  18
BRANCH   1  20
HETATM   20  C   UNK N   1      35.968  13.665  14.095  0.00  0.00     0.013 A 
HETATM   21  C   UNK N   1      34.961  12.807  14.595  0.00  0.00     0.130 A 
HETATM   22  F   UNK N   1      34.173  12.083  13.763  0.00  0.00    -0.205 F 
HETATM   23  C   UNK N   1      34.749  12.709  15.976  0.00  0.00     0.085 A 
HETATM   24  C   UNK N   1      35.530  13.450  16.868  0.00  0.00     0.119 A 
HETATM   25  F   UNK N   1      35.309  13.362  18.201  0.00  0.00    -0.206 F 
HETATM   26  C   UNK N   1      36.531  14.289  16.386  0.00  0.00     0.043 A 
HETATM   27  C   UNK N   1      36.746  14.396  15.014  0.00  0.00     0.018 A 
ENDBRANCH   1  20
TORSDOF 7
ENDMDL
MODEL 2
REMARK VINA RESULT:      -7.0     13.185     14.901
REMARK  7 active torsions:
REMARK  status: ('A' for Active; 'I' for Inactive)
REMARK    1  A    between atoms: C_8  and  C_9 
REMARK    2  A    between atoms: C_14  and  O_15 
REMARK    3  A    between atoms: C_16  and  C_17 
REMARK       I    between atoms: C_17  and  N_19 
REMARK    4  A    between atoms: N_19  and  C_20 
REMARK    5  A    between atoms: C_20  and  C_21 
REMARK    6  A    between atoms: C_21  and  C_22 
REMARK    7  A    between atoms: C_22  and  O_24 
ROOT
HETATM    1  C   UNK N   1      21.497  13.683   8.113  0.00  0.00    -0.021 A 
HETATM    2  C   UNK N   1      21.479  15.071   7.992  0.00  0.00     0.032 A 
HETATM    3  C   UNK N   1      20.965  12.918   7.073  0.00  0.00     0.033 A 
HETATM    4  C   UNK N   1      20.423  13.538   5.946  0.00  0.00     0.041 A 
HETATM    5  I   UNK N   1      19.606  12.319   4.423  0.00  0.00    -0.042 I 
HETATM    6  C   UNK N   1      20.401  14.943   5.837  0.00  0.00     0.098 A 
HETATM    7  C   UNK N   1      20.954  15.744   6.882  0.00  0.00     0.067 A 
ENDROOT
BRANCH   7   8
HETATM    8  C   UNK N   1      21.034  17.256   6.983  0.00  0.00     0.254 C 
HETATM    9  O   UNK N   1      20.380  17.779   7.878  0.00  0.00    -0.268 OA
HETATM   10  N   UNK N   1      21.779  18.094   6.219  0.00  0.00    -0.356 N 
HETATM   11  H   UNK N   1      21.681  19.051   6.431  0.00  0.00     0.162 HD
BRANCH  10  12
HETATM   12  C   UNK N   1      22.688  17.798   5.149  0.00  0.00     0.132 C 
BRANCH  12  13
HETATM   13  C   UNK N   1      22.450  18.767   3.997  0.00  0.00     0.130 C 
BRANCH  13  14
HETATM   14  C   UNK N   1      20.986  19.108   3.852  0.00  0.00     0.259 C 
HETATM   15  O   UNK N   1      20.603  20.236   4.117  0.00  0.00    -0.265 OA
BRANCH  14  16
HETATM   16  O   UNK N   1      20.083  18.182   3.450  0.00  0.00    -0.326 OA
HETATM   17  C   UNK N   1      19.906  17.842   2.131  0.00  0.00     0.213 C 
ENDBRANCH  14  16
ENDBRANCH  13  14
ENDBRANCH  12  13
ENDBRANCH  10  12
ENDBRANCH   7   8
BRANCH   6  18
HETATM   18  O   UNK N   1      19.826  15.480   4.755  0.00  0.00    -0.358 OA
HETATM   19  H   UNK N   1      19.625  14.943   4.014  0.00  0.00     0.217 HD
ENDBRANCH   6  18
BRANCH   1  20
HETATM   20  C   UNK N   1      22.037  13.081   9.365  0.00  0.00     0.013 A 
HETATM   21  C   UNK N   1      21.230  12.789  10.490  0.00  0.00     0.130 A 
HETATM   22  F   UNK N   1      19.895  13.023  10.481  0.00  0.00    -0.205 F 
HETATM   23  C   UNK N   1      21.813  12.264  11.650  0.00  0.00     0.085 A 
HETATM   24  C   UNK N   1      23.189  12.022  11.706  0.00  0.00     0.119 A 
HETATM   25  F   UNK N   1      23.748  11.529  12.836  0.00  0.00    -0.206 F 
HETATM   26  C   UNK N   1      23.989  12.295  10.600  0.00  0.00     0.043 A 
HETATM   27  C   UNK N   1      23.419  12.821   9.443  0.00  0.00     0.018 A 
ENDBRANCH   1  20
TORSDOF 7
ENDMDL
MODEL 3
REMARK VINA RESULT:      -6.8      1.540      2.257
REMARK  7 active torsions:
REMARK  status: ('A' for Active; 'I' for Inactive)
REMARK    1  A    between atoms: C_8  and  C_9 
REMARK    2  A    between atoms: C_14  and  O_15 
REMARK    3  A    between atoms: C_16  and  C_17 
REMARK       I    between atoms: C_17  and  N_19 
REMARK    4  A    between atoms: N_19  and  C_20 
REMARK    5  A    between atoms: C_20  and  C_21 
REMARK    6  A    between atoms: C_21  and  C_22 
REMARK    7  A    between atoms: C_22  and  O_24 
ROOT
HETATM    1  C   UNK N   1      36.203  13.752  12.760  0.00  0.00    -0.021 A 
HETATM    2  C   UNK N   1      35.630  14.849  12.118  0.00  0.00     0.032 A 
HETATM    3  C   UNK N   1      37.029  12.905  12.018  0.00  0.00     0.033 A 
HETATM    4  C   UNK N   1      37.262  13.153  10.664  0.00  0.00     0.041 A 
HETATM    5  I   UNK N   1      38.497  11.811   9.594  0.00  0.00    -0.042 I 
HETATM    6  C   UNK N   1      36.669  14.259  10.022  0.00  0.00     0.098 A 
HETATM    7  C   UNK N   1      35.834  15.148  10.765  0.00  0.00     0.067 A 
ENDROOT
BRANCH   7   8
HETATM    8  C   UNK N   1      35.095  16.384  10.288  0.00  0.00     0.254 C 
HETATM    9  O   UNK N   1      35.685  17.452  10.404  0.00  0.00    -0.268 OA
HETATM   10  N   UNK N   1      33.868  16.438   9.710  0.00  0.00    -0.356 N 
HETATM   11  H   UNK N   1      33.552  17.343   9.484  0.00  0.00     0.162 HD
BRANCH  10  12
HETATM   12  C   UNK N   1      32.961  15.377   9.378  0.00  0.00     0.132 C 
BRANCH  12  13
HETATM   13  C   UNK N   1      32.063  15.816   8.228  0.00  0.00     0.130 C 
BRANCH  13  14
HETATM   14  C   UNK N   1      32.240  17.283   7.914  0.00  0.00     0.259 C 
HETATM   15  O   UNK N   1      32.920  17.614   6.956  0.00  0.00    -0.265 OA
BRANCH  14  16
HETATM   16  O   UNK N   1      31.673  18.241   8.684  0.00  0.00    -0.326 OA
HETATM   17  C   UNK N   1      30.328  18.269   8.966  0.00  0.00     0.213 C 
ENDBRANCH  14  16
ENDBRANCH  13  14
ENDBRANCH  12  13
ENDBRANCH  10  12
ENDBRANCH   7   8
BRANCH   6  18
HETATM   18  O   UNK N   1      36.892  14.418   8.712  0.00  0.00    -0.358 OA
HETATM   19  H   UNK N   1      37.728  14.718   8.410  0.00  0.00     0.217 HD
ENDBRANCH   6  18
BRANCH   1  20
HETATM   20  C   UNK N   1      35.871  13.508  14.191  0.00  0.00     0.013 A 
HETATM   21  C   UNK N   1      36.469  14.224  15.254  0.00  0.00     0.130 A 
HETATM   22  F   UNK N   1      37.375  15.206  15.023  0.00  0.00    -0.205 F 
HETATM   23  C   UNK N   1      36.142  13.911  16.579  0.00  0.00     0.085 A 
HETATM   24  C   UNK N   1      35.224  12.895  16.862  0.00  0.00     0.119 A 
HETATM   25  F   UNK N   1      34.923  12.587  18.146  0.00  0.00    -0.206 F 
HETATM   26  C   UNK N   1      34.621  12.192  15.822  0.00  0.00     0.043 A 
HETATM   27  C   UNK N   1      34.944  12.494  14.501  0.00  0.00     0.018 A 
ENDBRANCH   1  20
TORSDOF 7
ENDMDL
MODEL 4
REMARK VINA RESULT:      -6.4      6.241     10.263
REMARK  7 active torsions:
REMARK  status: ('A' for Active; 'I' for Inactive)
REMARK    1  A    between atoms: C_8  and  C_9 
REMARK    2  A    between atoms: C_14  and  O_15 
REMARK    3  A    between atoms: C_16  and  C_17 
REMARK       I    between atoms: C_17  and  N_19 
REMARK    4  A    between atoms: N_19  and  C_20 
REMARK    5  A    between atoms: C_20  and  C_21 
REMARK    6  A    between atoms: C_21  and  C_22 
REMARK    7  A    between atoms: C_22  and  O_24 
ROOT
HETATM    1  C   UNK N   1      29.104  17.653   4.651  0.00  0.00    -0.021 A 
HETATM    2  C   UNK N   1      30.482  17.585   4.852  0.00  0.00     0.032 A 
HETATM    3  C   UNK N   1      28.492  16.653   3.894  0.00  0.00     0.033 A 
HETATM    4  C   UNK N   1      29.252  15.616   3.348  0.00  0.00     0.041 A 
HETATM    5  I   UNK N   1      28.265  14.152   2.185  0.00  0.00    -0.042 I 
HETATM    6  C   UNK N   1      30.646  15.562   3.548  0.00  0.00     0.098 A 
HETATM    7  C   UNK N   1      31.290  16.567   4.332  0.00  0.00     0.067 A 
ENDROOT
BRANCH   7   8
HETATM    8  C   UNK N   1      32.762  16.712   4.673  0.00  0.00     0.254 C 
HETATM    9  O   UNK N   1      33.557  16.466   3.773  0.00  0.00    -0.268 OA
HETATM   10  N   UNK N   1      33.298  17.123   5.850  0.00  0.00    -0.356 N 
HETATM   11  H   UNK N   1      34.283  17.135   5.878  0.00  0.00     0.162 HD
BRANCH  10  12
HETATM   12  C   UNK N   1      32.649  17.542   7.059  0.00  0.00     0.132 C 
BRANCH  12  13
HETATM   13  C   UNK N   1      33.438  17.038   8.261  0.00  0.00     0.130 C 
BRANCH  13  14
HETATM   14  C   UNK N   1      34.616  17.931   8.566  0.00  0.00     0.259 C 
HETATM   15  O   UNK N   1      34.913  18.821   7.784  0.00  0.00    -0.265 OA
BRANCH  14  16
HETATM   16  O   UNK N   1      35.364  17.756   9.681  0.00  0.00    -0.326 OA
HETATM   17  C   UNK N   1      35.223  16.667  10.506  0.00  0.00     0.213 C 
ENDBRANCH  14  16
ENDBRANCH  13  14
ENDBRANCH  12  13
ENDBRANCH  10  12
ENDBRANCH   7   8
BRANCH   6  18
HETATM   18  O   UNK N   1      31.327  14.571   2.960  0.00  0.00    -0.358 OA
HETATM   19  H   UNK N   1      31.730  14.708   2.125  0.00  0.00     0.217 HD
ENDBRANCH   6  18
BRANCH   1  20
HETATM   20  C   UNK N   1      28.357  18.814   5.212  0.00  0.00     0.013 A 
HETATM   21  C   UNK N   1      28.164  19.009   6.599  0.00  0.00     0.130 A 
HETATM   22  F   UNK N   1      28.677  18.148   7.512  0.00  0.00    -0.205 F 
HETATM   23  C   UNK N   1      27.412  20.100   7.054  0.00  0.00     0.085 A 
HETATM   24  C   UNK N   1      26.851  21.003   6.145  0.00  0.00     0.119 A 
HETATM   25  F   UNK N   1      26.113  22.047   6.591  0.00  0.00    -0.206 F 
HETATM   26  C   UNK N   1      27.046  20.826   4.778  0.00  0.00     0.043 A 
HETATM   27  C   UNK N   1      27.789  19.742   4.317  0.00  0.00     0.018 A 
ENDBRANCH   1  20
TORSDOF 7
ENDMDL
MODEL 5
REMARK VINA RESULT:      -6.4      6.898     10.890
REMARK  7 active torsions:
REMARK  status: ('A' for Active; 'I' for Inactive)
REMARK    1  A    between atoms: C_8  and  C_9 
REMARK    2  A    between atoms: C_14  and  O_15 
REMARK    3  A    between atoms: C_16  and  C_17 
REMARK       I    between atoms: C_17  and  N_19 
REMARK    4  A    between atoms: N_19  and  C_20 
REMARK    5  A    between atoms: C_20  and  C_21 
REMARK    6  A    between atoms: C_21  and  C_22 
REMARK    7  A    between atoms: C_22  and  O_24 
ROOT
HETATM    1  C   UNK N   1      27.981  17.191   5.123  0.00  0.00    -0.021 A 
HETATM    2  C   UNK N   1      28.886  17.565   6.116  0.00  0.00     0.032 A 
HETATM    3  C   UNK N   1      28.088  15.912   4.573  0.00  0.00     0.033 A 
HETATM    4  C   UNK N   1      29.087  15.038   5.007  0.00  0.00     0.041 A 
HETATM    5  I   UNK N   1      29.211  13.128   4.108  0.00  0.00    -0.042 I 
HETATM    6  C   UNK N   1      30.004  15.429   6.004  0.00  0.00     0.098 A 
HETATM    7  C   UNK N   1      29.902  16.727   6.591  0.00  0.00     0.067 A 
ENDROOT
BRANCH   7   8
HETATM    8  C   UNK N   1      30.772  17.358   7.662  0.00  0.00     0.254 C 
HETATM    9  O   UNK N   1      30.230  17.593   8.737  0.00  0.00    -0.268 OA
HETATM   10  N   UNK N   1      32.093  17.658   7.580  0.00  0.00    -0.356 N 
HETATM   11  H   UNK N   1      32.476  18.082   8.383  0.00  0.00     0.162 HD
BRANCH  10  12
HETATM   12  C   UNK N   1      33.017  17.451   6.503  0.00  0.00     0.132 C 
BRANCH  12  13
HETATM   13  C   UNK N   1      34.422  17.268   7.064  0.00  0.00     0.130 C 
BRANCH  13  14
HETATM   14  C   UNK N   1      34.602  18.017   8.362  0.00  0.00     0.259 C 
HETATM   15  O   UNK N   1      34.967  19.182   8.338  0.00  0.00    -0.265 OA
BRANCH  14  16
HETATM   16  O   UNK N   1      34.383  17.419   9.558  0.00  0.00    -0.326 OA
HETATM   17  C   UNK N   1      35.099  16.326   9.983  0.00  0.00     0.213 C 
ENDBRANCH  14  16
ENDBRANCH  13  14
ENDBRANCH  12  13
ENDBRANCH  10  12
ENDBRANCH   7   8
BRANCH   6  18
HETATM   18  O   UNK N   1      30.967  14.565   6.345  0.00  0.00    -0.358 OA
HETATM   19  H   UNK N   1      30.871  14.031   7.109  0.00  0.00     0.217 HD
ENDBRANCH   6  18
BRANCH   1  20
HETATM   20  C   UNK N   1      26.974  18.187   4.662  0.00  0.00     0.013 A 
HETATM   21  C   UNK N   1      25.581  18.013   4.837  0.00  0.00     0.130 A 
HETATM   22  F   UNK N   1      25.079  16.922   5.465  0.00  0.00    -0.205 F 
HETATM   23  C   UNK N   1      24.689  18.970   4.338  0.00  0.00     0.085 A 
HETATM   24  C   UNK N   1      25.164  20.103   3.670  0.00  0.00     0.119 A 
HETATM   25  F   UNK N   1      24.296  21.017   3.177  0.00  0.00    -0.206 F 
HETATM   26  C   UNK N   1      26.534  20.289   3.503  0.00  0.00     0.043 A 
HETATM   27  C   UNK N   1      27.428  19.340   3.992  0.00  0.00     0.018 A 
ENDBRANCH   1  20
TORSDOF 7
ENDMDL
MODEL 6
REMARK VINA RESULT:      -6.2     17.889     20.456
REMARK  7 active torsions:
REMARK  status: ('A' for Active; 'I' for Inactive)
REMARK    1  A    between atoms: C_8  and  C_9 
REMARK    2  A    between atoms: C_14  and  O_15 
REMARK    3  A    between atoms: C_16  and  C_17 
REMARK       I    between atoms: C_17  and  N_19 
REMARK    4  A    between atoms: N_19  and  C_20 
REMARK    5  A    between atoms: C_20  and  C_21 
REMARK    6  A    between atoms: C_21  and  C_22 
REMARK    7  A    between atoms: C_22  and  O_24 
ROOT
HETATM    1  C   UNK N   1      29.465  22.736  -5.390  0.00  0.00    -0.021 A 
HETATM    2  C   UNK N   1      28.727  23.518  -4.503  0.00  0.00     0.032 A 
HETATM    3  C   UNK N   1      28.856  22.321  -6.576  0.00  0.00     0.033 A 
HETATM    4  C   UNK N   1      27.536  22.680  -6.855  0.00  0.00     0.041 A 
HETATM    5  I   UNK N   1      26.666  21.991  -8.655  0.00  0.00    -0.042 I 
HETATM    6  C   UNK N   1      26.794  23.462  -5.947  0.00  0.00     0.098 A 
HETATM    7  C   UNK N   1      27.403  23.910  -4.735  0.00  0.00     0.067 A 
ENDROOT
BRANCH   7   8
HETATM    8  C   UNK N   1      26.804  24.747  -3.620  0.00  0.00     0.254 C 
HETATM    9  O   UNK N   1      26.759  24.227  -2.511  0.00  0.00    -0.268 OA
HETATM   10  N   UNK N   1      26.346  26.022  -3.702  0.00  0.00    -0.356 N 
HETATM   11  H   UNK N   1      25.976  26.388  -2.865  0.00  0.00     0.162 HD
BRANCH  10  12
HETATM   12  C   UNK N   1      26.319  26.918  -4.822  0.00  0.00     0.132 C 
BRANCH  12  13
HETATM   13  C   UNK N   1      25.552  28.180  -4.445  0.00  0.00     0.130 C 
BRANCH  13  14
HETATM   14  C   UNK N   1      26.425  29.156  -3.694  0.00  0.00     0.259 C 
HETATM   15  O   UNK N   1      26.624  30.266  -4.161  0.00  0.00    -0.265 OA
BRANCH  14  16
HETATM   16  O   UNK N   1      27.007  28.821  -2.518  0.00  0.00    -0.326 OA
HETATM   17  C   UNK N   1      27.904  29.639  -1.873  0.00  0.00     0.213 C 
ENDBRANCH  14  16
ENDBRANCH  13  14
ENDBRANCH  12  13
ENDBRANCH  10  12
ENDBRANCH   7   8
BRANCH   6  18
HETATM   18  O   UNK N   1      25.519  23.734  -6.247  0.00  0.00    -0.358 OA
HETATM   19  H   UNK N   1      24.907  23.036  -6.376  0.00  0.00     0.217 HD
ENDBRANCH   6  18
BRANCH   1  20
HETATM   20  C   UNK N   1      30.850  22.339  -5.011  0.00  0.00     0.013 A 
HETATM   21  C   UNK N   1      31.130  21.365  -4.023  0.00  0.00     0.130 A 
HETATM   22  F   UNK N   1      30.135  20.713  -3.373  0.00  0.00    -0.205 F 
HETATM   23  C   UNK N   1      32.457  21.073  -3.686  0.00  0.00     0.085 A 
HETATM   24  C   UNK N   1      33.513  21.734  -4.322  0.00  0.00     0.119 A 
HETATM   25  F   UNK N   1      34.794  21.458  -3.981  0.00  0.00    -0.206 F 
HETATM   26  C   UNK N   1      33.248  22.685  -5.304  0.00  0.00     0.043 A 
HETATM   27  C   UNK N   1      31.930  22.985  -5.643  0.00  0.00     0.018 A 
ENDBRANCH   1  20
TORSDOF 7
ENDMDL
MODEL 7
REMARK VINA RESULT:      -6.2      7.648     11.515
REMARK  7 active torsions:
REMARK  status: ('A' for Active; 'I' for Inactive)
REMARK    1  A    between atoms: C_8  and  C_9 
REMARK    2  A    between atoms: C_14  and  O_15 
REMARK    3  A    between atoms: C_16  and  C_17 
REMARK       I    between atoms: C_17  and  N_19 
REMARK    4  A    between atoms: N_19  and  C_20 
REMARK    5  A    between atoms: C_20  and  C_21 
REMARK    6  A    between atoms: C_21  and  C_22 
REMARK    7  A    between atoms: C_22  and  O_24 
ROOT
HETATM    1  C   UNK N   1      27.795  18.283   5.352  0.00  0.00    -0.021 A 
HETATM    2  C   UNK N   1      28.545  17.309   4.694  0.00  0.00     0.032 A 
HETATM    3  C   UNK N   1      28.093  18.563   6.687  0.00  0.00     0.033 A 
HETATM    4  C   UNK N   1      29.115  17.873   7.342  0.00  0.00     0.041 A 
HETATM    5  I   UNK N   1      29.492  18.326   9.373  0.00  0.00    -0.042 I 
HETATM    6  C   UNK N   1      29.861  16.883   6.672  0.00  0.00     0.098 A 
HETATM    7  C   UNK N   1      29.584  16.591   5.301  0.00  0.00     0.067 A 
ENDROOT
BRANCH   7   8
HETATM    8  C   UNK N   1      30.246  15.575   4.390  0.00  0.00     0.254 C 
HETATM    9  O   UNK N   1      29.671  14.500   4.263  0.00  0.00    -0.268 OA
HETATM   10  N   UNK N   1      31.383  15.734   3.667  0.00  0.00    -0.356 N 
HETATM   11  H   UNK N   1      31.661  14.946   3.146  0.00  0.00     0.162 HD
BRANCH  10  12
HETATM   12  C   UNK N   1      32.242  16.877   3.546  0.00  0.00     0.132 C 
BRANCH  12  13
HETATM   13  C   UNK N   1      33.639  16.517   4.038  0.00  0.00     0.130 C 
BRANCH  13  14
HETATM   14  C   UNK N   1      33.738  16.608   5.542  0.00  0.00     0.259 C 
HETATM   15  O   UNK N   1      33.354  15.673   6.227  0.00  0.00    -0.265 OA
BRANCH  14  16
HETATM   16  O   UNK N   1      34.231  17.713   6.150  0.00  0.00    -0.326 OA
HETATM   17  C   UNK N   1      33.976  18.012   7.467  0.00  0.00     0.213 C 
ENDBRANCH  14  16
ENDBRANCH  13  14
ENDBRANCH  12  13
ENDBRANCH  10  12
ENDBRANCH   7   8
BRANCH   6  18
HETATM   18  O   UNK N   1      30.796  16.224   7.365  0.00  0.00    -0.358 OA
HETATM   19  H   UNK N   1      31.391  15.649   6.924  0.00  0.00     0.217 HD
ENDBRANCH   6  18
BRANCH   1  20
HETATM   20  C   UNK N   1      26.680  18.944   4.617  0.00  0.00     0.013 A 
HETATM   21  C   UNK N   1      25.338  18.504   4.695  0.00  0.00     0.130 A 
HETATM   22  F   UNK N   1      24.983  17.454   5.474  0.00  0.00    -0.205 F 
HETATM   23  C   UNK N   1      24.348  19.146   3.941  0.00  0.00     0.085 A 
HETATM   24  C   UNK N   1      24.674  20.224   3.112  0.00  0.00     0.119 A 
HETATM   25  F   UNK N   1      23.714  20.830   2.375  0.00  0.00    -0.206 F 
HETATM   26  C   UNK N   1      25.990  20.671   3.038  0.00  0.00     0.043 A 
HETATM   27  C   UNK N   1      26.982  20.036   3.781  0.00  0.00     0.018 A 
ENDBRANCH   1  20
TORSDOF 7
ENDMDL
MODEL 8
REMARK VINA RESULT:      -6.2     17.213     20.284
REMARK  7 active torsions:
REMARK  status: ('A' for Active; 'I' for Inactive)
REMARK    1  A    between atoms: C_8  and  C_9 
REMARK    2  A    between atoms: C_14  and  O_15 
REMARK    3  A    between atoms: C_16  and  C_17 
REMARK       I    between atoms: C_17  and  N_19 
REMARK    4  A    between atoms: N_19  and  C_20 
REMARK    5  A    between atoms: C_20  and  C_21 
REMARK    6  A    between atoms: C_21  and  C_22 
REMARK    7  A    between atoms: C_22  and  O_24 
ROOT
HETATM    1  C   UNK N   1      30.366  21.222  -5.782  0.00  0.00    -0.021 A 
HETATM    2  C   UNK N   1      29.921  21.988  -4.706  0.00  0.00     0.032 A 
HETATM    3  C   UNK N   1      31.535  20.475  -5.628  0.00  0.00     0.033 A 
HETATM    4  C   UNK N   1      32.241  20.507  -4.423  0.00  0.00     0.041 A 
HETATM    5  I   UNK N   1      34.021  19.377  -4.270  0.00  0.00    -0.042 I 
HETATM    6  C   UNK N   1      31.788  21.294  -3.345  0.00  0.00     0.098 A 
HETATM    7  C   UNK N   1      30.586  22.053  -3.475  0.00  0.00     0.067 A 
ENDROOT
BRANCH   7   8
HETATM    8  C   UNK N   1      29.919  22.964  -2.461  0.00  0.00     0.254 C 
HETATM    9  O   UNK N   1      30.395  22.965  -1.332  0.00  0.00    -0.268 OA
HETATM   10  N   UNK N   1      28.878  23.810  -2.673  0.00  0.00    -0.356 N 
HETATM   11  H   UNK N   1      28.576  24.307  -1.878  0.00  0.00     0.162 HD
BRANCH  10  12
HETATM   12  C   UNK N   1      28.151  24.088  -3.878  0.00  0.00     0.132 C 
BRANCH  12  13
HETATM   13  C   UNK N   1      26.670  24.242  -3.554  0.00  0.00     0.130 C 
BRANCH  13  14
HETATM   14  C   UNK N   1      25.974  25.135  -4.553  0.00  0.00     0.259 C 
HETATM   15  O   UNK N   1      25.223  24.641  -5.379  0.00  0.00    -0.265 OA
BRANCH  14  16
HETATM   16  O   UNK N   1      26.177  26.474  -4.563  0.00  0.00    -0.326 OA
HETATM   17  C   UNK N   1      26.006  27.260  -3.449  0.00  0.00     0.213 C 
ENDBRANCH  14  16
ENDBRANCH  13  14
ENDBRANCH  12  13
ENDBRANCH  10  12
ENDBRANCH   7   8
BRANCH   6  18
HETATM   18  O   UNK N   1      32.531  21.321  -2.232  0.00  0.00    -0.358 OA
HETATM   19  H   UNK N   1      33.266  21.900  -2.172  0.00  0.00     0.217 HD
ENDBRANCH   6  18
BRANCH   1  20
HETATM   20  C   UNK N   1      29.602  21.272  -7.060  0.00  0.00     0.013 A 
HETATM   21  C   UNK N   1      29.150  20.113  -7.734  0.00  0.00     0.130 A 
HETATM   22  F   UNK N   1      29.371  18.873  -7.233  0.00  0.00    -0.205 F 
HETATM   23  C   UNK N   1      28.475  20.234  -8.956  0.00  0.00     0.085 A 
HETATM   24  C   UNK N   1      28.240  21.493  -9.515  0.00  0.00     0.119 A 
HETATM   25  F   UNK N   1      27.601  21.602 -10.704  0.00  0.00    -0.206 F 
HETATM   26  C   UNK N   1      28.671  22.640  -8.853  0.00  0.00     0.043 A 
HETATM   27  C   UNK N   1      29.346  22.530  -7.640  0.00  0.00     0.018 A 
ENDBRANCH   1  20
TORSDOF 7
ENDMDL
MODEL 9
REMARK VINA RESULT:      -6.2     19.673     23.145
REMARK  7 active torsions:
REMARK  status: ('A' for Active; 'I' for Inactive)
REMARK    1  A    between atoms: C_8  and  C_9 
REMARK    2  A    between atoms: C_14  and  O_15 
REMARK    3  A    between atoms: C_16  and  C_17 
REMARK       I    between atoms: C_17  and  N_19 
REMARK    4  A    between atoms: N_19  and  C_20 
REMARK    5  A    between atoms: C_20  and  C_21 
REMARK    6  A    between atoms: C_21  and  C_22 
REMARK    7  A    between atoms: C_22  and  O_24 
ROOT
HETATM    1  C   UNK N   1      25.928  25.657  -7.127  0.00  0.00    -0.021 A 
HETATM    2  C   UNK N   1      25.732  24.281  -7.024  0.00  0.00     0.032 A 
HETATM    3  C   UNK N   1      25.932  26.235  -8.398  0.00  0.00     0.033 A 
HETATM    4  C   UNK N   1      25.751  25.444  -9.534  0.00  0.00     0.041 A 
HETATM    5  I   UNK N   1      25.800  26.381 -11.430  0.00  0.00    -0.042 I 
HETATM    6  C   UNK N   1      25.564  24.052  -9.420  0.00  0.00     0.098 A 
HETATM    7  C   UNK N   1      25.541  23.442  -8.129  0.00  0.00     0.067 A 
ENDROOT
BRANCH   7   8
HETATM    8  C   UNK N   1      25.363  21.979  -7.769  0.00  0.00     0.254 C 
HETATM    9  O   UNK N   1      24.325  21.682  -7.187  0.00  0.00    -0.268 OA
HETATM   10  N   UNK N   1      26.204  20.952  -8.052  0.00  0.00    -0.356 N 
HETATM   11  H   UNK N   1      25.917  20.072  -7.716  0.00  0.00     0.162 HD
BRANCH  10  12
HETATM   12  C   UNK N   1      27.448  20.955  -8.766  0.00  0.00     0.132 C 
BRANCH  12  13
HETATM   13  C   UNK N   1      28.521  20.276  -7.922  0.00  0.00     0.130 C 
BRANCH  13  14
HETATM   14  C   UNK N   1      29.182  21.251  -6.978  0.00  0.00     0.259 C 
HETATM   15  O   UNK N   1      28.753  22.391  -6.893  0.00  0.00    -0.265 OA
BRANCH  14  16
HETATM   16  O   UNK N   1      30.255  20.893  -6.232  0.00  0.00    -0.326 OA
HETATM   17  C   UNK N   1      30.356  21.177  -4.892  0.00  0.00     0.213 C 
ENDBRANCH  14  16
ENDBRANCH  13  14
ENDBRANCH  12  13
ENDBRANCH  10  12
ENDBRANCH   7   8
BRANCH   6  18
HETATM   18  O   UNK N   1      25.443  23.340 -10.547  0.00  0.00    -0.358 OA
HETATM   19  H   UNK N   1      24.649  23.377 -11.043  0.00  0.00     0.217 HD
ENDBRANCH   6  18
BRANCH   1  20
HETATM   20  C   UNK N   1      26.172  26.440  -5.883  0.00  0.00     0.013 A 
HETATM   21  C   UNK N   1      25.195  27.276  -5.294  0.00  0.00     0.130 A 
HETATM   22  F   UNK N   1      23.954  27.395  -5.826  0.00  0.00    -0.205 F 
HETATM   23  C   UNK N   1      25.508  28.018  -4.148  0.00  0.00     0.085 A 
HETATM   24  C   UNK N   1      26.781  27.936  -3.577  0.00  0.00     0.119 A 
HETATM   25  F   UNK N   1      27.083  28.667  -2.478  0.00  0.00    -0.206 F 
HETATM   26  C   UNK N   1      27.747  27.106  -4.142  0.00  0.00     0.043 A 
HETATM   27  C   UNK N   1      27.445  26.368  -5.284  0.00  0.00     0.018 A 
ENDBRANCH   1  20
TORSDOF 7
ENDMDL
