REMARK  7 active torsions:
REMARK  status: ('A' for Active; 'I' for Inactive)
REMARK    1  A    between atoms: C_8  and  C_9 
REMARK    2  A    between atoms: C_14  and  O_15 
REMARK    3  A    between atoms: C_16  and  C_17 
REMARK       I    between atoms: C_17  and  N_19 
REMARK    4  A    between atoms: N_19  and  C_20 
REMARK    5  A    between atoms: C_20  and  C_21 
REMARK    6  A    between atoms: C_21  and  C_22 
REMARK    7  A    between atoms: C_22  and  O_24 
ROOT
HETATM    1  C   UNK N   1      -1.373   0.082   0.140  0.00  0.00    -0.021 A 
HETATM    2  C   UNK N   1      -0.188   0.815   0.098  0.00  0.00     0.032 A 
HETATM    3  C   UNK N   1      -1.293  -1.312   0.138  0.00  0.00     0.033 A 
HETATM    4  C   UNK N   1      -0.051  -1.948   0.087  0.00  0.00     0.041 A 
HETATM    5  I   UNK N   1      -0.005  -4.062   0.055  0.00  0.00    -0.042 I 
HETATM    6  C   UNK N   1       1.141  -1.198   0.034  0.00  0.00     0.098 A 
HETATM    7  C   UNK N   1       1.083   0.229   0.051  0.00  0.00     0.067 A 
ENDROOT
BRANCH   7   8
HETATM    8  C   UNK N   1       2.222   1.230  -0.003  0.00  0.00     0.254 C 
HETATM    9  O   UNK N   1       1.911   2.402  -0.181  0.00  0.00    -0.268 OA
HETATM   10  N   UNK N   1       3.546   0.981   0.163  0.00  0.00    -0.356 N 
HETATM   11  H   UNK N   1       4.133   1.767   0.074  0.00  0.00     0.162 HD
BRANCH  10  12
HETATM   12  C   UNK N   1       4.220  -0.253   0.447  0.00  0.00     0.132 C 
BRANCH  12  13
HETATM   13  C   UNK N   1       5.423  -0.400  -0.477  0.00  0.00     0.130 C 
BRANCH  13  14
HETATM   14  C   UNK N   1       6.453   0.674  -0.222  0.00  0.00     0.259 C 
HETATM   15  O   UNK N   1       6.171   1.841  -0.443  0.00  0.00    -0.265 OA
BRANCH  14  16
HETATM   16  O   UNK N   1       7.692   0.369   0.232  0.00  0.00    -0.326 OA
HETATM   17  C   UNK N   1       8.089  -0.919   0.499  0.00  0.00     0.213 C 
ENDBRANCH  14  16
ENDBRANCH  13  14
ENDBRANCH  12  13
ENDBRANCH  10  12
ENDBRANCH   7   8
BRANCH   6  18
HETATM   18  O   UNK N   1       2.298  -1.863  -0.061  0.00  0.00    -0.358 OA
HETATM   19  H   UNK N   1       2.299  -2.798  -0.128  0.00  0.00     0.217 HD
ENDBRANCH   6  18
BRANCH   1  20
HETATM   20  C   UNK N   1      -2.669   0.817   0.136  0.00  0.00     0.013 A 
HETATM   21  C   UNK N   1      -3.924   0.166   0.089  0.00  0.00     0.130 A 
HETATM   22  F   UNK N   1      -4.018  -1.186   0.068  0.00  0.00    -0.205 F 
HETATM   23  C   UNK N   1      -5.102   0.922   0.043  0.00  0.00     0.085 A 
HETATM   24  C   UNK N   1      -5.049   2.319   0.047  0.00  0.00     0.119 A 
HETATM   25  F   UNK N   1      -6.191   3.044  -0.013  0.00  0.00    -0.206 F 
HETATM   26  C   UNK N   1      -3.819   2.969   0.105  0.00  0.00     0.043 A 
HETATM   27  C   UNK N   1      -2.642   2.225   0.147  0.00  0.00     0.018 A 
ENDBRANCH   1  20
TORSDOF 7
