MODEL 1
REMARK VINA RESULT:      -7.0      0.000      0.000
REMARK  7 active torsions:
REMARK  status: ('A' for Active; 'I' for Inactive)
REMARK    1  A    between atoms: C_2  and  C_4 
REMARK    2  A    between atoms: C_2  and  O_3 
REMARK    3  A    between atoms: C_4  and  C_5 
REMARK    4  A    between atoms: C_5  and  N_6 
REMARK       I    between atoms: N_6  and  C_7 
REMARK    5  A    between atoms: C_7  and  C_9 
REMARK    6  A    between atoms: C_11  and  O_12 
REMARK    7  A    between atoms: C_16  and  C_17 
ROOT
HETATM    1  C   UNK N   1      35.844  15.229  10.680  0.00  0.00     0.067 A 
HETATM    2  C   UNK N   1      35.683  14.994  12.047  0.00  0.00     0.032 A 
HETATM    3  C   UNK N   1      36.540  14.245   9.922  0.00  0.00     0.098 A 
HETATM    4  C   UNK N   1      37.002  13.073  10.555  0.00  0.00     0.041 A 
HETATM    5  I   UNK N   1      38.050  11.594   9.465  0.00  0.00    -0.042 I 
HETATM    6  C   UNK N   1      36.802  12.879  11.925  0.00  0.00     0.033 A 
HETATM    7  C   UNK N   1      36.140  13.848  12.686  0.00  0.00    -0.021 A 
ENDROOT
BRANCH   1   8
HETATM    8  C   UNK N   1      35.279  16.549  10.209  0.00  0.00     0.254 C 
HETATM    9  N   UNK N   1      34.182  16.718   9.426  0.00  0.00    -0.356 N 
HETATM   10  H   UNK N   1      33.983  17.645   9.160  0.00  0.00     0.162 HD
HETATM   11  O   UNK N   1      35.832  17.563  10.604  0.00  0.00    -0.268 OA
BRANCH   9  12
HETATM   12  C   UNK N   1      33.278  15.718   8.936  0.00  0.00     0.133 C 
BRANCH  12  13
HETATM   13  C   UNK N   1      33.098  15.868   7.431  0.00  0.00     0.129 C 
BRANCH  13  14
HETATM   14  C   UNK N   1      34.293  16.508   6.789  0.00  0.00     0.140 C 
HETATM   15  O   UNK N   1      35.269  15.833   6.512  0.00  0.00    -0.650 OA
BRANCH  14  16
HETATM   16  O   UNK N   1      34.288  17.826   6.504  0.00  0.00    -0.776 OA
HETATM   17  H   UNK N   1      33.672  18.411   6.900  0.00  0.00     0.167 HD
ENDBRANCH  14  16
ENDBRANCH  13  14
ENDBRANCH  12  13
ENDBRANCH   9  12
ENDBRANCH   1   8
BRANCH   3  18
HETATM   18  O   UNK N   1      36.813  14.411   8.621  0.00  0.00    -0.358 OA
HETATM   19  H   UNK N   1      37.701  14.480   8.331  0.00  0.00     0.217 HD
ENDBRANCH   3  18
BRANCH   7  20
HETATM   20  C   UNK N   1      35.958  13.702  14.159  0.00  0.00     0.013 A 
HETATM   21  C   UNK N   1      34.958  12.859  14.709  0.00  0.00     0.130 A 
HETATM   22  C   UNK N   1      34.789  12.776  16.090  0.00  0.00     0.085 A 
HETATM   23  F   UNK N   1      34.135  12.118  13.922  0.00  0.00    -0.205 F 
HETATM   24  C   UNK N   1      35.601  13.517  16.945  0.00  0.00     0.119 A 
HETATM   25  C   UNK N   1      36.597  14.343  16.420  0.00  0.00     0.043 A 
HETATM   26  F   UNK N   1      35.416  13.438  18.283  0.00  0.00    -0.206 F 
HETATM   27  C   UNK N   1      36.776  14.435  15.037  0.00  0.00     0.018 A 
ENDBRANCH   7  20
TORSDOF 7
ENDMDL
MODEL 2
REMARK VINA RESULT:      -6.7     13.106     15.006
REMARK  7 active torsions:
REMARK  status: ('A' for Active; 'I' for Inactive)
REMARK    1  A    between atoms: C_2  and  C_4 
REMARK    2  A    between atoms: C_2  and  O_3 
REMARK    3  A    between atoms: C_4  and  C_5 
REMARK    4  A    between atoms: C_5  and  N_6 
REMARK       I    between atoms: N_6  and  C_7 
REMARK    5  A    between atoms: C_7  and  C_9 
REMARK    6  A    between atoms: C_11  and  O_12 
REMARK    7  A    between atoms: C_16  and  C_17 
ROOT
HETATM    1  C   UNK N   1      20.907  16.101   6.700  0.00  0.00     0.067 A 
HETATM    2  C   UNK N   1      21.520  15.391   7.735  0.00  0.00     0.032 A 
HETATM    3  C   UNK N   1      20.250  15.347   5.686  0.00  0.00     0.098 A 
HETATM    4  C   UNK N   1      20.209  13.941   5.776  0.00  0.00     0.041 A 
HETATM    5  I   UNK N   1      19.253  12.786   4.284  0.00  0.00    -0.042 I 
HETATM    6  C   UNK N   1      20.826  13.279   6.842  0.00  0.00     0.033 A 
HETATM    7  C   UNK N   1      21.494  14.006   7.833  0.00  0.00    -0.021 A 
ENDROOT
BRANCH   1   8
HETATM    8  C   UNK N   1      21.078  17.599   6.792  0.00  0.00     0.254 C 
HETATM    9  N   UNK N   1      21.799  18.378   5.945  0.00  0.00    -0.356 N 
HETATM   10  H   UNK N   1      21.857  19.332   6.182  0.00  0.00     0.162 HD
HETATM   11  O   UNK N   1      20.477  18.174   7.686  0.00  0.00    -0.268 OA
BRANCH   9  12
HETATM   12  C   UNK N   1      22.488  17.988   4.749  0.00  0.00     0.133 C 
BRANCH  12  13
HETATM   13  C   UNK N   1      22.196  18.979   3.630  0.00  0.00     0.129 C 
BRANCH  13  14
HETATM   14  C   UNK N   1      20.755  19.393   3.617  0.00  0.00     0.140 C 
HETATM   15  O   UNK N   1      20.448  20.539   3.895  0.00  0.00    -0.650 OA
BRANCH  14  16
HETATM   16  O   UNK N   1      19.796  18.506   3.283  0.00  0.00    -0.776 OA
HETATM   17  H   UNK N   1      19.753  18.128   2.427  0.00  0.00     0.167 HD
ENDBRANCH  14  16
ENDBRANCH  13  14
ENDBRANCH  12  13
ENDBRANCH   9  12
ENDBRANCH   1   8
BRANCH   3  18
HETATM   18  O   UNK N   1      19.699  15.928   4.612  0.00  0.00    -0.358 OA
HETATM   19  H   UNK N   1      19.936  16.803   4.376  0.00  0.00     0.217 HD
ENDBRANCH   3  18
BRANCH   7  20
HETATM   20  C   UNK N   1      22.212  13.332   8.953  0.00  0.00     0.013 A 
HETATM   21  C   UNK N   1      21.546  12.955  10.149  0.00  0.00     0.130 A 
HETATM   22  C   UNK N   1      22.255  12.362  11.192  0.00  0.00     0.085 A 
HETATM   23  F   UNK N   1      20.215  13.162  10.321  0.00  0.00    -0.205 F 
HETATM   24  C   UNK N   1      23.623  12.132  11.073  0.00  0.00     0.119 A 
HETATM   25  C   UNK N   1      24.291  12.487   9.899  0.00  0.00     0.043 A 
HETATM   26  F   UNK N   1      24.302  11.570  12.099  0.00  0.00    -0.206 F 
HETATM   27  C   UNK N   1      23.591  13.082   8.845  0.00  0.00     0.018 A 
ENDBRANCH   7  20
TORSDOF 7
ENDMDL
MODEL 3
REMARK VINA RESULT:      -6.5      4.589      8.676
REMARK  7 active torsions:
REMARK  status: ('A' for Active; 'I' for Inactive)
REMARK    1  A    between atoms: C_2  and  C_4 
REMARK    2  A    between atoms: C_2  and  O_3 
REMARK    3  A    between atoms: C_4  and  C_5 
REMARK    4  A    between atoms: C_5  and  N_6 
REMARK       I    between atoms: N_6  and  C_7 
REMARK    5  A    between atoms: C_7  and  C_9 
REMARK    6  A    between atoms: C_11  and  O_12 
REMARK    7  A    between atoms: C_16  and  C_17 
ROOT
HETATM    1  C   UNK N   1      33.784  17.121   6.935  0.00  0.00     0.067 A 
HETATM    2  C   UNK N   1      32.439  17.473   6.812  0.00  0.00     0.032 A 
HETATM    3  C   UNK N   1      34.300  16.166   6.014  0.00  0.00     0.098 A 
HETATM    4  C   UNK N   1      33.464  15.643   5.007  0.00  0.00     0.041 A 
HETATM    5  I   UNK N   1      34.190  14.213   3.629  0.00  0.00    -0.042 I 
HETATM    6  C   UNK N   1      32.125  16.040   4.918  0.00  0.00     0.033 A 
HETATM    7  C   UNK N   1      31.600  16.961   5.831  0.00  0.00    -0.021 A 
ENDROOT
BRANCH   1   8
HETATM    8  C   UNK N   1      34.496  17.794   8.086  0.00  0.00     0.254 C 
HETATM    9  N   UNK N   1      34.658  17.286   9.335  0.00  0.00    -0.356 N 
HETATM   10  H   UNK N   1      35.095  17.880   9.987  0.00  0.00     0.162 HD
HETATM   11  O   UNK N   1      35.013  18.877   7.864  0.00  0.00    -0.268 OA
BRANCH   9  12
HETATM   12  C   UNK N   1      34.273  15.994   9.826  0.00  0.00     0.133 C 
BRANCH  12  13
HETATM   13  C   UNK N   1      35.344  14.964   9.485  0.00  0.00     0.129 C 
BRANCH  13  14
HETATM   14  C   UNK N   1      36.487  15.010  10.453  0.00  0.00     0.140 C 
HETATM   15  O   UNK N   1      36.981  13.973  10.860  0.00  0.00    -0.650 OA
BRANCH  14  16
HETATM   16  O   UNK N   1      36.982  16.194  10.866  0.00  0.00    -0.776 OA
HETATM   17  H   UNK N   1      37.890  16.300  11.073  0.00  0.00     0.167 HD
ENDBRANCH  14  16
ENDBRANCH  13  14
ENDBRANCH  12  13
ENDBRANCH   9  12
ENDBRANCH   1   8
BRANCH   3  18
HETATM   18  O   UNK N   1      35.556  15.705   6.095  0.00  0.00    -0.358 OA
HETATM   19  H   UNK N   1      36.009  15.715   6.916  0.00  0.00     0.217 HD
ENDBRANCH   3  18
BRANCH   7  20
HETATM   20  C   UNK N   1      30.165  17.364   5.802  0.00  0.00     0.013 A 
HETATM   21  C   UNK N   1      29.337  17.265   6.951  0.00  0.00     0.130 A 
HETATM   22  C   UNK N   1      27.989  17.613   6.878  0.00  0.00     0.085 A 
HETATM   23  F   UNK N   1      29.818  16.829   8.143  0.00  0.00    -0.205 F 
HETATM   24  C   UNK N   1      27.440  18.062   5.680  0.00  0.00     0.119 A 
HETATM   25  C   UNK N   1      28.243  18.175   4.543  0.00  0.00     0.043 A 
HETATM   26  F   UNK N   1      26.127  18.381   5.621  0.00  0.00    -0.206 F 
HETATM   27  C   UNK N   1      29.596  17.829   4.603  0.00  0.00     0.018 A 
ENDBRANCH   7  20
TORSDOF 7
ENDMDL
MODEL 4
REMARK VINA RESULT:      -6.5      3.159      4.754
REMARK  7 active torsions:
REMARK  status: ('A' for Active; 'I' for Inactive)
REMARK    1  A    between atoms: C_2  and  C_4 
REMARK    2  A    between atoms: C_2  and  O_3 
REMARK    3  A    between atoms: C_4  and  C_5 
REMARK    4  A    between atoms: C_5  and  N_6 
REMARK       I    between atoms: N_6  and  C_7 
REMARK    5  A    between atoms: C_7  and  C_9 
REMARK    6  A    between atoms: C_11  and  O_12 
REMARK    7  A    between atoms: C_16  and  C_17 
ROOT
HETATM    1  C   UNK N   1      36.661  12.861  14.640  0.00  0.00     0.067 A 
HETATM    2  C   UNK N   1      36.096  12.587  15.887  0.00  0.00     0.032 A 
HETATM    3  C   UNK N   1      37.320  11.792  13.969  0.00  0.00     0.098 A 
HETATM    4  C   UNK N   1      37.351  10.511  14.555  0.00  0.00     0.041 A 
HETATM    5  I   UNK N   1      38.331   8.902  13.595  0.00  0.00    -0.042 I 
HETATM    6  C   UNK N   1      36.757  10.285  15.801  0.00  0.00     0.033 A 
HETATM    7  C   UNK N   1      36.125  11.332  16.482  0.00  0.00    -0.021 A 
ENDROOT
BRANCH   1   8
HETATM    8  C   UNK N   1      36.520  14.300  14.201  0.00  0.00     0.254 C 
HETATM    9  N   UNK N   1      35.882  14.739  13.086  0.00  0.00    -0.356 N 
HETATM   10  H   UNK N   1      35.934  15.707  12.914  0.00  0.00     0.162 HD
HETATM   11  O   UNK N   1      36.986  15.155  14.937  0.00  0.00    -0.268 OA
BRANCH   9  12
HETATM   12  C   UNK N   1      35.141  13.972  12.125  0.00  0.00     0.133 C 
BRANCH  12  13
HETATM   13  C   UNK N   1      35.049  14.733  10.808  0.00  0.00     0.129 C 
BRANCH  13  14
HETATM   14  C   UNK N   1      35.817  16.020  10.855  0.00  0.00     0.140 C 
HETATM   15  O   UNK N   1      35.223  17.078  10.964  0.00  0.00    -0.650 OA
BRANCH  14  16
HETATM   16  O   UNK N   1      37.163  16.011  10.790  0.00  0.00    -0.776 OA
HETATM   17  H   UNK N   1      37.665  16.793  10.913  0.00  0.00     0.167 HD
ENDBRANCH  14  16
ENDBRANCH  13  14
ENDBRANCH  12  13
ENDBRANCH   9  12
ENDBRANCH   1   8
BRANCH   3  18
HETATM   18  O   UNK N   1      37.959  11.970  12.804  0.00  0.00    -0.358 OA
HETATM   19  H   UNK N   1      37.680  11.508  12.039  0.00  0.00     0.217 HD
ENDBRANCH   3  18
BRANCH   7  20
HETATM   20  C   UNK N   1      35.531  11.143  17.836  0.00  0.00     0.013 A 
HETATM   21  C   UNK N   1      35.367  12.226  18.739  0.00  0.00     0.130 A 
HETATM   22  C   UNK N   1      34.845  12.006  20.013  0.00  0.00     0.085 A 
HETATM   23  F   UNK N   1      35.715  13.495  18.404  0.00  0.00    -0.205 F 
HETATM   24  C   UNK N   1      34.477  10.725  20.413  0.00  0.00     0.119 A 
HETATM   25  C   UNK N   1      34.621   9.650  19.533  0.00  0.00     0.043 A 
HETATM   26  F   UNK N   1      33.985  10.524  21.657  0.00  0.00    -0.206 F 
HETATM   27  C   UNK N   1      35.143   9.857  18.253  0.00  0.00     0.018 A 
ENDBRANCH   7  20
TORSDOF 7
ENDMDL
MODEL 5
REMARK VINA RESULT:      -6.5      7.336     10.174
REMARK  7 active torsions:
REMARK  status: ('A' for Active; 'I' for Inactive)
REMARK    1  A    between atoms: C_2  and  C_4 
REMARK    2  A    between atoms: C_2  and  O_3 
REMARK    3  A    between atoms: C_4  and  C_5 
REMARK    4  A    between atoms: C_5  and  N_6 
REMARK       I    between atoms: N_6  and  C_7 
REMARK    5  A    between atoms: C_7  and  C_9 
REMARK    6  A    between atoms: C_11  and  O_12 
REMARK    7  A    between atoms: C_16  and  C_17 
ROOT
HETATM    1  C   UNK N   1      29.349  17.653   7.196  0.00  0.00     0.067 A 
HETATM    2  C   UNK N   1      30.238  16.942   6.388  0.00  0.00     0.032 A 
HETATM    3  C   UNK N   1      28.309  18.378   6.548  0.00  0.00     0.098 A 
HETATM    4  C   UNK N   1      28.191  18.327   5.145  0.00  0.00     0.041 A 
HETATM    5  I   UNK N   1      26.666  19.401   4.146  0.00  0.00    -0.042 I 
HETATM    6  C   UNK N   1      29.100  17.588   4.381  0.00  0.00     0.033 A 
HETATM    7  C   UNK N   1      30.140  16.889   5.003  0.00  0.00    -0.021 A 
ENDROOT
BRANCH   1   8
HETATM    8  C   UNK N   1      29.661  17.578   8.673  0.00  0.00     0.254 C 
HETATM    9  N   UNK N   1      30.821  17.960   9.267  0.00  0.00    -0.356 N 
HETATM   10  H   UNK N   1      30.885  17.788  10.235  0.00  0.00     0.162 HD
HETATM   11  O   UNK N   1      28.774  17.177   9.409  0.00  0.00    -0.268 OA
BRANCH   9  12
HETATM   12  C   UNK N   1      31.965  18.581   8.665  0.00  0.00     0.133 C 
BRANCH  12  13
HETATM   13  C   UNK N   1      33.086  17.562   8.499  0.00  0.00     0.129 C 
BRANCH  13  14
HETATM   14  C   UNK N   1      34.270  18.148   7.790  0.00  0.00     0.140 C 
HETATM   15  O   UNK N   1      34.546  17.782   6.661  0.00  0.00    -0.650 OA
BRANCH  14  16
HETATM   16  O   UNK N   1      35.023  19.092   8.391  0.00  0.00    -0.776 OA
HETATM   17  H   UNK N   1      35.959  19.083   8.332  0.00  0.00     0.167 HD
ENDBRANCH  14  16
ENDBRANCH  13  14
ENDBRANCH  12  13
ENDBRANCH   9  12
ENDBRANCH   1   8
BRANCH   3  18
HETATM   18  O   UNK N   1      27.451  19.152   7.228  0.00  0.00    -0.358 OA
HETATM   19  H   UNK N   1      26.743  18.765   7.704  0.00  0.00     0.217 HD
ENDBRANCH   3  18
BRANCH   7  20
HETATM   20  C   UNK N   1      31.161  16.137   4.218  0.00  0.00     0.013 A 
HETATM   21  C   UNK N   1      32.375  16.741   3.798  0.00  0.00     0.130 A 
HETATM   22  C   UNK N   1      33.290  16.021   3.032  0.00  0.00     0.085 A 
HETATM   23  F   UNK N   1      32.683  18.025   4.116  0.00  0.00    -0.205 F 
HETATM   24  C   UNK N   1      33.024  14.703   2.671  0.00  0.00     0.119 A 
HETATM   25  C   UNK N   1      31.840  14.091   3.085  0.00  0.00     0.043 A 
HETATM   26  F   UNK N   1      33.914  14.021   1.914  0.00  0.00    -0.206 F 
HETATM   27  C   UNK N   1      30.914  14.802   3.854  0.00  0.00     0.018 A 
ENDBRANCH   7  20
TORSDOF 7
ENDMDL
MODEL 6
REMARK VINA RESULT:      -6.5      5.855      8.254
REMARK  7 active torsions:
REMARK  status: ('A' for Active; 'I' for Inactive)
REMARK    1  A    between atoms: C_2  and  C_4 
REMARK    2  A    between atoms: C_2  and  O_3 
REMARK    3  A    between atoms: C_4  and  C_5 
REMARK    4  A    between atoms: C_5  and  N_6 
REMARK       I    between atoms: N_6  and  C_7 
REMARK    5  A    between atoms: C_7  and  C_9 
REMARK    6  A    between atoms: C_11  and  O_12 
REMARK    7  A    between atoms: C_16  and  C_17 
ROOT
HETATM    1  C   UNK N   1      29.101  17.303   7.677  0.00  0.00     0.067 A 
HETATM    2  C   UNK N   1      30.315  17.161   8.352  0.00  0.00     0.032 A 
HETATM    3  C   UNK N   1      29.000  16.731   6.377  0.00  0.00     0.098 A 
HETATM    4  C   UNK N   1      30.094  16.023   5.839  0.00  0.00     0.041 A 
HETATM    5  I   UNK N   1      29.988  15.170   3.907  0.00  0.00    -0.042 I 
HETATM    6  C   UNK N   1      31.285  15.897   6.562  0.00  0.00     0.033 A 
HETATM    7  C   UNK N   1      31.404  16.474   7.831  0.00  0.00    -0.021 A 
ENDROOT
BRANCH   1   8
HETATM    8  C   UNK N   1      28.064  18.103   8.432  0.00  0.00     0.254 C 
HETATM    9  N   UNK N   1      27.564  19.312   8.069  0.00  0.00    -0.356 N 
HETATM   10  H   UNK N   1      26.938  19.727   8.706  0.00  0.00     0.162 HD
HETATM   11  O   UNK N   1      27.598  17.598   9.441  0.00  0.00    -0.268 OA
BRANCH   9  12
HETATM   12  C   UNK N   1      27.834  20.064   6.877  0.00  0.00     0.133 C 
BRANCH  12  13
HETATM   13  C   UNK N   1      26.552  20.712   6.367  0.00  0.00     0.129 C 
BRANCH  13  14
HETATM   14  C   UNK N   1      25.878  19.868   5.327  0.00  0.00     0.140 C 
HETATM   15  O   UNK N   1      25.538  20.364   4.268  0.00  0.00    -0.650 OA
BRANCH  14  16
HETATM   16  O   UNK N   1      25.659  18.557   5.553  0.00  0.00    -0.776 OA
HETATM   17  H   UNK N   1      25.931  18.144   6.350  0.00  0.00     0.167 HD
ENDBRANCH  14  16
ENDBRANCH  13  14
ENDBRANCH  12  13
ENDBRANCH   9  12
ENDBRANCH   1   8
BRANCH   3  18
HETATM   18  O   UNK N   1      27.906  16.877   5.618  0.00  0.00    -0.358 OA
HETATM   19  H   UNK N   1      27.073  17.033   6.017  0.00  0.00     0.217 HD
ENDBRANCH   3  18
BRANCH   7  20
HETATM   20  C   UNK N   1      32.675  16.408   8.607  0.00  0.00     0.013 A 
HETATM   21  C   UNK N   1      33.616  17.471   8.592  0.00  0.00     0.130 A 
HETATM   22  C   UNK N   1      34.813  17.360   9.298  0.00  0.00     0.085 A 
HETATM   23  F   UNK N   1      33.392  18.615   7.895  0.00  0.00    -0.205 F 
HETATM   24  C   UNK N   1      35.099  16.208  10.025  0.00  0.00     0.119 A 
HETATM   25  C   UNK N   1      34.179  15.158  10.059  0.00  0.00     0.043 A 
HETATM   26  F   UNK N   1      36.272  16.108  10.693  0.00  0.00    -0.206 F 
HETATM   27  C   UNK N   1      32.975  15.257   9.356  0.00  0.00     0.018 A 
ENDBRANCH   7  20
TORSDOF 7
ENDMDL
MODEL 7
REMARK VINA RESULT:      -6.3     18.604     20.956
REMARK  7 active torsions:
REMARK  status: ('A' for Active; 'I' for Inactive)
REMARK    1  A    between atoms: C_2  and  C_4 
REMARK    2  A    between atoms: C_2  and  O_3 
REMARK    3  A    between atoms: C_4  and  C_5 
REMARK    4  A    between atoms: C_5  and  N_6 
REMARK       I    between atoms: N_6  and  C_7 
REMARK    5  A    between atoms: C_7  and  C_9 
REMARK    6  A    between atoms: C_11  and  O_12 
REMARK    7  A    between atoms: C_16  and  C_17 
ROOT
HETATM    1  C   UNK N   1      27.457  23.966  -4.891  0.00  0.00     0.067 A 
HETATM    2  C   UNK N   1      28.696  23.324  -4.838  0.00  0.00     0.032 A 
HETATM    3  C   UNK N   1      26.608  23.667  -5.994  0.00  0.00     0.098 A 
HETATM    4  C   UNK N   1      27.021  22.726  -6.959  0.00  0.00     0.041 A 
HETATM    5  I   UNK N   1      25.793  22.264  -8.618  0.00  0.00    -0.042 I 
HETATM    6  C   UNK N   1      28.267  22.099  -6.853  0.00  0.00     0.033 A 
HETATM    7  C   UNK N   1      29.120  22.400  -5.786  0.00  0.00    -0.021 A 
ENDROOT
BRANCH   1   8
HETATM    8  C   UNK N   1      27.218  24.940  -3.760  0.00  0.00     0.254 C 
HETATM    9  N   UNK N   1      27.475  26.274  -3.784  0.00  0.00    -0.356 N 
HETATM   10  H   UNK N   1      27.318  26.757  -2.941  0.00  0.00     0.162 HD
HETATM   11  O   UNK N   1      26.706  24.499  -2.744  0.00  0.00    -0.268 OA
BRANCH   9  12
HETATM   12  C   UNK N   1      27.948  27.068  -4.881  0.00  0.00     0.133 C 
BRANCH  12  13
HETATM   13  C   UNK N   1      26.904  28.112  -5.258  0.00  0.00     0.129 C 
BRANCH  13  14
HETATM   14  C   UNK N   1      25.571  27.815  -4.639  0.00  0.00     0.140 C 
HETATM   15  O   UNK N   1      24.754  27.145  -5.246  0.00  0.00    -0.650 OA
BRANCH  14  16
HETATM   16  O   UNK N   1      25.277  28.273  -3.406  0.00  0.00    -0.776 OA
HETATM   17  H   UNK N   1      25.722  29.012  -3.038  0.00  0.00     0.167 HD
ENDBRANCH  14  16
ENDBRANCH  13  14
ENDBRANCH  12  13
ENDBRANCH   9  12
ENDBRANCH   1   8
BRANCH   3  18
HETATM   18  O   UNK N   1      25.434  24.286  -6.176  0.00  0.00    -0.358 OA
HETATM   19  H   UNK N   1      25.299  24.830  -6.927  0.00  0.00     0.217 HD
ENDBRANCH   3  18
BRANCH   7  20
HETATM   20  C   UNK N   1      30.477  21.795  -5.671  0.00  0.00     0.013 A 
HETATM   21  C   UNK N   1      30.865  21.039  -4.533  0.00  0.00     0.130 A 
HETATM   22  C   UNK N   1      32.156  20.521  -4.440  0.00  0.00     0.085 A 
HETATM   23  F   UNK N   1      30.010  20.803  -3.506  0.00  0.00    -0.205 F 
HETATM   24  C   UNK N   1      33.078  20.737  -5.461  0.00  0.00     0.119 A 
HETATM   25  C   UNK N   1      32.709  21.468  -6.592  0.00  0.00     0.043 A 
HETATM   26  F   UNK N   1      34.331  20.240  -5.351  0.00  0.00    -0.206 F 
HETATM   27  C   UNK N   1      31.418  21.994  -6.697  0.00  0.00     0.018 A 
ENDBRANCH   7  20
TORSDOF 7
ENDMDL
MODEL 8
REMARK VINA RESULT:      -6.2     17.666     21.246
REMARK  7 active torsions:
REMARK  status: ('A' for Active; 'I' for Inactive)
REMARK    1  A    between atoms: C_2  and  C_4 
REMARK    2  A    between atoms: C_2  and  O_3 
REMARK    3  A    between atoms: C_4  and  C_5 
REMARK    4  A    between atoms: C_5  and  N_6 
REMARK       I    between atoms: N_6  and  C_7 
REMARK    5  A    between atoms: C_7  and  C_9 
REMARK    6  A    between atoms: C_11  and  O_12 
REMARK    7  A    between atoms: C_16  and  C_17 
ROOT
HETATM    1  C   UNK N   1      29.281  22.939  -6.462  0.00  0.00     0.067 A 
HETATM    2  C   UNK N   1      28.794  24.105  -5.869  0.00  0.00     0.032 A 
HETATM    3  C   UNK N   1      28.346  22.105  -7.138  0.00  0.00     0.098 A 
HETATM    4  C   UNK N   1      26.993  22.492  -7.215  0.00  0.00     0.041 A 
HETATM    5  I   UNK N   1      25.571  21.274  -8.199  0.00  0.00    -0.042 I 
HETATM    6  C   UNK N   1      26.558  23.679  -6.617  0.00  0.00     0.033 A 
HETATM    7  C   UNK N   1      27.463  24.497  -5.931  0.00  0.00    -0.021 A 
ENDROOT
BRANCH   1   8
HETATM    8  C   UNK N   1      30.761  22.711  -6.253  0.00  0.00     0.254 C 
HETATM    9  N   UNK N   1      31.321  21.797  -5.420  0.00  0.00    -0.356 N 
HETATM   10  H   UNK N   1      32.303  21.818  -5.355  0.00  0.00     0.162 HD
HETATM   11  O   UNK N   1      31.528  23.380  -6.926  0.00  0.00    -0.268 OA
BRANCH   9  12
HETATM   12  C   UNK N   1      30.664  20.803  -4.620  0.00  0.00     0.133 C 
BRANCH  12  13
HETATM   13  C   UNK N   1      30.098  21.439  -3.357  0.00  0.00     0.129 C 
BRANCH  13  14
HETATM   14  C   UNK N   1      31.160  22.136  -2.561  0.00  0.00     0.140 C 
HETATM   15  O   UNK N   1      30.973  23.270  -2.157  0.00  0.00    -0.650 OA
BRANCH  14  16
HETATM   16  O   UNK N   1      32.318  21.506  -2.276  0.00  0.00    -0.776 OA
HETATM   17  H   UNK N   1      33.146  21.868  -2.522  0.00  0.00     0.167 HD
ENDBRANCH  14  16
ENDBRANCH  13  14
ENDBRANCH  12  13
ENDBRANCH   9  12
ENDBRANCH   1   8
BRANCH   3  18
HETATM   18  O   UNK N   1      28.698  20.928  -7.672  0.00  0.00    -0.358 OA
HETATM   19  H   UNK N   1      28.954  20.877  -8.572  0.00  0.00     0.217 HD
ENDBRANCH   3  18
BRANCH   7  20
HETATM   20  C   UNK N   1      27.025  25.739  -5.233  0.00  0.00     0.013 A 
HETATM   21  C   UNK N   1      26.737  25.753  -3.842  0.00  0.00     0.130 A 
HETATM   22  C   UNK N   1      26.291  26.923  -3.229  0.00  0.00     0.085 A 
HETATM   23  F   UNK N   1      26.874  24.644  -3.072  0.00  0.00    -0.205 F 
HETATM   24  C   UNK N   1      26.126  28.090  -3.971  0.00  0.00     0.119 A 
HETATM   25  C   UNK N   1      26.417  28.095  -5.337  0.00  0.00     0.043 A 
HETATM   26  F   UNK N   1      25.679  29.214  -3.365  0.00  0.00    -0.206 F 
HETATM   27  C   UNK N   1      26.864  26.929  -5.964  0.00  0.00     0.018 A 
ENDBRANCH   7  20
TORSDOF 7
ENDMDL
MODEL 9
REMARK VINA RESULT:      -6.2     13.993     16.162
REMARK  7 active torsions:
REMARK  status: ('A' for Active; 'I' for Inactive)
REMARK    1  A    between atoms: C_2  and  C_4 
REMARK    2  A    between atoms: C_2  and  O_3 
REMARK    3  A    between atoms: C_4  and  C_5 
REMARK    4  A    between atoms: C_5  and  N_6 
REMARK       I    between atoms: N_6  and  C_7 
REMARK    5  A    between atoms: C_7  and  C_9 
REMARK    6  A    between atoms: C_11  and  O_12 
REMARK    7  A    between atoms: C_16  and  C_17 
ROOT
HETATM    1  C   UNK N   1      20.828  16.851   3.807  0.00  0.00     0.067 A 
HETATM    2  C   UNK N   1      22.167  17.238   3.724  0.00  0.00     0.032 A 
HETATM    3  C   UNK N   1      20.358  16.373   5.063  0.00  0.00     0.098 A 
HETATM    4  C   UNK N   1      21.232  16.339   6.169  0.00  0.00     0.041 A 
HETATM    5  I   UNK N   1      20.575  15.624   8.048  0.00  0.00    -0.042 I 
HETATM    6  C   UNK N   1      22.562  16.752   6.037  0.00  0.00     0.033 A 
HETATM    7  C   UNK N   1      23.042  17.203   4.803  0.00  0.00    -0.021 A 
ENDROOT
BRANCH   1   8
HETATM    8  C   UNK N   1      20.072  16.961   2.503  0.00  0.00     0.254 C 
HETATM    9  N   UNK N   1      19.398  18.052   2.056  0.00  0.00    -0.356 N 
HETATM   10  H   UNK N   1      18.907  17.938   1.210  0.00  0.00     0.162 HD
HETATM   11  O   UNK N   1      20.103  15.994   1.759  0.00  0.00    -0.268 OA
BRANCH   9  12
HETATM   12  C   UNK N   1      19.310  19.351   2.660  0.00  0.00     0.133 C 
BRANCH  12  13
HETATM   13  C   UNK N   1      20.604  20.122   2.432  0.00  0.00     0.129 C 
BRANCH  13  14
HETATM   14  C   UNK N   1      20.669  20.705   1.052  0.00  0.00     0.140 C 
HETATM   15  O   UNK N   1      20.755  21.911   0.905  0.00  0.00    -0.650 OA
BRANCH  14  16
HETATM   16  O   UNK N   1      20.646  19.898  -0.028  0.00  0.00    -0.776 OA
HETATM   17  H   UNK N   1      21.417  19.460  -0.328  0.00  0.00     0.167 HD
ENDBRANCH  14  16
ENDBRANCH  13  14
ENDBRANCH  12  13
ENDBRANCH   9  12
ENDBRANCH   1   8
BRANCH   3  18
HETATM   18  O   UNK N   1      19.113  15.906   5.226  0.00  0.00    -0.358 OA
HETATM   19  H   UNK N   1      18.377  16.448   5.022  0.00  0.00     0.217 HD
ENDBRANCH   3  18
BRANCH   7  20
HETATM   20  C   UNK N   1      24.467  17.597   4.611  0.00  0.00     0.013 A 
HETATM   21  C   UNK N   1      25.468  16.646   4.283  0.00  0.00     0.130 A 
HETATM   22  C   UNK N   1      26.798  17.043   4.149  0.00  0.00     0.085 A 
HETATM   23  F   UNK N   1      25.174  15.334   4.096  0.00  0.00    -0.205 F 
HETATM   24  C   UNK N   1      27.159  18.374   4.335  0.00  0.00     0.119 A 
HETATM   25  C   UNK N   1      26.184  19.324   4.647  0.00  0.00     0.043 A 
HETATM   26  F   UNK N   1      28.455  18.742   4.217  0.00  0.00    -0.206 F 
HETATM   27  C   UNK N   1      24.847  18.940   4.784  0.00  0.00     0.018 A 
ENDBRANCH   7  20
TORSDOF 7
ENDMDL
