REMARK  7 active torsions:
REMARK  status: ('A' for Active; 'I' for Inactive)
REMARK    1  A    between atoms: C_2  and  C_4 
REMARK    2  A    between atoms: C_2  and  O_3 
REMARK    3  A    between atoms: C_4  and  C_5 
REMARK    4  A    between atoms: C_5  and  N_6 
REMARK       I    between atoms: N_6  and  C_7 
REMARK    5  A    between atoms: C_7  and  C_9 
REMARK    6  A    between atoms: C_11  and  O_12 
REMARK    7  A    between atoms: C_16  and  C_17 
ROOT
HETATM    1  C   UNK N   1      -1.448   0.265   0.129  0.00  0.00     0.067 A 
HETATM    2  C   UNK N   1      -0.147   0.772   0.145  0.00  0.00     0.032 A 
HETATM    3  C   UNK N   1      -1.604  -1.139  -0.048  0.00  0.00     0.098 A 
HETATM    4  C   UNK N   1      -0.464  -1.960  -0.163  0.00  0.00     0.041 A 
HETATM    5  I   UNK N   1      -0.655  -4.048  -0.439  0.00  0.00    -0.042 I 
HETATM    6  C   UNK N   1       0.819  -1.404  -0.126  0.00  0.00     0.033 A 
HETATM    7  C   UNK N   1       0.986  -0.023   0.025  0.00  0.00    -0.021 A 
ENDROOT
BRANCH   1   8
HETATM    8  C   UNK N   1      -2.523   1.319   0.261  0.00  0.00     0.254 C 
HETATM    9  N   UNK N   1      -3.812   1.107   0.632  0.00  0.00    -0.356 N 
HETATM   10  H   UNK N   1      -4.401   1.896   0.610  0.00  0.00     0.162 HD
HETATM   11  O   UNK N   1      -2.195   2.477   0.058  0.00  0.00    -0.268 OA
BRANCH   9  12
HETATM   12  C   UNK N   1      -4.426  -0.120   1.051  0.00  0.00     0.133 C 
BRANCH  12  13
HETATM   13  C   UNK N   1      -5.920   0.089   1.264  0.00  0.00     0.129 C 
BRANCH  13  14
HETATM   14  C   UNK N   1      -6.568   0.725   0.071  0.00  0.00     0.140 C 
HETATM   15  O   UNK N   1      -7.329   0.077  -0.626  0.00  0.00    -0.650 OA
BRANCH  14  16
HETATM   16  O   UNK N   1      -6.324   2.017  -0.227  0.00  0.00    -0.776 OA
HETATM   17  H   UNK N   1      -5.461   2.318  -0.434  0.00  0.00     0.167 HD
ENDBRANCH  14  16
ENDBRANCH  13  14
ENDBRANCH  12  13
ENDBRANCH   9  12
ENDBRANCH   1   8
BRANCH   3  18
HETATM   18  O   UNK N   1      -2.810  -1.713  -0.154  0.00  0.00    -0.358 OA
HETATM   19  H   UNK N   1      -3.579  -1.183  -0.229  0.00  0.00     0.217 HD
ENDBRANCH   3  18
BRANCH   7  20
HETATM   20  C   UNK N   1       2.335   0.611   0.012  0.00  0.00     0.013 A 
HETATM   21  C   UNK N   1       2.505   2.011   0.176  0.00  0.00     0.130 A 
HETATM   22  C   UNK N   1       3.778   2.576   0.119  0.00  0.00     0.085 A 
HETATM   23  F   UNK N   1       1.450   2.840   0.384  0.00  0.00    -0.205 F 
HETATM   24  C   UNK N   1       4.896   1.775  -0.098  0.00  0.00     0.119 A 
HETATM   25  C   UNK N   1       4.747   0.395  -0.250  0.00  0.00     0.043 A 
HETATM   26  F   UNK N   1       6.124   2.339  -0.166  0.00  0.00    -0.206 F 
HETATM   27  C   UNK N   1       3.476  -0.184  -0.195  0.00  0.00     0.018 A 
ENDBRANCH   7  20
TORSDOF 7
