MODEL 1
REMARK VINA RESULT:      -6.5      0.000      0.000
REMARK  7 active torsions:
REMARK  status: ('A' for Active; 'I' for Inactive)
REMARK    1  A    between atoms: C_3  and  C_4 
REMARK    2  A    between atoms: C_4  and  O_5 
REMARK    3  A    between atoms: O_5  and  C_6 
REMARK    4  A    between atoms: C_9  and  S_12 
REMARK    5  A    between atoms: S_12  and  N_15 
REMARK    6  A    between atoms: C_20  and  C_21 
REMARK       I    between atoms: C_21  and  N_23 
REMARK    7  A    between atoms: N_23  and  O_24 
ROOT
HETATM    1  C   UNK N   1      26.823  20.750   4.700  0.00  0.00     0.112 C 
HETATM    2  C   UNK N   1      27.185  20.113   5.967  0.00  0.00    -0.109 C 
HETATM    3  C   UNK N   1      27.474  19.595   7.016  0.00  0.00    -0.080 C 
ENDROOT
BRANCH   3   4
HETATM    4  C   UNK N   1      27.796  18.981   8.304  0.00  0.00     0.269 C 
BRANCH   4   5
HETATM    5  O   UNK N   1      28.334  17.727   8.114  0.00  0.00    -0.340 OA
BRANCH   5   6
HETATM    6  C   UNK N   1      29.651  17.519   7.875  0.00  0.00     0.070 A 
HETATM    7  C   UNK N   1      30.030  16.721   6.793  0.00  0.00     0.038 A 
HETATM    8  C   UNK N   1      31.385  16.525   6.504  0.00  0.00     0.027 A 
HETATM    9  C   UNK N   1      32.373  17.128   7.290  0.00  0.00     0.074 A 
HETATM   10  C   UNK N   1      31.997  17.909   8.382  0.00  0.00     0.027 A 
HETATM   11  C   UNK N   1      30.646  18.110   8.675  0.00  0.00     0.038 A 
BRANCH   9  12
HETATM   12  S   UNK N   1      34.103  16.832   6.897  0.00  0.00     0.244 S 
HETATM   13  O   UNK N   1      34.355  16.959   5.385  0.00  0.00    -0.206 OA
HETATM   14  O   UNK N   1      34.850  18.089   7.378  0.00  0.00    -0.206 OA
BRANCH  12  15
HETATM   15  N   UNK N   1      35.172  15.506   7.475  0.00  0.00    -0.191 NA
HETATM   16  C   UNK N   1      35.505  14.786   6.234  0.00  0.00     0.118 C 
HETATM   17  C   UNK N   1      36.417  13.606   6.454  0.00  0.00     0.090 C 
HETATM   18  S   UNK N   1      35.420  12.313   7.219  0.00  0.00    -0.156 SA
HETATM   19  C   UNK N   1      35.241  13.281   8.747  0.00  0.00     0.026 C 
HETATM   20  C   UNK N   1      34.488  14.635   8.477  0.00  0.00     0.186 C 
HETATM   21  C   UNK N   1      34.423  12.422   9.702  0.00  0.00     0.029 C 
HETATM   22  C   UNK N   1      36.619  13.462   9.378  0.00  0.00     0.029 C 
BRANCH  20  23
HETATM   23  C   UNK N   1      34.344  15.366   9.800  0.00  0.00     0.261 C 
HETATM   24  O   UNK N   1      33.459  15.046  10.584  0.00  0.00    -0.270 OA
HETATM   25  N   UNK N   1      35.156  16.407  10.091  0.00  0.00    -0.236 N 
HETATM   26  H   UNK N   1      35.865  16.663   9.458  0.00  0.00     0.197 HD
BRANCH  25  27
HETATM   27  O   UNK N   1      35.009  17.092  11.234  0.00  0.00    -0.287 OA
HETATM   28  H   UNK N   1      34.773  16.694  12.086  0.00  0.00     0.244 HD
ENDBRANCH  25  27
ENDBRANCH  20  23
ENDBRANCH  12  15
ENDBRANCH   9  12
ENDBRANCH   5   6
ENDBRANCH   4   5
ENDBRANCH   3   4
TORSDOF 7
ENDMDL
MODEL 2
REMARK VINA RESULT:      -6.2      3.965      5.815
REMARK  7 active torsions:
REMARK  status: ('A' for Active; 'I' for Inactive)
REMARK    1  A    between atoms: C_3  and  C_4 
REMARK    2  A    between atoms: C_4  and  O_5 
REMARK    3  A    between atoms: O_5  and  C_6 
REMARK    4  A    between atoms: C_9  and  S_12 
REMARK    5  A    between atoms: S_12  and  N_15 
REMARK    6  A    between atoms: C_20  and  C_21 
REMARK       I    between atoms: C_21  and  N_23 
REMARK    7  A    between atoms: N_23  and  O_24 
ROOT
HETATM    1  C   UNK N   1      32.675  17.163   3.817  0.00  0.00     0.112 C 
HETATM    2  C   UNK N   1      33.079  17.423   5.199  0.00  0.00    -0.109 C 
HETATM    3  C   UNK N   1      33.404  17.646   6.338  0.00  0.00    -0.080 C 
ENDROOT
BRANCH   3   4
HETATM    4  C   UNK N   1      33.774  17.944   7.722  0.00  0.00     0.269 C 
BRANCH   4   5
HETATM    5  O   UNK N   1      33.404  16.905   8.549  0.00  0.00    -0.340 OA
BRANCH   5   6
HETATM    6  C   UNK N   1      34.254  15.917   8.915  0.00  0.00     0.070 A 
HETATM    7  C   UNK N   1      35.115  16.126   9.997  0.00  0.00     0.038 A 
HETATM    8  C   UNK N   1      35.974  15.105  10.418  0.00  0.00     0.027 A 
HETATM    9  C   UNK N   1      35.978  13.866   9.767  0.00  0.00     0.074 A 
HETATM   10  C   UNK N   1      35.134  13.663   8.677  0.00  0.00     0.027 A 
HETATM   11  C   UNK N   1      34.273  14.677   8.251  0.00  0.00     0.038 A 
BRANCH   9  12
HETATM   12  S   UNK N   1      37.114  12.590  10.328  0.00  0.00     0.244 S 
HETATM   13  O   UNK N   1      37.694  11.806   9.140  0.00  0.00    -0.206 OA
HETATM   14  O   UNK N   1      38.383  13.342  10.771  0.00  0.00    -0.206 OA
BRANCH  12  15
HETATM   15  N   UNK N   1      36.892  11.398  11.657  0.00  0.00    -0.191 NA
HETATM   16  C   UNK N   1      36.906  10.107  10.948  0.00  0.00     0.118 C 
HETATM   17  C   UNK N   1      36.740   8.921  11.863  0.00  0.00     0.090 C 
HETATM   18  S   UNK N   1      35.010   8.893  12.370  0.00  0.00    -0.156 SA
HETATM   19  C   UNK N   1      35.213  10.423  13.331  0.00  0.00     0.026 C 
HETATM   20  C   UNK N   1      35.620  11.627  12.405  0.00  0.00     0.186 C 
HETATM   21  C   UNK N   1      33.861  10.705  13.973  0.00  0.00     0.029 C 
HETATM   22  C   UNK N   1      36.201  10.162  14.466  0.00  0.00     0.029 C 
BRANCH  20  23
HETATM   23  C   UNK N   1      35.733  12.870  13.269  0.00  0.00     0.261 C 
HETATM   24  O   UNK N   1      34.724  13.483  13.596  0.00  0.00    -0.270 OA
HETATM   25  N   UNK N   1      36.949  13.333  13.634  0.00  0.00    -0.236 N 
HETATM   26  H   UNK N   1      37.759  12.840  13.367  0.00  0.00     0.197 HD
BRANCH  25  27
HETATM   27  O   UNK N   1      37.066  14.456  14.356  0.00  0.00    -0.287 OA
HETATM   28  H   UNK N   1      37.792  14.639  14.974  0.00  0.00     0.244 HD
ENDBRANCH  25  27
ENDBRANCH  20  23
ENDBRANCH  12  15
ENDBRANCH   9  12
ENDBRANCH   5   6
ENDBRANCH   4   5
ENDBRANCH   3   4
TORSDOF 7
ENDMDL
MODEL 3
REMARK VINA RESULT:      -6.0      4.338      6.394
REMARK  7 active torsions:
REMARK  status: ('A' for Active; 'I' for Inactive)
REMARK    1  A    between atoms: C_3  and  C_4 
REMARK    2  A    between atoms: C_4  and  O_5 
REMARK    3  A    between atoms: O_5  and  C_6 
REMARK    4  A    between atoms: C_9  and  S_12 
REMARK    5  A    between atoms: S_12  and  N_15 
REMARK    6  A    between atoms: C_20  and  C_21 
REMARK       I    between atoms: C_21  and  N_23 
REMARK    7  A    between atoms: N_23  and  O_24 
ROOT
HETATM    1  C   UNK N   1      28.927  17.802   8.704  0.00  0.00     0.112 C 
HETATM    2  C   UNK N   1      30.364  17.828   8.426  0.00  0.00    -0.109 C 
HETATM    3  C   UNK N   1      31.545  17.862   8.192  0.00  0.00    -0.080 C 
ENDROOT
BRANCH   3   4
HETATM    4  C   UNK N   1      32.975  17.934   7.893  0.00  0.00     0.269 C 
BRANCH   4   5
HETATM    5  O   UNK N   1      33.524  16.671   7.875  0.00  0.00    -0.340 OA
BRANCH   5   6
HETATM    6  C   UNK N   1      34.063  16.086   8.971  0.00  0.00     0.070 A 
HETATM    7  C   UNK N   1      33.968  14.699   9.120  0.00  0.00     0.038 A 
HETATM    8  C   UNK N   1      34.552  14.069  10.224  0.00  0.00     0.027 A 
HETATM    9  C   UNK N   1      35.240  14.817  11.186  0.00  0.00     0.074 A 
HETATM   10  C   UNK N   1      35.319  16.202  11.049  0.00  0.00     0.027 A 
HETATM   11  C   UNK N   1      34.740  16.838   9.949  0.00  0.00     0.038 A 
BRANCH   9  12
HETATM   12  S   UNK N   1      35.957  13.969  12.601  0.00  0.00     0.244 S 
HETATM   13  O   UNK N   1      37.266  13.262  12.216  0.00  0.00    -0.206 OA
HETATM   14  O   UNK N   1      36.532  15.084  13.494  0.00  0.00    -0.206 OA
BRANCH  12  15
HETATM   15  N   UNK N   1      35.142  12.903  13.799  0.00  0.00    -0.191 NA
HETATM   16  C   UNK N   1      35.489  13.528  15.087  0.00  0.00     0.118 C 
HETATM   17  C   UNK N   1      34.907  12.808  16.276  0.00  0.00     0.090 C 
HETATM   18  S   UNK N   1      35.859  11.291  16.484  0.00  0.00    -0.156 SA
HETATM   19  C   UNK N   1      35.204  10.605  14.933  0.00  0.00     0.026 C 
HETATM   20  C   UNK N   1      35.616  11.490  13.701  0.00  0.00     0.186 C 
HETATM   21  C   UNK N   1      35.812   9.216  14.792  0.00  0.00     0.029 C 
HETATM   22  C   UNK N   1      33.695  10.420  15.077  0.00  0.00     0.029 C 
BRANCH  20  23
HETATM   23  C   UNK N   1      35.067  10.836  12.446  0.00  0.00     0.261 C 
HETATM   24  O   UNK N   1      35.806  10.175  11.726  0.00  0.00    -0.270 OA
HETATM   25  N   UNK N   1      33.777  11.026  12.091  0.00  0.00    -0.236 N 
HETATM   26  H   UNK N   1      33.186  11.560  12.670  0.00  0.00     0.197 HD
BRANCH  25  27
HETATM   27  O   UNK N   1      33.292  10.494  10.960  0.00  0.00    -0.287 OA
HETATM   28  H   UNK N   1      33.456  10.848  10.072  0.00  0.00     0.244 HD
ENDBRANCH  25  27
ENDBRANCH  20  23
ENDBRANCH  12  15
ENDBRANCH   9  12
ENDBRANCH   5   6
ENDBRANCH   4   5
ENDBRANCH   3   4
TORSDOF 7
ENDMDL
MODEL 4
REMARK VINA RESULT:      -5.9      3.467      5.128
REMARK  7 active torsions:
REMARK  status: ('A' for Active; 'I' for Inactive)
REMARK    1  A    between atoms: C_3  and  C_4 
REMARK    2  A    between atoms: C_4  and  O_5 
REMARK    3  A    between atoms: O_5  and  C_6 
REMARK    4  A    between atoms: C_9  and  S_12 
REMARK    5  A    between atoms: S_12  and  N_15 
REMARK    6  A    between atoms: C_20  and  C_21 
REMARK       I    between atoms: C_21  and  N_23 
REMARK    7  A    between atoms: N_23  and  O_24 
ROOT
HETATM    1  C   UNK N   1      33.989  14.430   2.530  0.00  0.00     0.112 C 
HETATM    2  C   UNK N   1      33.439  15.575   3.257  0.00  0.00    -0.109 C 
HETATM    3  C   UNK N   1      32.979  16.521   3.845  0.00  0.00    -0.080 C 
ENDROOT
BRANCH   3   4
HETATM    4  C   UNK N   1      32.405  17.679   4.530  0.00  0.00     0.269 C 
BRANCH   4   5
HETATM    5  O   UNK N   1      31.882  17.303   5.747  0.00  0.00    -0.340 OA
BRANCH   5   6
HETATM    6  C   UNK N   1      32.650  16.883   6.781  0.00  0.00     0.070 A 
HETATM    7  C   UNK N   1      33.767  17.639   7.150  0.00  0.00     0.038 A 
HETATM    8  C   UNK N   1      34.552  17.247   8.239  0.00  0.00     0.027 A 
HETATM    9  C   UNK N   1      34.227  16.100   8.972  0.00  0.00     0.074 A 
HETATM   10  C   UNK N   1      33.125  15.335   8.594  0.00  0.00     0.027 A 
HETATM   11  C   UNK N   1      32.336  15.721   7.508  0.00  0.00     0.038 A 
BRANCH   9  12
HETATM   12  S   UNK N   1      35.276  15.620  10.352  0.00  0.00     0.244 S 
HETATM   13  O   UNK N   1      36.759  15.628   9.946  0.00  0.00    -0.206 OA
HETATM   14  O   UNK N   1      35.274  16.830  11.304  0.00  0.00    -0.206 OA
BRANCH  12  15
HETATM   15  N   UNK N   1      35.073  14.239  11.487  0.00  0.00    -0.191 NA
HETATM   16  C   UNK N   1      35.759  14.709  12.703  0.00  0.00     0.118 C 
HETATM   17  C   UNK N   1      35.723  13.711  13.832  0.00  0.00     0.090 C 
HETATM   18  S   UNK N   1      36.879  12.396  13.401  0.00  0.00    -0.156 SA
HETATM   19  C   UNK N   1      35.823  11.848  12.025  0.00  0.00     0.026 C 
HETATM   20  C   UNK N   1      35.664  12.980  10.946  0.00  0.00     0.186 C 
HETATM   21  C   UNK N   1      36.522  10.644  11.407  0.00  0.00     0.029 C 
HETATM   22  C   UNK N   1      34.495  11.352  12.593  0.00  0.00     0.029 C 
BRANCH  20  23
HETATM   23  C   UNK N   1      34.806  12.438   9.817  0.00  0.00     0.261 C 
HETATM   24  O   UNK N   1      35.292  12.268   8.705  0.00  0.00    -0.270 OA
HETATM   25  N   UNK N   1      33.493  12.191  10.021  0.00  0.00    -0.236 N 
HETATM   26  H   UNK N   1      33.105  12.330  10.915  0.00  0.00     0.197 HD
BRANCH  25  27
HETATM   27  O   UNK N   1      32.713  11.757   9.021  0.00  0.00    -0.287 OA
HETATM   28  H   UNK N   1      33.037  11.291   8.235  0.00  0.00     0.244 HD
ENDBRANCH  25  27
ENDBRANCH  20  23
ENDBRANCH  12  15
ENDBRANCH   9  12
ENDBRANCH   5   6
ENDBRANCH   4   5
ENDBRANCH   3   4
TORSDOF 7
ENDMDL
MODEL 5
REMARK VINA RESULT:      -5.7     14.471     17.524
REMARK  7 active torsions:
REMARK  status: ('A' for Active; 'I' for Inactive)
REMARK    1  A    between atoms: C_3  and  C_4 
REMARK    2  A    between atoms: C_4  and  O_5 
REMARK    3  A    between atoms: O_5  and  C_6 
REMARK    4  A    between atoms: C_9  and  S_12 
REMARK    5  A    between atoms: S_12  and  N_15 
REMARK    6  A    between atoms: C_20  and  C_21 
REMARK       I    between atoms: C_21  and  N_23 
REMARK    7  A    between atoms: N_23  and  O_24 
ROOT
HETATM    1  C   UNK N   1      31.179  17.147 -11.222  0.00  0.00     0.112 C 
HETATM    2  C   UNK N   1      30.582  17.756 -10.033  0.00  0.00    -0.109 C 
HETATM    3  C   UNK N   1      30.083  18.248  -9.053  0.00  0.00    -0.080 C 
ENDROOT
BRANCH   3   4
HETATM    4  C   UNK N   1      29.453  18.819  -7.862  0.00  0.00     0.269 C 
BRANCH   4   5
HETATM    5  O   UNK N   1      30.401  19.414  -7.059  0.00  0.00    -0.340 OA
BRANCH   5   6
HETATM    6  C   UNK N   1      30.153  20.526  -6.326  0.00  0.00     0.070 A 
HETATM    7  C   UNK N   1      29.277  21.492  -6.829  0.00  0.00     0.038 A 
HETATM    8  C   UNK N   1      28.975  22.629  -6.072  0.00  0.00     0.027 A 
HETATM    9  C   UNK N   1      29.540  22.808  -4.805  0.00  0.00     0.074 A 
HETATM   10  C   UNK N   1      30.428  21.856  -4.310  0.00  0.00     0.027 A 
HETATM   11  C   UNK N   1      30.734  20.717  -5.060  0.00  0.00     0.038 A 
BRANCH   9  12
HETATM   12  S   UNK N   1      29.142  24.296  -3.875  0.00  0.00     0.244 S 
HETATM   13  O   UNK N   1      28.108  23.999  -2.777  0.00  0.00    -0.206 OA
HETATM   14  O   UNK N   1      30.373  24.563  -2.989  0.00  0.00    -0.206 OA
BRANCH  12  15
HETATM   15  N   UNK N   1      28.756  25.938  -4.500  0.00  0.00    -0.191 NA
HETATM   16  C   UNK N   1      29.667  26.804  -3.733  0.00  0.00     0.118 C 
HETATM   17  C   UNK N   1      29.541  28.264  -4.085  0.00  0.00     0.090 C 
HETATM   18  S   UNK N   1      27.995  28.843  -3.357  0.00  0.00    -0.156 SA
HETATM   19  C   UNK N   1      27.015  27.819  -4.496  0.00  0.00     0.026 C 
HETATM   20  C   UNK N   1      27.320  26.290  -4.292  0.00  0.00     0.186 C 
HETATM   21  C   UNK N   1      25.554  28.098  -4.168  0.00  0.00     0.029 C 
HETATM   22  C   UNK N   1      27.254  28.306  -5.923  0.00  0.00     0.029 C 
BRANCH  20  23
HETATM   23  C   UNK N   1      26.441  25.502  -5.246  0.00  0.00     0.261 C 
HETATM   24  O   UNK N   1      25.489  24.861  -4.815  0.00  0.00    -0.270 OA
HETATM   25  N   UNK N   1      26.736  25.463  -6.564  0.00  0.00    -0.236 N 
HETATM   26  H   UNK N   1      27.503  25.977  -6.907  0.00  0.00     0.197 HD
BRANCH  25  27
HETATM   27  O   UNK N   1      25.997  24.733  -7.411  0.00  0.00    -0.287 OA
HETATM   28  H   UNK N   1      25.323  24.090  -7.138  0.00  0.00     0.244 HD
ENDBRANCH  25  27
ENDBRANCH  20  23
ENDBRANCH  12  15
ENDBRANCH   9  12
ENDBRANCH   5   6
ENDBRANCH   4   5
ENDBRANCH   3   4
TORSDOF 7
ENDMDL
MODEL 6
REMARK VINA RESULT:      -5.5      5.668      7.748
REMARK  7 active torsions:
REMARK  status: ('A' for Active; 'I' for Inactive)
REMARK    1  A    between atoms: C_3  and  C_4 
REMARK    2  A    between atoms: C_4  and  O_5 
REMARK    3  A    between atoms: O_5  and  C_6 
REMARK    4  A    between atoms: C_9  and  S_12 
REMARK    5  A    between atoms: S_12  and  N_15 
REMARK    6  A    between atoms: C_20  and  C_21 
REMARK       I    between atoms: C_21  and  N_23 
REMARK    7  A    between atoms: N_23  and  O_24 
ROOT
HETATM    1  C   UNK N   1      20.321  12.299  11.349  0.00  0.00     0.112 C 
HETATM    2  C   UNK N   1      21.504  12.679  10.575  0.00  0.00    -0.109 C 
HETATM    3  C   UNK N   1      22.474  12.984   9.930  0.00  0.00    -0.080 C 
ENDROOT
BRANCH   3   4
HETATM    4  C   UNK N   1      23.645  13.329   9.122  0.00  0.00     0.269 C 
BRANCH   4   5
HETATM    5  O   UNK N   1      23.259  14.014   7.991  0.00  0.00    -0.340 OA
BRANCH   5   6
HETATM    6  C   UNK N   1      24.133  14.408   7.035  0.00  0.00     0.070 A 
HETATM    7  C   UNK N   1      25.387  13.795   6.963  0.00  0.00     0.038 A 
HETATM    8  C   UNK N   1      26.291  14.159   5.959  0.00  0.00     0.027 A 
HETATM    9  C   UNK N   1      25.949  15.134   5.016  0.00  0.00     0.074 A 
HETATM   10  C   UNK N   1      24.707  15.760   5.097  0.00  0.00     0.027 A 
HETATM   11  C   UNK N   1      23.799  15.401   6.096  0.00  0.00     0.038 A 
BRANCH   9  12
HETATM   12  S   UNK N   1      27.150  15.587   3.756  0.00  0.00     0.244 S 
HETATM   13  O   UNK N   1      27.020  14.684   2.519  0.00  0.00    -0.206 OA
HETATM   14  O   UNK N   1      26.630  16.906   3.154  0.00  0.00    -0.206 OA
BRANCH  12  15
HETATM   15  N   UNK N   1      28.907  15.923   3.952  0.00  0.00    -0.191 NA
HETATM   16  C   UNK N   1      29.520  14.600   3.744  0.00  0.00     0.118 C 
HETATM   17  C   UNK N   1      31.023  14.614   3.852  0.00  0.00     0.090 C 
HETATM   18  S   UNK N   1      31.417  14.785   5.604  0.00  0.00    -0.156 SA
HETATM   19  C   UNK N   1      30.753  16.478   5.642  0.00  0.00     0.026 C 
HETATM   20  C   UNK N   1      29.219  16.494   5.295  0.00  0.00     0.186 C 
HETATM   21  C   UNK N   1      30.963  16.985   7.062  0.00  0.00     0.029 C 
HETATM   22  C   UNK N   1      31.598  17.357   4.723  0.00  0.00     0.029 C 
BRANCH  20  23
HETATM   23  C   UNK N   1      28.731  17.929   5.384  0.00  0.00     0.261 C 
HETATM   24  O   UNK N   1      28.213  18.337   6.416  0.00  0.00    -0.270 OA
HETATM   25  N   UNK N   1      28.819  18.743   4.308  0.00  0.00    -0.236 N 
HETATM   26  H   UNK N   1      29.233  18.411   3.480  0.00  0.00     0.197 HD
BRANCH  25  27
HETATM   27  O   UNK N   1      28.348  19.997   4.358  0.00  0.00    -0.287 OA
HETATM   28  H   UNK N   1      27.623  20.289   4.932  0.00  0.00     0.244 HD
ENDBRANCH  25  27
ENDBRANCH  20  23
ENDBRANCH  12  15
ENDBRANCH   9  12
ENDBRANCH   5   6
ENDBRANCH   4   5
ENDBRANCH   3   4
TORSDOF 7
ENDMDL
MODEL 7
REMARK VINA RESULT:      -5.5      5.420      8.077
REMARK  7 active torsions:
REMARK  status: ('A' for Active; 'I' for Inactive)
REMARK    1  A    between atoms: C_3  and  C_4 
REMARK    2  A    between atoms: C_4  and  O_5 
REMARK    3  A    between atoms: O_5  and  C_6 
REMARK    4  A    between atoms: C_9  and  S_12 
REMARK    5  A    between atoms: S_12  and  N_15 
REMARK    6  A    between atoms: C_20  and  C_21 
REMARK       I    between atoms: C_21  and  N_23 
REMARK    7  A    between atoms: N_23  and  O_24 
ROOT
HETATM    1  C   UNK N   1      20.004  15.511   1.235  0.00  0.00     0.112 C 
HETATM    2  C   UNK N   1      20.229  16.774   1.939  0.00  0.00    -0.109 C 
HETATM    3  C   UNK N   1      20.412  17.809   2.529  0.00  0.00    -0.080 C 
ENDROOT
BRANCH   3   4
HETATM    4  C   UNK N   1      20.625  19.048   3.277  0.00  0.00     0.269 C 
BRANCH   4   5
HETATM    5  O   UNK N   1      21.080  18.768   4.547  0.00  0.00    -0.340 OA
BRANCH   5   6
HETATM    6  C   UNK N   1      22.175  18.008   4.786  0.00  0.00     0.070 A 
HETATM    7  C   UNK N   1      23.391  18.361   4.196  0.00  0.00     0.038 A 
HETATM    8  C   UNK N   1      24.544  17.614   4.461  0.00  0.00     0.027 A 
HETATM    9  C   UNK N   1      24.493  16.511   5.321  0.00  0.00     0.074 A 
HETATM   10  C   UNK N   1      23.277  16.146   5.895  0.00  0.00     0.027 A 
HETATM   11  C   UNK N   1      22.122  16.888   5.636  0.00  0.00     0.038 A 
BRANCH   9  12
HETATM   12  S   UNK N   1      25.994  15.565   5.616  0.00  0.00     0.244 S 
HETATM   13  O   UNK N   1      26.042  15.041   7.061  0.00  0.00    -0.206 OA
HETATM   14  O   UNK N   1      25.785  14.231   4.876  0.00  0.00    -0.206 OA
BRANCH  12  15
HETATM   15  N   UNK N   1      27.687  15.985   5.177  0.00  0.00    -0.191 NA
HETATM   16  C   UNK N   1      28.223  14.709   4.673  0.00  0.00     0.118 C 
HETATM   17  C   UNK N   1      29.659  14.799   4.225  0.00  0.00     0.090 C 
HETATM   18  S   UNK N   1      30.665  14.905   5.719  0.00  0.00    -0.156 SA
HETATM   19  C   UNK N   1      30.007  16.555   6.107  0.00  0.00     0.026 C 
HETATM   20  C   UNK N   1      28.454  16.506   6.347  0.00  0.00     0.186 C 
HETATM   21  C   UNK N   1      30.709  17.004   7.382  0.00  0.00     0.029 C 
HETATM   22  C   UNK N   1      30.425  17.523   5.002  0.00  0.00     0.029 C 
BRANCH  20  23
HETATM   23  C   UNK N   1      27.987  17.906   6.702  0.00  0.00     0.261 C 
HETATM   24  O   UNK N   1      27.893  18.761   5.829  0.00  0.00    -0.270 OA
HETATM   25  N   UNK N   1      27.724  18.228   7.988  0.00  0.00    -0.236 N 
HETATM   26  H   UNK N   1      27.803  17.539   8.688  0.00  0.00     0.197 HD
BRANCH  25  27
HETATM   27  O   UNK N   1      27.357  19.473   8.323  0.00  0.00    -0.287 OA
HETATM   28  H   UNK N   1      27.876  20.065   8.888  0.00  0.00     0.244 HD
ENDBRANCH  25  27
ENDBRANCH  20  23
ENDBRANCH  12  15
ENDBRANCH   9  12
ENDBRANCH   5   6
ENDBRANCH   4   5
ENDBRANCH   3   4
TORSDOF 7
ENDMDL
MODEL 8
REMARK VINA RESULT:      -5.4      2.896      4.062
REMARK  7 active torsions:
REMARK  status: ('A' for Active; 'I' for Inactive)
REMARK    1  A    between atoms: C_3  and  C_4 
REMARK    2  A    between atoms: C_4  and  O_5 
REMARK    3  A    between atoms: O_5  and  C_6 
REMARK    4  A    between atoms: C_9  and  S_12 
REMARK    5  A    between atoms: S_12  and  N_15 
REMARK    6  A    between atoms: C_20  and  C_21 
REMARK       I    between atoms: C_21  and  N_23 
REMARK    7  A    between atoms: N_23  and  O_24 
ROOT
HETATM    1  C   UNK N   1      27.334  12.327   2.805  0.00  0.00     0.112 C 
HETATM    2  C   UNK N   1      27.920  13.668   2.776  0.00  0.00    -0.109 C 
HETATM    3  C   UNK N   1      28.406  14.770   2.765  0.00  0.00    -0.080 C 
ENDROOT
BRANCH   3   4
HETATM    4  C   UNK N   1      29.008  16.103   2.784  0.00  0.00     0.269 C 
BRANCH   4   5
HETATM    5  O   UNK N   1      28.848  16.681   4.024  0.00  0.00    -0.340 OA
BRANCH   5   6
HETATM    6  C   UNK N   1      29.859  16.800   4.917  0.00  0.00     0.070 A 
HETATM    7  C   UNK N   1      31.170  16.551   4.500  0.00  0.00     0.038 A 
HETATM    8  C   UNK N   1      32.234  16.707   5.395  0.00  0.00     0.027 A 
HETATM    9  C   UNK N   1      31.999  17.115   6.713  0.00  0.00     0.074 A 
HETATM   10  C   UNK N   1      30.692  17.344   7.135  0.00  0.00     0.027 A 
HETATM   11  C   UNK N   1      29.624  17.193   6.247  0.00  0.00     0.038 A 
BRANCH   9  12
HETATM   12  S   UNK N   1      33.394  17.280   7.836  0.00  0.00     0.244 S 
HETATM   13  O   UNK N   1      34.646  17.774   7.093  0.00  0.00    -0.206 OA
HETATM   14  O   UNK N   1      33.093  18.536   8.675  0.00  0.00    -0.206 OA
BRANCH  12  15
HETATM   15  N   UNK N   1      33.974  16.118   9.080  0.00  0.00    -0.191 NA
HETATM   16  C   UNK N   1      35.041  16.870   9.762  0.00  0.00     0.118 C 
HETATM   17  C   UNK N   1      35.697  16.098  10.878  0.00  0.00     0.090 C 
HETATM   18  S   UNK N   1      36.744  14.852  10.103  0.00  0.00    -0.156 SA
HETATM   19  C   UNK N   1      35.295  13.956   9.466  0.00  0.00     0.026 C 
HETATM   20  C   UNK N   1      34.468  14.848   8.471  0.00  0.00     0.186 C 
HETATM   21  C   UNK N   1      35.838  12.737   8.732  0.00  0.00     0.029 C 
HETATM   22  C   UNK N   1      34.480  13.439  10.649  0.00  0.00     0.029 C 
BRANCH  20  23
HETATM   23  C   UNK N   1      33.303  14.023   7.955  0.00  0.00     0.261 C 
HETATM   24  O   UNK N   1      32.305  13.869   8.650  0.00  0.00    -0.270 OA
HETATM   25  N   UNK N   1      33.384  13.414   6.751  0.00  0.00    -0.236 N 
HETATM   26  H   UNK N   1      34.188  13.538   6.196  0.00  0.00     0.197 HD
BRANCH  25  27
HETATM   27  O   UNK N   1      32.382  12.644   6.304  0.00  0.00    -0.287 OA
HETATM   28  H   UNK N   1      31.920  12.778   5.461  0.00  0.00     0.244 HD
ENDBRANCH  25  27
ENDBRANCH  20  23
ENDBRANCH  12  15
ENDBRANCH   9  12
ENDBRANCH   5   6
ENDBRANCH   4   5
ENDBRANCH   3   4
TORSDOF 7
ENDMDL
MODEL 9
REMARK VINA RESULT:      -5.4      2.888      4.300
REMARK  7 active torsions:
REMARK  status: ('A' for Active; 'I' for Inactive)
REMARK    1  A    between atoms: C_3  and  C_4 
REMARK    2  A    between atoms: C_4  and  O_5 
REMARK    3  A    between atoms: O_5  and  C_6 
REMARK    4  A    between atoms: C_9  and  S_12 
REMARK    5  A    between atoms: S_12  and  N_15 
REMARK    6  A    between atoms: C_20  and  C_21 
REMARK       I    between atoms: C_21  and  N_23 
REMARK    7  A    between atoms: N_23  and  O_24 
ROOT
HETATM    1  C   UNK N   1      29.338  18.321   9.816  0.00  0.00     0.112 C 
HETATM    2  C   UNK N   1      29.819  17.795   8.538  0.00  0.00    -0.109 C 
HETATM    3  C   UNK N   1      30.204  17.364   7.481  0.00  0.00    -0.080 C 
ENDROOT
BRANCH   3   4
HETATM    4  C   UNK N   1      30.639  16.850   6.182  0.00  0.00     0.269 C 
BRANCH   4   5
HETATM    5  O   UNK N   1      32.006  16.972   6.055  0.00  0.00    -0.340 OA
BRANCH   5   6
HETATM    6  C   UNK N   1      32.873  16.025   6.485  0.00  0.00     0.070 A 
HETATM    7  C   UNK N   1      32.433  14.704   6.611  0.00  0.00     0.038 A 
HETATM    8  C   UNK N   1      33.321  13.702   7.016  0.00  0.00     0.027 A 
HETATM    9  C   UNK N   1      34.658  14.009   7.294  0.00  0.00     0.074 A 
HETATM   10  C   UNK N   1      35.094  15.328   7.187  0.00  0.00     0.027 A 
HETATM   11  C   UNK N   1      34.213  16.334   6.782  0.00  0.00     0.038 A 
BRANCH   9  12
HETATM   12  S   UNK N   1      35.761  12.694   7.832  0.00  0.00     0.244 S 
HETATM   13  O   UNK N   1      35.480  11.391   7.067  0.00  0.00    -0.206 OA
HETATM   14  O   UNK N   1      37.134  13.044   7.229  0.00  0.00    -0.206 OA
BRANCH  12  15
HETATM   15  N   UNK N   1      36.191  12.210   9.510  0.00  0.00    -0.191 NA
HETATM   16  C   UNK N   1      35.361  11.014   9.731  0.00  0.00     0.118 C 
HETATM   17  C   UNK N   1      35.548  10.401  11.095  0.00  0.00     0.090 C 
HETATM   18  S   UNK N   1      34.717  11.486  12.272  0.00  0.00    -0.156 SA
HETATM   19  C   UNK N   1      35.932  12.809  11.989  0.00  0.00     0.026 C 
HETATM   20  C   UNK N   1      35.905  13.296  10.494  0.00  0.00     0.186 C 
HETATM   21  C   UNK N   1      35.534  13.955  12.909  0.00  0.00     0.029 C 
HETATM   22  C   UNK N   1      37.304  12.322  12.450  0.00  0.00     0.029 C 
BRANCH  20  23
HETATM   23  C   UNK N   1      36.914  14.421  10.346  0.00  0.00     0.261 C 
HETATM   24  O   UNK N   1      36.547  15.587  10.426  0.00  0.00    -0.270 OA
HETATM   25  N   UNK N   1      38.208  14.140  10.074  0.00  0.00    -0.236 N 
HETATM   26  H   UNK N   1      38.498  13.202  10.009  0.00  0.00     0.197 HD
BRANCH  25  27
HETATM   27  O   UNK N   1      39.099  15.124   9.894  0.00  0.00    -0.287 OA
HETATM   28  H   UNK N   1      39.042  15.796   9.197  0.00  0.00     0.244 HD
ENDBRANCH  25  27
ENDBRANCH  20  23
ENDBRANCH  12  15
ENDBRANCH   9  12
ENDBRANCH   5   6
ENDBRANCH   4   5
ENDBRANCH   3   4
TORSDOF 7
ENDMDL
