MODEL 1
REMARK VINA RESULT:      -7.3      0.000      0.000
REMARK  5 active torsions:
REMARK  status: ('A' for Active; 'I' for Inactive)
REMARK    1  A    between atoms: N_6  and  C_8 
REMARK    2  A    between atoms: C_8  and  C_9 
REMARK    3  A    between atoms: C_9  and  N_10 
REMARK    4  A    between atoms: C_20  and  N_22 
REMARK    5  A    between atoms: N_22  and  C_23 
ROOT
HETATM    1  N   UNK N   1      34.887  14.824   8.913  0.00  0.00    -0.326 N 
HETATM    2  C   UNK N   1      33.932  15.099   9.827  0.00  0.00     0.185 C 
HETATM    3  N   UNK N   1      34.314  14.683  11.046  0.00  0.00    -0.346 N 
ATOM      4  HN  UNK N   1      33.789  14.743  11.919  1.00  0.00     0.167 HD
HETATM    5  C   UNK N   1      35.842  14.165   9.559  0.00  0.00     0.141 C 
HETATM    6  N   UNK N   1      37.014  13.708   9.072  0.00  0.00    -0.318 N 
ATOM      7  HN  UNK N   1      37.206  13.711   8.070  1.00  0.00     0.169 HD
HETATM    8  C   UNK N   1      37.935  13.242   9.967  0.00  0.00     0.191 C 
HETATM    9  N   UNK N   1      37.734  13.430  11.326  0.00  0.00    -0.318 N 
ATOM     10  HN  UNK N   1      38.472  13.188  11.987  1.00  0.00     0.169 HD
HETATM   11  C   UNK N   1      36.540  13.943  11.784  0.00  0.00     0.134 C 
HETATM   12  C   UNK N   1      35.544  14.172  10.854  0.00  0.00     0.122 C 
HETATM   13  N   UNK N   1      40.071  12.117   9.003  0.00  0.00    -0.188 NA
HETATM   14  C   UNK N   1      39.128  12.615   9.457  0.00  0.00     0.137 C 
ENDROOT
BRANCH  11  15
HETATM   15  N   UNK N   1      36.426  14.563  13.073  0.00  0.00    -0.370 N 
HETATM   16  H   UNK N   1      36.737  15.486  13.218  0.00  0.00     0.161 HD
BRANCH  15  17
HETATM   17  C   UNK N   1      35.835  13.787  14.177  0.00  0.00     0.083 C 
HETATM   18  C   UNK N   1      35.135  12.475  13.876  0.00  0.00     0.025 C 
HETATM   19  C   UNK N   1      34.439  11.944  15.159  0.00  0.00     0.002 C 
HETATM   20  C   UNK N   1      34.348  12.987  16.289  0.00  0.00     0.000 C 
HETATM   21  C   UNK N   1      35.755  13.468  16.681  0.00  0.00     0.002 C 
HETATM   22  C   UNK N   1      36.690  13.647  15.459  0.00  0.00     0.025 C 
ENDBRANCH  15  17
ENDBRANCH  11  15
BRANCH   1  23
HETATM   23  C   UNK N   1      34.933  15.328   7.566  0.00  0.00     0.161 C 
BRANCH  23  24
HETATM   24  C   UNK N   1      33.533  15.629   7.154  0.00  0.00     0.292 C 
BRANCH  24  25
HETATM   25  N   UNK N   1      33.478  16.956   6.540  0.00  0.00     0.093 N 
HETATM   26  C   UNK N   1      32.218  17.066   5.814  0.00  0.00     0.302 C 
HETATM   27  C   UNK N   1      31.012  16.927   6.762  0.00  0.00     0.302 C 
HETATM   28  N   UNK N   1      31.415  17.002   8.171  0.00  0.00     0.087 N 
HETATM   29  C   UNK N   1      32.287  18.156   8.382  0.00  0.00     0.302 C 
HETATM   30  C   UNK N   1      30.219  17.186   8.963  0.00  0.00     0.310 C 
HETATM   31  C   UNK N   1      33.579  18.010   7.566  0.00  0.00     0.302 C 
ENDBRANCH  24  25
ENDBRANCH  23  24
ENDBRANCH   1  23
TORSDOF 5
ENDMDL
MODEL 2
REMARK VINA RESULT:      -7.0      2.126      7.802
REMARK  5 active torsions:
REMARK  status: ('A' for Active; 'I' for Inactive)
REMARK    1  A    between atoms: N_6  and  C_8 
REMARK    2  A    between atoms: C_8  and  C_9 
REMARK    3  A    between atoms: C_9  and  N_10 
REMARK    4  A    between atoms: C_20  and  N_22 
REMARK    5  A    between atoms: N_22  and  C_23 
ROOT
HETATM    1  N   UNK N   1      35.591  14.970  10.934  0.00  0.00    -0.326 N 
HETATM    2  C   UNK N   1      35.429  16.308  11.002  0.00  0.00     0.185 C 
HETATM    3  N   UNK N   1      34.395  16.697  10.239  0.00  0.00    -0.346 N 
ATOM      4  HN  UNK N   1      34.054  17.647  10.085  1.00  0.00     0.167 HD
HETATM    5  C   UNK N   1      34.690  14.530  10.062  0.00  0.00     0.141 C 
HETATM    6  N   UNK N   1      34.446  13.258   9.687  0.00  0.00    -0.318 N 
ATOM      7  HN  UNK N   1      35.072  12.499   9.957  1.00  0.00     0.169 HD
HETATM    8  C   UNK N   1      33.333  13.020   8.933  0.00  0.00     0.191 C 
HETATM    9  N   UNK N   1      32.398  14.027   8.746  0.00  0.00    -0.318 N 
ATOM     10  HN  UNK N   1      31.512  13.820   8.283  1.00  0.00     0.169 HD
HETATM   11  C   UNK N   1      32.662  15.307   9.185  0.00  0.00     0.134 C 
HETATM   12  C   UNK N   1      33.909  15.552   9.726  0.00  0.00     0.122 C 
HETATM   13  N   UNK N   1      33.020  10.618   7.991  0.00  0.00    -0.188 NA
HETATM   14  C   UNK N   1      33.136  11.696   8.400  0.00  0.00     0.137 C 
ENDROOT
BRANCH  11  15
HETATM   15  N   UNK N   1      31.614  16.257   9.426  0.00  0.00    -0.370 N 
HETATM   16  H   UNK N   1      31.402  16.552  10.341  0.00  0.00     0.161 HD
BRANCH  15  17
HETATM   17  C   UNK N   1      30.861  16.781   8.273  0.00  0.00     0.083 C 
HETATM   18  C   UNK N   1      29.725  17.759   8.506  0.00  0.00     0.025 C 
HETATM   19  C   UNK N   1      28.973  18.018   7.171  0.00  0.00     0.002 C 
HETATM   20  C   UNK N   1      29.330  17.016   6.056  0.00  0.00     0.000 C 
HETATM   21  C   UNK N   1      30.839  17.066   5.764  0.00  0.00     0.002 C 
HETATM   22  C   UNK N   1      31.694  17.222   7.046  0.00  0.00     0.025 C 
ENDBRANCH  15  17
ENDBRANCH  11  15
BRANCH   1  23
HETATM   23  C   UNK N   1      36.434  14.179  11.790  0.00  0.00     0.161 C 
BRANCH  23  24
HETATM   24  C   UNK N   1      35.709  13.987  13.077  0.00  0.00     0.292 C 
BRANCH  24  25
HETATM   25  N   UNK N   1      36.636  13.480  14.090  0.00  0.00     0.093 N 
HETATM   26  C   UNK N   1      35.965  13.539  15.385  0.00  0.00     0.302 C 
HETATM   27  C   UNK N   1      34.706  12.653  15.403  0.00  0.00     0.302 C 
HETATM   28  N   UNK N   1      34.647  11.765  14.236  0.00  0.00     0.087 N 
HETATM   29  C   UNK N   1      35.927  11.083  14.061  0.00  0.00     0.302 C 
HETATM   30  C   UNK N   1      33.631  10.767  14.492  0.00  0.00     0.310 C 
HETATM   31  C   UNK N   1      37.044  12.098  13.780  0.00  0.00     0.302 C 
ENDBRANCH  24  25
ENDBRANCH  23  24
ENDBRANCH   1  23
TORSDOF 5
ENDMDL
MODEL 3
REMARK VINA RESULT:      -7.0      3.332      9.957
REMARK  5 active torsions:
REMARK  status: ('A' for Active; 'I' for Inactive)
REMARK    1  A    between atoms: N_6  and  C_8 
REMARK    2  A    between atoms: C_8  and  C_9 
REMARK    3  A    between atoms: C_9  and  N_10 
REMARK    4  A    between atoms: C_20  and  N_22 
REMARK    5  A    between atoms: N_22  and  C_23 
ROOT
HETATM    1  N   UNK N   1      32.806  17.487   6.393  0.00  0.00    -0.326 N 
HETATM    2  C   UNK N   1      32.982  17.387   5.058  0.00  0.00     0.185 C 
HETATM    3  N   UNK N   1      31.801  17.233   4.439  0.00  0.00    -0.346 N 
ATOM      4  HN  UNK N   1      31.630  17.114   3.440  1.00  0.00     0.167 HD
HETATM    5  C   UNK N   1      31.506  17.321   6.611  0.00  0.00     0.141 C 
HETATM    6  N   UNK N   1      30.847  17.369   7.786  0.00  0.00    -0.318 N 
ATOM      7  HN  UNK N   1      31.350  17.399   8.673  1.00  0.00     0.169 HD
HETATM    8  C   UNK N   1      29.482  17.377   7.748  0.00  0.00     0.191 C 
HETATM    9  N   UNK N   1      28.825  17.535   6.537  0.00  0.00    -0.318 N 
ATOM     10  HN  UNK N   1      27.813  17.658   6.520  1.00  0.00     0.169 HD
HETATM   11  C   UNK N   1      29.539  17.527   5.358  0.00  0.00     0.134 C 
HETATM   12  C   UNK N   1      30.894  17.271   5.433  0.00  0.00     0.122 C 
HETATM   13  N   UNK N   1      28.225  17.195  10.016  0.00  0.00    -0.188 NA
HETATM   14  C   UNK N   1      28.761  17.278   8.993  0.00  0.00     0.137 C 
ENDROOT
BRANCH  11  15
HETATM   15  N   UNK N   1      29.019  18.111   4.154  0.00  0.00    -0.370 N 
HETATM   16  H   UNK N   1      29.593  18.227   3.362  0.00  0.00     0.161 HD
BRANCH  15  17
HETATM   17  C   UNK N   1      27.608  18.534   4.130  0.00  0.00     0.083 C 
HETATM   18  C   UNK N   1      27.261  19.948   3.706  0.00  0.00     0.025 C 
HETATM   19  C   UNK N   1      25.747  20.210   3.940  0.00  0.00     0.002 C 
HETATM   20  C   UNK N   1      25.063  19.141   4.813  0.00  0.00     0.000 C 
HETATM   21  C   UNK N   1      25.206  17.755   4.161  0.00  0.00     0.002 C 
HETATM   22  C   UNK N   1      26.598  17.536   3.516  0.00  0.00     0.025 C 
ENDBRANCH  15  17
ENDBRANCH  11  15
BRANCH   1  23
HETATM   23  C   UNK N   1      33.806  17.893   7.346  0.00  0.00     0.161 C 
BRANCH  23  24
HETATM   24  C   UNK N   1      34.403  16.655   7.920  0.00  0.00     0.292 C 
BRANCH  24  25
HETATM   25  N   UNK N   1      33.975  16.504   9.311  0.00  0.00     0.093 N 
HETATM   26  C   UNK N   1      33.380  15.180   9.459  0.00  0.00     0.302 C 
HETATM   27  C   UNK N   1      34.401  14.070   9.150  0.00  0.00     0.302 C 
HETATM   28  N   UNK N   1      35.768  14.596   9.062  0.00  0.00     0.087 N 
HETATM   29  C   UNK N   1      36.053  15.448  10.215  0.00  0.00     0.302 C 
HETATM   30  C   UNK N   1      36.677  13.471   9.093  0.00  0.00     0.310 C 
HETATM   31  C   UNK N   1      35.117  16.664  10.229  0.00  0.00     0.302 C 
ENDBRANCH  24  25
ENDBRANCH  23  24
ENDBRANCH   1  23
TORSDOF 5
ENDMDL
MODEL 4
REMARK VINA RESULT:      -6.8     16.721     20.749
REMARK  5 active torsions:
REMARK  status: ('A' for Active; 'I' for Inactive)
REMARK    1  A    between atoms: N_6  and  C_8 
REMARK    2  A    between atoms: C_8  and  C_9 
REMARK    3  A    between atoms: C_9  and  N_10 
REMARK    4  A    between atoms: C_20  and  N_22 
REMARK    5  A    between atoms: N_22  and  C_23 
ROOT
HETATM    1  N   UNK N   1      28.285  22.814  -7.083  0.00  0.00    -0.326 N 
HETATM    2  C   UNK N   1      27.096  23.089  -7.661  0.00  0.00     0.185 C 
HETATM    3  N   UNK N   1      26.244  23.607  -6.762  0.00  0.00    -0.346 N 
ATOM      4  HN  UNK N   1      25.275  23.890  -6.910  1.00  0.00     0.167 HD
HETATM    5  C   UNK N   1      28.146  23.099  -5.793  0.00  0.00     0.141 C 
HETATM    6  N   UNK N   1      29.073  23.017  -4.818  0.00  0.00    -0.318 N 
ATOM      7  HN  UNK N   1      29.973  22.565  -4.982  1.00  0.00     0.169 HD
HETATM    8  C   UNK N   1      28.767  23.559  -3.602  0.00  0.00     0.191 C 
HETATM    9  N   UNK N   1      27.628  24.337  -3.461  0.00  0.00    -0.318 N 
ATOM     10  HN  UNK N   1      27.459  24.838  -2.588  1.00  0.00     0.169 HD
HETATM   11  C   UNK N   1      26.724  24.435  -4.497  0.00  0.00     0.134 C 
HETATM   12  C   UNK N   1      26.957  23.669  -5.622  0.00  0.00     0.122 C 
HETATM   13  N   UNK N   1      30.446  23.157  -1.660  0.00  0.00    -0.188 NA
HETATM   14  C   UNK N   1      29.683  23.351  -2.509  0.00  0.00     0.137 C 
ENDROOT
BRANCH  11  15
HETATM   15  N   UNK N   1      25.797  25.526  -4.593  0.00  0.00    -0.370 N 
HETATM   16  H   UNK N   1      24.829  25.375  -4.489  0.00  0.00     0.161 HD
BRANCH  15  17
HETATM   17  C   UNK N   1      26.324  26.877  -4.852  0.00  0.00     0.083 C 
HETATM   18  C   UNK N   1      26.768  27.248  -6.254  0.00  0.00     0.025 C 
HETATM   19  C   UNK N   1      27.453  28.643  -6.236  0.00  0.00     0.002 C 
HETATM   20  C   UNK N   1      27.801  29.143  -4.820  0.00  0.00     0.000 C 
HETATM   21  C   UNK N   1      26.527  29.232  -3.963  0.00  0.00     0.002 C 
HETATM   22  C   UNK N   1      25.551  28.055  -4.213  0.00  0.00     0.025 C 
ENDBRANCH  15  17
ENDBRANCH  11  15
BRANCH   1  23
HETATM   23  C   UNK N   1      29.499  22.476  -7.776  0.00  0.00     0.161 C 
BRANCH  23  24
HETATM   24  C   UNK N   1      29.342  21.091  -8.302  0.00  0.00     0.292 C 
BRANCH  24  25
HETATM   25  N   UNK N   1      29.546  20.129  -7.218  0.00  0.00     0.093 N 
HETATM   26  C   UNK N   1      29.309  18.792  -7.750  0.00  0.00     0.302 C 
HETATM   27  C   UNK N   1      30.300  18.456  -8.880  0.00  0.00     0.302 C 
HETATM   28  N   UNK N   1      31.397  19.429  -8.950  0.00  0.00     0.087 N 
HETATM   29  C   UNK N   1      31.964  19.640  -7.620  0.00  0.00     0.302 C 
HETATM   30  C   UNK N   1      32.426  18.872  -9.800  0.00  0.00     0.310 C 
HETATM   31  C   UNK N   1      30.912  20.236  -6.675  0.00  0.00     0.302 C 
ENDBRANCH  24  25
ENDBRANCH  23  24
ENDBRANCH   1  23
TORSDOF 5
ENDMDL
MODEL 5
REMARK VINA RESULT:      -6.8      2.225      3.773
REMARK  5 active torsions:
REMARK  status: ('A' for Active; 'I' for Inactive)
REMARK    1  A    between atoms: N_6  and  C_8 
REMARK    2  A    between atoms: C_8  and  C_9 
REMARK    3  A    between atoms: C_9  and  N_10 
REMARK    4  A    between atoms: C_20  and  N_22 
REMARK    5  A    between atoms: N_22  and  C_23 
ROOT
HETATM    1  N   UNK N   1      35.492  14.257  11.324  0.00  0.00    -0.326 N 
HETATM    2  C   UNK N   1      35.407  13.095  10.643  0.00  0.00     0.185 C 
HETATM    3  N   UNK N   1      35.886  12.081  11.382  0.00  0.00    -0.346 N 
ATOM      4  HN  UNK N   1      35.964  11.098  11.118  1.00  0.00     0.167 HD
HETATM    5  C   UNK N   1      36.098  13.973  12.471  0.00  0.00     0.141 C 
HETATM    6  N   UNK N   1      36.377  14.807  13.494  0.00  0.00    -0.318 N 
ATOM      7  HN  UNK N   1      36.263  15.817  13.398  1.00  0.00     0.169 HD
HETATM    8  C   UNK N   1      36.818  14.254  14.662  0.00  0.00     0.191 C 
HETATM    9  N   UNK N   1      36.777  12.879  14.834  0.00  0.00    -0.318 N 
ATOM     10  HN  UNK N   1      36.995  12.473  15.744  1.00  0.00     0.169 HD
HETATM   11  C   UNK N   1      36.441  12.060  13.777  0.00  0.00     0.134 C 
HETATM   12  C   UNK N   1      36.241  12.654  12.547  0.00  0.00     0.122 C 
HETATM   13  N   UNK N   1      37.610  15.881  16.528  0.00  0.00    -0.188 NA
HETATM   14  C   UNK N   1      37.262  15.135  15.712  0.00  0.00     0.137 C 
ENDROOT
BRANCH  11  15
HETATM   15  N   UNK N   1      35.956  10.724  13.978  0.00  0.00    -0.370 N 
HETATM   16  H   UNK N   1      35.675  10.170  13.214  0.00  0.00     0.161 HD
BRANCH  15  17
HETATM   17  C   UNK N   1      35.887  10.201  15.353  0.00  0.00     0.083 C 
HETATM   18  C   UNK N   1      34.548  10.147  16.065  0.00  0.00     0.025 C 
HETATM   19  C   UNK N   1      34.758   9.739  17.549  0.00  0.00     0.002 C 
HETATM   20  C   UNK N   1      36.227   9.810  18.008  0.00  0.00     0.000 C 
HETATM   21  C   UNK N   1      37.097   8.887  17.138  0.00  0.00     0.002 C 
HETATM   22  C   UNK N   1      36.691   8.911  15.644  0.00  0.00     0.025 C 
ENDBRANCH  15  17
ENDBRANCH  11  15
BRANCH   1  23
HETATM   23  C   UNK N   1      34.867  15.498  10.952  0.00  0.00     0.161 C 
BRANCH  23  24
HETATM   24  C   UNK N   1      34.016  15.229   9.759  0.00  0.00     0.292 C 
BRANCH  24  25
HETATM   25  N   UNK N   1      34.595  15.884   8.585  0.00  0.00     0.093 N 
HETATM   26  C   UNK N   1      33.904  15.385   7.402  0.00  0.00     0.302 C 
HETATM   27  C   UNK N   1      32.403  15.722   7.445  0.00  0.00     0.302 C 
HETATM   28  N   UNK N   1      32.092  16.690   8.505  0.00  0.00     0.087 N 
HETATM   29  C   UNK N   1      33.018  17.819   8.438  0.00  0.00     0.302 C 
HETATM   30  C   UNK N   1      30.754  17.185   8.271  0.00  0.00     0.310 C 
HETATM   31  C   UNK N   1      34.458  17.349   8.685  0.00  0.00     0.302 C 
ENDBRANCH  24  25
ENDBRANCH  23  24
ENDBRANCH   1  23
TORSDOF 5
ENDMDL
MODEL 6
REMARK VINA RESULT:      -6.8      9.886     15.863
REMARK  5 active torsions:
REMARK  status: ('A' for Active; 'I' for Inactive)
REMARK    1  A    between atoms: N_6  and  C_8 
REMARK    2  A    between atoms: C_8  and  C_9 
REMARK    3  A    between atoms: C_9  and  N_10 
REMARK    4  A    between atoms: C_20  and  N_22 
REMARK    5  A    between atoms: N_22  and  C_23 
ROOT
HETATM    1  N   UNK N   1      23.442  18.378   4.492  0.00  0.00    -0.326 N 
HETATM    2  C   UNK N   1      23.089  17.436   5.393  0.00  0.00     0.185 C 
HETATM    3  N   UNK N   1      21.767  17.205   5.337  0.00  0.00    -0.346 N 
ATOM      4  HN  UNK N   1      21.220  16.563   5.911  1.00  0.00     0.167 HD
HETATM    5  C   UNK N   1      22.316  18.788   3.920  0.00  0.00     0.141 C 
HETATM    6  N   UNK N   1      22.166  19.697   2.936  0.00  0.00    -0.318 N 
ATOM      7  HN  UNK N   1      22.946  20.281   2.632  1.00  0.00     0.169 HD
HETATM    8  C   UNK N   1      20.933  19.809   2.357  0.00  0.00     0.191 C 
HETATM    9  N   UNK N   1      19.948  18.877   2.645  0.00  0.00    -0.318 N 
ATOM     10  HN  UNK N   1      19.069  18.890   2.128  1.00  0.00     0.169 HD
HETATM   11  C   UNK N   1      20.156  17.932   3.627  0.00  0.00     0.134 C 
HETATM   12  C   UNK N   1      21.327  18.013   4.355  0.00  0.00     0.122 C 
HETATM   13  N   UNK N   1      20.586  21.743   0.656  0.00  0.00    -0.188 NA
HETATM   14  C   UNK N   1      20.715  20.873   1.410  0.00  0.00     0.137 C 
ENDROOT
BRANCH  11  15
HETATM   15  N   UNK N   1      19.406  16.709   3.673  0.00  0.00    -0.370 N 
HETATM   16  H   UNK N   1      18.653  16.602   4.297  0.00  0.00     0.161 HD
BRANCH  15  17
HETATM   17  C   UNK N   1      19.792  15.615   2.765  0.00  0.00     0.083 C 
HETATM   18  C   UNK N   1      21.093  15.711   1.990  0.00  0.00     0.025 C 
HETATM   19  C   UNK N   1      21.186  14.541   0.973  0.00  0.00     0.002 C 
HETATM   20  C   UNK N   1      19.856  13.792   0.768  0.00  0.00     0.000 C 
HETATM   21  C   UNK N   1      19.362  13.215   2.105  0.00  0.00     0.002 C 
HETATM   22  C   UNK N   1      19.601  14.174   3.298  0.00  0.00     0.025 C 
ENDBRANCH  15  17
ENDBRANCH  11  15
BRANCH   1  23
HETATM   23  C   UNK N   1      24.788  18.708   4.105  0.00  0.00     0.161 C 
BRANCH  23  24
HETATM   24  C   UNK N   1      25.404  19.464   5.231  0.00  0.00     0.292 C 
BRANCH  24  25
HETATM   25  N   UNK N   1      26.423  20.377   4.708  0.00  0.00     0.093 N 
HETATM   26  C   UNK N   1      27.003  21.098   5.836  0.00  0.00     0.302 C 
HETATM   27  C   UNK N   1      27.686  20.135   6.824  0.00  0.00     0.302 C 
HETATM   28  N   UNK N   1      27.830  18.787   6.262  0.00  0.00     0.087 N 
HETATM   29  C   UNK N   1      28.402  18.864   4.919  0.00  0.00     0.302 C 
HETATM   30  C   UNK N   1      28.747  18.053   7.105  0.00  0.00     0.310 C 
HETATM   31  C   UNK N   1      27.464  19.632   3.978  0.00  0.00     0.302 C 
ENDBRANCH  24  25
ENDBRANCH  23  24
ENDBRANCH   1  23
TORSDOF 5
ENDMDL
MODEL 7
REMARK VINA RESULT:      -6.8      2.114      8.397
REMARK  5 active torsions:
REMARK  status: ('A' for Active; 'I' for Inactive)
REMARK    1  A    between atoms: N_6  and  C_8 
REMARK    2  A    between atoms: C_8  and  C_9 
REMARK    3  A    between atoms: C_9  and  N_10 
REMARK    4  A    between atoms: C_20  and  N_22 
REMARK    5  A    between atoms: N_22  and  C_23 
ROOT
HETATM    1  N   UNK N   1      34.511  13.579  10.012  0.00  0.00    -0.326 N 
HETATM    2  C   UNK N   1      33.608  12.612   9.740  0.00  0.00     0.185 C 
HETATM    3  N   UNK N   1      32.684  13.062   8.876  0.00  0.00    -0.346 N 
ATOM      4  HN  UNK N   1      31.875  12.559   8.509  1.00  0.00     0.167 HD
HETATM    5  C   UNK N   1      34.102  14.664   9.364  0.00  0.00     0.141 C 
HETATM    6  N   UNK N   1      34.697  15.872   9.306  0.00  0.00    -0.318 N 
ATOM      7  HN  UNK N   1      35.486  16.102   9.910  1.00  0.00     0.169 HD
HETATM    8  C   UNK N   1      34.207  16.779   8.409  0.00  0.00     0.191 C 
HETATM    9  N   UNK N   1      33.270  16.382   7.468  0.00  0.00    -0.318 N 
ATOM     10  HN  UNK N   1      32.990  17.024   6.726  1.00  0.00     0.169 HD
HETATM   11  C   UNK N   1      32.717  15.121   7.531  0.00  0.00     0.134 C 
HETATM   12  C   UNK N   1      33.066  14.324   8.604  0.00  0.00     0.122 C 
HETATM   13  N   UNK N   1      35.181  19.187   8.495  0.00  0.00    -0.188 NA
HETATM   14  C   UNK N   1      34.731  18.121   8.436  0.00  0.00     0.137 C 
ENDROOT
BRANCH  11  15
HETATM   15  N   UNK N   1      32.111  14.500   6.388  0.00  0.00    -0.370 N 
HETATM   16  H   UNK N   1      31.634  13.643   6.473  0.00  0.00     0.161 HD
BRANCH  15  17
HETATM   17  C   UNK N   1      32.218  15.175   5.083  0.00  0.00     0.083 C 
HETATM   18  C   UNK N   1      33.345  14.800   4.139  0.00  0.00     0.025 C 
HETATM   19  C   UNK N   1      33.357  15.768   2.924  0.00  0.00     0.002 C 
HETATM   20  C   UNK N   1      32.479  17.019   3.121  0.00  0.00     0.000 C 
HETATM   21  C   UNK N   1      31.021  16.605   3.380  0.00  0.00     0.002 C 
HETATM   22  C   UNK N   1      30.903  15.355   4.288  0.00  0.00     0.025 C 
ENDBRANCH  15  17
ENDBRANCH  11  15
BRANCH   1  23
HETATM   23  C   UNK N   1      35.761  13.393  10.699  0.00  0.00     0.161 C 
BRANCH  23  24
HETATM   24  C   UNK N   1      35.526  13.687  12.141  0.00  0.00     0.292 C 
BRANCH  24  25
HETATM   25  N   UNK N   1      36.673  13.233  12.927  0.00  0.00     0.093 N 
HETATM   26  C   UNK N   1      36.410  13.539  14.329  0.00  0.00     0.302 C 
HETATM   27  C   UNK N   1      35.159  12.801  14.838  0.00  0.00     0.302 C 
HETATM   28  N   UNK N   1      34.712  11.771  13.893  0.00  0.00     0.087 N 
HETATM   29  C   UNK N   1      35.843  10.941  13.484  0.00  0.00     0.302 C 
HETATM   30  C   UNK N   1      33.755  10.929  14.578  0.00  0.00     0.310 C 
HETATM   31  C   UNK N   1      36.890  11.786  12.746  0.00  0.00     0.302 C 
ENDBRANCH  24  25
ENDBRANCH  23  24
ENDBRANCH   1  23
TORSDOF 5
ENDMDL
MODEL 8
REMARK VINA RESULT:      -6.5      7.153     10.891
REMARK  5 active torsions:
REMARK  status: ('A' for Active; 'I' for Inactive)
REMARK    1  A    between atoms: N_6  and  C_8 
REMARK    2  A    between atoms: C_8  and  C_9 
REMARK    3  A    between atoms: C_9  and  N_10 
REMARK    4  A    between atoms: C_20  and  N_22 
REMARK    5  A    between atoms: N_22  and  C_23 
ROOT
HETATM    1  N   UNK N   1      26.074  19.304   4.746  0.00  0.00    -0.326 N 
HETATM    2  C   UNK N   1      26.630  19.701   3.581  0.00  0.00     0.185 C 
HETATM    3  N   UNK N   1      27.954  19.480   3.592  0.00  0.00    -0.346 N 
ATOM      4  HN  UNK N   1      28.630  19.696   2.859  1.00  0.00     0.167 HD
HETATM    5  C   UNK N   1      27.077  18.898   5.517  0.00  0.00     0.141 C 
HETATM    6  N   UNK N   1      27.014  18.384   6.762  0.00  0.00    -0.318 N 
ATOM      7  HN  UNK N   1      26.144  18.399   7.296  1.00  0.00     0.169 HD
HETATM    8  C   UNK N   1      28.153  17.840   7.284  0.00  0.00     0.191 C 
HETATM    9  N   UNK N   1      29.262  17.652   6.473  0.00  0.00    -0.318 N 
ATOM     10  HN  UNK N   1      30.071  17.141   6.828  1.00  0.00     0.169 HD
HETATM   11  C   UNK N   1      29.272  18.152   5.188  0.00  0.00     0.134 C 
HETATM   12  C   UNK N   1      28.188  18.908   4.788  0.00  0.00     0.122 C 
HETATM   13  N   UNK N   1      28.091  17.101   9.774  0.00  0.00    -0.188 NA
HETATM   14  C   UNK N   1      28.144  17.422   8.662  0.00  0.00     0.137 C 
ENDROOT
BRANCH  11  15
HETATM   15  N   UNK N   1      30.153  17.634   4.180  0.00  0.00    -0.370 N 
HETATM   16  H   UNK N   1      29.947  17.747   3.224  0.00  0.00     0.161 HD
BRANCH  15  17
HETATM   17  C   UNK N   1      31.372  16.926   4.608  0.00  0.00     0.083 C 
HETATM   18  C   UNK N   1      31.570  15.475   4.214  0.00  0.00     0.025 C 
HETATM   19  C   UNK N   1      32.824  14.902   4.932  0.00  0.00     0.002 C 
HETATM   20  C   UNK N   1      33.346  15.797   6.073  0.00  0.00     0.000 C 
HETATM   21  C   UNK N   1      33.709  17.188   5.529  0.00  0.00     0.002 C 
HETATM   22  C   UNK N   1      32.706  17.699   4.465  0.00  0.00     0.025 C 
ENDBRANCH  15  17
ENDBRANCH  11  15
BRANCH   1  23
HETATM   23  C   UNK N   1      24.665  19.167   5.003  0.00  0.00     0.161 C 
BRANCH  23  24
HETATM   24  C   UNK N   1      24.255  17.814   4.534  0.00  0.00     0.292 C 
BRANCH  24  25
HETATM   25  N   UNK N   1      22.935  17.893   3.906  0.00  0.00     0.093 N 
HETATM   26  C   UNK N   1      22.523  16.540   3.550  0.00  0.00     0.302 C 
HETATM   27  C   UNK N   1      22.407  15.644   4.797  0.00  0.00     0.302 C 
HETATM   28  N   UNK N   1      22.461  16.427   6.037  0.00  0.00     0.087 N 
HETATM   29  C   UNK N   1      21.542  17.560   5.954  0.00  0.00     0.302 C 
HETATM   30  C   UNK N   1      22.029  15.569   7.119  0.00  0.00     0.310 C 
HETATM   31  C   UNK N   1      21.958  18.508   4.822  0.00  0.00     0.302 C 
ENDBRANCH  24  25
ENDBRANCH  23  24
ENDBRANCH   1  23
TORSDOF 5
ENDMDL
MODEL 9
REMARK VINA RESULT:      -6.5     10.816     14.052
REMARK  5 active torsions:
REMARK  status: ('A' for Active; 'I' for Inactive)
REMARK    1  A    between atoms: N_6  and  C_8 
REMARK    2  A    between atoms: C_8  and  C_9 
REMARK    3  A    between atoms: C_9  and  N_10 
REMARK    4  A    between atoms: C_20  and  N_22 
REMARK    5  A    between atoms: N_22  and  C_23 
ROOT
HETATM    1  N   UNK N   1      24.589  14.004   6.592  0.00  0.00    -0.326 N 
HETATM    2  C   UNK N   1      25.540  14.783   7.150  0.00  0.00     0.185 C 
HETATM    3  N   UNK N   1      25.601  15.971   6.527  0.00  0.00    -0.346 N 
ATOM      4  HN  UNK N   1      26.235  16.746   6.722  1.00  0.00     0.167 HD
HETATM    5  C   UNK N   1      24.102  14.690   5.564  0.00  0.00     0.141 C 
HETATM    6  N   UNK N   1      23.110  14.336   4.722  0.00  0.00    -0.318 N 
ATOM      7  HN  UNK N   1      22.728  13.390   4.725  1.00  0.00     0.169 HD
HETATM    8  C   UNK N   1      22.634  15.288   3.866  0.00  0.00     0.191 C 
HETATM    9  N   UNK N   1      23.027  16.609   4.014  0.00  0.00    -0.318 N 
ATOM     10  HN  UNK N   1      22.585  17.338   3.453  1.00  0.00     0.169 HD
HETATM   11  C   UNK N   1      24.013  16.940   4.919  0.00  0.00     0.134 C 
HETATM   12  C   UNK N   1      24.638  15.906   5.590  0.00  0.00     0.122 C 
HETATM   13  N   UNK N   1      20.918  14.525   2.070  0.00  0.00    -0.188 NA
HETATM   14  C   UNK N   1      21.681  14.890   2.861  0.00  0.00     0.137 C 
ENDROOT
BRANCH  11  15
HETATM   15  N   UNK N   1      24.153  18.272   5.435  0.00  0.00    -0.370 N 
HETATM   16  H   UNK N   1      23.612  18.576   6.200  0.00  0.00     0.161 HD
BRANCH  15  17
HETATM   17  C   UNK N   1      25.123  19.176   4.793  0.00  0.00     0.083 C 
HETATM   18  C   UNK N   1      24.744  19.884   3.506  0.00  0.00     0.025 C 
HETATM   19  C   UNK N   1      25.983  20.625   2.930  0.00  0.00     0.002 C 
HETATM   20  C   UNK N   1      27.312  20.210   3.588  0.00  0.00     0.000 C 
HETATM   21  C   UNK N   1      27.262  20.483   5.101  0.00  0.00     0.002 C 
HETATM   22  C   UNK N   1      25.884  20.148   5.726  0.00  0.00     0.025 C 
ENDBRANCH  15  17
ENDBRANCH  11  15
BRANCH   1  23
HETATM   23  C   UNK N   1      24.082  12.773   7.138  0.00  0.00     0.161 C 
BRANCH  23  24
HETATM   24  C   UNK N   1      23.352  13.109   8.393  0.00  0.00     0.292 C 
BRANCH  24  25
HETATM   25  N   UNK N   1      22.095  12.361   8.443  0.00  0.00     0.093 N 
HETATM   26  C   UNK N   1      21.403  12.723   9.675  0.00  0.00     0.302 C 
HETATM   27  C   UNK N   1      21.068  14.225   9.708  0.00  0.00     0.302 C 
HETATM   28  N   UNK N   1      21.267  14.857   8.398  0.00  0.00     0.087 N 
HETATM   29  C   UNK N   1      20.621  14.063   7.355  0.00  0.00     0.302 C 
HETATM   30  C   UNK N   1      20.635  16.158   8.435  0.00  0.00     0.310 C 
HETATM   31  C   UNK N   1      21.258  12.669   7.269  0.00  0.00     0.302 C 
ENDBRANCH  24  25
ENDBRANCH  23  24
ENDBRANCH   1  23
TORSDOF 5
ENDMDL
