REMARK  5 active torsions:
REMARK  status: ('A' for Active; 'I' for Inactive)
REMARK    1  A    between atoms: N_6  and  C_8 
REMARK    2  A    between atoms: C_8  and  C_9 
REMARK    3  A    between atoms: C_9  and  N_10 
REMARK    4  A    between atoms: C_20  and  N_22 
REMARK    5  A    between atoms: N_22  and  C_23 
ROOT
HETATM    1  N   UNK N   1       0.054   0.454   0.317  0.00  0.00    -0.326 N 
HETATM    2  C   UNK N   1      -0.650  -0.581  -0.189  0.00  0.00     0.185 C 
HETATM    3  N   UNK N   1       0.169  -1.454  -0.798  0.00  0.00    -0.346 N 
ATOM      4  HN  UNK N   1      -0.085  -2.315  -1.283  1.00  0.00     0.167 HD
HETATM    5  C   UNK N   1       1.317   0.257  -0.044  0.00  0.00     0.141 C 
HETATM    6  N   UNK N   1       2.395   1.010   0.255  0.00  0.00    -0.318 N 
ATOM      7  HN  UNK N   1       2.294   1.926   0.693  1.00  0.00     0.169 HD
HETATM    8  C   UNK N   1       3.627   0.504  -0.048  0.00  0.00     0.191 C 
HETATM    9  N   UNK N   1       3.750  -0.815  -0.457  0.00  0.00    -0.318 N 
ATOM     10  HN  UNK N   1       4.676  -1.228  -0.571  1.00  0.00     0.169 HD
HETATM   11  C   UNK N   1       2.624  -1.569  -0.709  0.00  0.00     0.134 C 
HETATM   12  C   UNK N   1       1.399  -0.936  -0.623  0.00  0.00     0.122 C 
HETATM   13  N   UNK N   1       5.674   2.071   0.282  0.00  0.00    -0.188 NA
HETATM   14  C   UNK N   1       4.778   1.353   0.127  0.00  0.00     0.137 C 
ENDROOT
BRANCH  11  15
HETATM   15  N   UNK N   1       2.654  -3.004  -0.697  0.00  0.00    -0.370 N 
HETATM   16  H   UNK N   1       3.470  -3.493  -0.950  0.00  0.00     0.161 HD
BRANCH  15  17
HETATM   17  C   UNK N   1       1.435  -3.729  -0.299  0.00  0.00     0.083 C 
HETATM   18  C   UNK N   1       1.364  -5.232  -0.492  0.00  0.00     0.025 C 
HETATM   19  C   UNK N   1      -0.072  -5.735  -0.177  0.00  0.00     0.002 C 
HETATM   20  C   UNK N   1      -1.114  -4.605  -0.074  0.00  0.00     0.000 C 
HETATM   21  C   UNK N   1      -0.710  -3.612   1.029  0.00  0.00     0.002 C 
HETATM   22  C   UNK N   1       0.815  -3.342   1.065  0.00  0.00     0.025 C 
ENDBRANCH  15  17
ENDBRANCH  11  15
BRANCH   1  23
HETATM   23  C   UNK N   1      -0.448   1.447   1.229  0.00  0.00     0.161 C 
BRANCH  23  24
HETATM   24  C   UNK N   1      -1.674   2.034   0.619  0.00  0.00     0.292 C 
BRANCH  24  25
HETATM   25  N   UNK N   1      -1.400   2.406  -0.770  0.00  0.00     0.093 N 
HETATM   26  C   UNK N   1      -2.635   2.920  -1.352  0.00  0.00     0.302 C 
HETATM   27  C   UNK N   1      -3.124   4.176  -0.608  0.00  0.00     0.302 C 
HETATM   28  N   UNK N   1      -2.101   4.703   0.303  0.00  0.00     0.087 N 
HETATM   29  C   UNK N   1      -0.819   4.808  -0.391  0.00  0.00     0.302 C 
HETATM   30  C   UNK N   1      -2.510   6.031   0.705  0.00  0.00     0.310 C 
HETATM   31  C   UNK N   1      -0.334   3.422  -0.837  0.00  0.00     0.302 C 
ENDBRANCH  24  25
ENDBRANCH  23  24
ENDBRANCH   1  23
TORSDOF 5
