MODEL 1
REMARK VINA RESULT:      -8.0      0.000      0.000
REMARK  5 active torsions:
REMARK  status: ('A' for Active; 'I' for Inactive)
REMARK       I    between atoms: C_7  and  N_27 
REMARK    1  A    between atoms: C_8  and  N_22 
REMARK    2  A    between atoms: C_9  and  N_27 
REMARK    3  A    between atoms: C_12  and  C_30 
REMARK    4  A    between atoms: C_15  and  C_16 
REMARK    5  A    between atoms: C_21  and  N_22 
ROOT
HETATM    1  C   UNK N   1      29.520  16.885   6.902  0.00  0.00     0.162 C 
HETATM    2  C   UNK N   1      30.399  17.551   7.861  0.00  0.00     0.063 C 
HETATM    3  N   UNK N   1      31.081  18.106   8.609  0.00  0.00    -0.197 NA
ENDROOT
BRANCH   1   4
HETATM    4  C   UNK N   1      28.661  17.862   6.166  0.00  0.00    -0.045 A 
HETATM    5  C   UNK N   1      28.029  18.955   6.801  0.00  0.00     0.010 A 
HETATM    6  C   UNK N   1      27.198  19.824   6.078  0.00  0.00     0.030 A 
HETATM    7  C   UNK N   1      27.000  19.611   4.715  0.00  0.00     0.049 A 
HETATM    8  C   UNK N   1      27.690  18.542   4.099  0.00  0.00     0.030 A 
HETATM    9  C   UNK N   1      28.494  17.675   4.808  0.00  0.00     0.010 A 
BRANCH   7  10
HETATM   10  N   UNK N   1      26.040  20.394   3.981  0.00  0.00    -0.192 N 
HETATM   11  C   UNK N   1      24.691  19.945   3.865  0.00  0.00     0.684 A 
HETATM   12  N   UNK N   1      24.336  18.842   4.537  0.00  0.00    -0.175 N 
HETATM   13  N   UNK N   1      23.783  20.555   3.062  0.00  0.00    -0.191 N 
HETATM   14  C   UNK N   1      23.166  18.227   4.472  0.00  0.00     0.135 A 
ATOM     15  HN  UNK N   1      25.035  18.437   5.159  1.00  0.00     0.186 HD
HETATM   16  C   UNK N   1      22.166  18.840   3.654  0.00  0.00     0.036 A 
HETATM   17  C   UNK N   1      20.875  18.346   3.486  0.00  0.00     0.017 A 
HETATM   18  C   UNK N   1      22.524  20.033   2.949  0.00  0.00     0.063 A 
HETATM   19  C   UNK N   1      19.950  18.966   2.651  0.00  0.00     0.001 A 
HETATM   20  C   UNK N   1      20.309  20.116   1.955  0.00  0.00     0.002 A 
HETATM   21  C   UNK N   1      21.591  20.652   2.106  0.00  0.00     0.031 A 
ATOM     22  HN  UNK N   1      24.038  21.397   2.546  1.00  0.00     0.184 HD
HETATM   23  H   UNK N   1      26.315  21.240   3.560  0.00  0.00     0.184 HD
BRANCH  14  24
HETATM   24  N   UNK N   1      23.125  16.984   5.191  0.00  0.00    -0.326 N 
HETATM   25  H   UNK N   1      23.687  16.279   4.795  0.00  0.00     0.169 HD
BRANCH  24  26
HETATM   26  C   UNK N   1      22.440  16.575   6.348  0.00  0.00     0.123 A 
HETATM   27  C   UNK N   1      22.572  15.371   6.920  0.00  0.00     0.076 A 
HETATM   28  C   UNK N   1      21.522  15.269   7.769  0.00  0.00     0.033 A 
HETATM   29  N   UNK N   1      20.798  16.405   7.735  0.00  0.00    -0.303 N 
HETATM   30  N   UNK N   1      21.367  17.216   6.855  0.00  0.00    -0.285 N 
HETATM   31  H   UNK N   1      19.992  16.598   8.268  0.00  0.00     0.186 HD
ATOM     32  HN  UNK N   1      21.053  18.154   6.607  1.00  0.00     0.188 HD
BRANCH  28  33
HETATM   33  C   UNK N   1      21.064  13.960   8.330  0.00  0.00     0.037 A 
HETATM   34  C   UNK N   1      20.423  14.090   9.689  0.00  0.00     0.011 A 
HETATM   35  C   UNK N   1      21.862  13.640   9.602  0.00  0.00     0.011 A 
ENDBRANCH  28  33
ENDBRANCH  24  26
ENDBRANCH  14  24
ENDBRANCH   7  10
ENDBRANCH   1   4
TORSDOF 5
ENDMDL
MODEL 2
REMARK VINA RESULT:      -7.7      2.063      8.202
REMARK  5 active torsions:
REMARK  status: ('A' for Active; 'I' for Inactive)
REMARK       I    between atoms: C_7  and  N_27 
REMARK    1  A    between atoms: C_8  and  N_22 
REMARK    2  A    between atoms: C_9  and  N_27 
REMARK    3  A    between atoms: C_12  and  C_30 
REMARK    4  A    between atoms: C_15  and  C_16 
REMARK    5  A    between atoms: C_21  and  N_22 
ROOT
HETATM    1  C   UNK N   1      21.063  18.445   2.650  0.00  0.00     0.162 C 
HETATM    2  C   UNK N   1      21.478  19.845   2.697  0.00  0.00     0.063 C 
HETATM    3  N   UNK N   1      21.802  20.951   2.766  0.00  0.00    -0.197 NA
ENDROOT
BRANCH   1   4
HETATM    4  C   UNK N   1      20.788  17.903   4.016  0.00  0.00    -0.045 A 
HETATM    5  C   UNK N   1      21.355  18.456   5.187  0.00  0.00     0.010 A 
HETATM    6  C   UNK N   1      21.101  17.888   6.444  0.00  0.00     0.030 A 
HETATM    7  C   UNK N   1      20.273  16.771   6.541  0.00  0.00     0.049 A 
HETATM    8  C   UNK N   1      19.678  16.277   5.359  0.00  0.00     0.030 A 
HETATM    9  C   UNK N   1      19.938  16.819   4.117  0.00  0.00     0.010 A 
BRANCH   7  10
HETATM   10  N   UNK N   1      20.114  16.081   7.795  0.00  0.00    -0.192 N 
HETATM   11  C   UNK N   1      21.129  15.189   8.253  0.00  0.00     0.684 A 
HETATM   12  N   UNK N   1      22.256  15.099   7.536  0.00  0.00    -0.175 N 
HETATM   13  N   UNK N   1      20.969  14.396   9.343  0.00  0.00    -0.191 N 
HETATM   14  C   UNK N   1      23.257  14.260   7.751  0.00  0.00     0.135 A 
ATOM     15  HN  UNK N   1      22.354  15.740   6.749  1.00  0.00     0.186 HD
HETATM   16  C   UNK N   1      23.147  13.415   8.900  0.00  0.00     0.036 A 
HETATM   17  C   UNK N   1      24.113  12.490   9.291  0.00  0.00     0.017 A 
HETATM   18  C   UNK N   1      21.958  13.518   9.689  0.00  0.00     0.063 A 
HETATM   19  C   UNK N   1      23.941  11.668  10.401  0.00  0.00     0.001 A 
HETATM   20  C   UNK N   1      22.774  11.761  11.155  0.00  0.00     0.002 A 
HETATM   21  C   UNK N   1      21.787  12.685  10.804  0.00  0.00     0.031 A 
ATOM     22  HN  UNK N   1      20.116  14.455   9.900  1.00  0.00     0.184 HD
HETATM   23  H   UNK N   1      19.305  16.225   8.336  0.00  0.00     0.184 HD
BRANCH  14  24
HETATM   24  N   UNK N   1      24.269  14.293   6.731  0.00  0.00    -0.326 N 
HETATM   25  H   UNK N   1      24.395  13.431   6.272  0.00  0.00     0.169 HD
BRANCH  24  26
HETATM   26  C   UNK N   1      25.115  15.312   6.261  0.00  0.00     0.123 A 
HETATM   27  C   UNK N   1      26.430  15.377   6.507  0.00  0.00     0.076 A 
HETATM   28  C   UNK N   1      26.786  16.642   6.180  0.00  0.00     0.033 A 
HETATM   29  N   UNK N   1      25.713  17.309   5.711  0.00  0.00    -0.303 N 
HETATM   30  N   UNK N   1      24.677  16.484   5.760  0.00  0.00    -0.285 N 
HETATM   31  H   UNK N   1      25.701  18.240   5.390  0.00  0.00     0.186 HD
ATOM     32  HN  UNK N   1      23.723  16.696   5.470  1.00  0.00     0.188 HD
BRANCH  28  33
HETATM   33  C   UNK N   1      28.065  17.264   6.644  0.00  0.00     0.037 A 
HETATM   34  C   UNK N   1      28.113  18.754   6.420  0.00  0.00     0.011 A 
HETATM   35  C   UNK N   1      28.818  17.847   5.440  0.00  0.00     0.011 A 
ENDBRANCH  28  33
ENDBRANCH  24  26
ENDBRANCH  14  24
ENDBRANCH   7  10
ENDBRANCH   1   4
TORSDOF 5
ENDMDL
MODEL 3
REMARK VINA RESULT:      -7.7      6.798     12.397
REMARK  5 active torsions:
REMARK  status: ('A' for Active; 'I' for Inactive)
REMARK       I    between atoms: C_7  and  N_27 
REMARK    1  A    between atoms: C_8  and  N_22 
REMARK    2  A    between atoms: C_9  and  N_27 
REMARK    3  A    between atoms: C_12  and  C_30 
REMARK    4  A    between atoms: C_15  and  C_16 
REMARK    5  A    between atoms: C_21  and  N_22 
ROOT
HETATM    1  C   UNK N   1      30.905  17.060   4.629  0.00  0.00     0.162 C 
HETATM    2  C   UNK N   1      29.609  17.727   4.736  0.00  0.00     0.063 C 
HETATM    3  N   UNK N   1      28.593  18.264   4.850  0.00  0.00    -0.197 NA
ENDROOT
BRANCH   1   4
HETATM    4  C   UNK N   1      31.736  17.265   5.855  0.00  0.00    -0.045 A 
HETATM    5  C   UNK N   1      33.124  17.526   5.803  0.00  0.00     0.010 A 
HETATM    6  C   UNK N   1      33.872  17.670   6.981  0.00  0.00     0.030 A 
HETATM    7  C   UNK N   1      33.235  17.566   8.217  0.00  0.00     0.049 A 
HETATM    8  C   UNK N   1      31.838  17.360   8.233  0.00  0.00     0.030 A 
HETATM    9  C   UNK N   1      31.100  17.199   7.079  0.00  0.00     0.010 A 
BRANCH   7  10
HETATM   10  N   UNK N   1      33.999  17.562   9.438  0.00  0.00    -0.192 N 
HETATM   11  C   UNK N   1      34.491  16.334   9.970  0.00  0.00     0.684 A 
HETATM   12  N   UNK N   1      34.306  15.219   9.251  0.00  0.00    -0.175 N 
HETATM   13  N   UNK N   1      35.080  16.248  11.190  0.00  0.00    -0.191 N 
HETATM   14  C   UNK N   1      34.604  13.986   9.626  0.00  0.00     0.135 A 
ATOM     15  HN  UNK N   1      33.896  15.332   8.324  1.00  0.00     0.186 HD
HETATM   16  C   UNK N   1      35.245  13.841  10.897  0.00  0.00     0.036 A 
HETATM   17  C   UNK N   1      35.649  12.623  11.440  0.00  0.00     0.017 A 
HETATM   18  C   UNK N   1      35.471  15.027  11.665  0.00  0.00     0.063 A 
HETATM   19  C   UNK N   1      36.240  12.536  12.697  0.00  0.00     0.001 A 
HETATM   20  C   UNK N   1      36.442  13.691  13.448  0.00  0.00     0.002 A 
HETATM   21  C   UNK N   1      36.063  14.934  12.933  0.00  0.00     0.031 A 
ATOM     22  HN  UNK N   1      35.229  17.088  11.748  1.00  0.00     0.184 HD
HETATM   23  H   UNK N   1      34.182  18.409   9.906  0.00  0.00     0.184 HD
BRANCH  14  24
HETATM   24  N   UNK N   1      34.157  12.977   8.706  0.00  0.00    -0.326 N 
HETATM   25  H   UNK N   1      34.237  12.060   9.055  0.00  0.00     0.169 HD
BRANCH  24  26
HETATM   26  C   UNK N   1      33.630  13.041   7.404  0.00  0.00     0.123 A 
HETATM   27  C   UNK N   1      34.353  13.302   6.308  0.00  0.00     0.076 A 
HETATM   28  C   UNK N   1      33.443  13.602   5.351  0.00  0.00     0.033 A 
HETATM   29  N   UNK N   1      32.199  13.485   5.855  0.00  0.00    -0.303 N 
HETATM   30  N   UNK N   1      32.314  13.136   7.128  0.00  0.00    -0.285 N 
HETATM   31  H   UNK N   1      31.356  13.632   5.366  0.00  0.00     0.186 HD
ATOM     32  HN  UNK N   1      31.548  12.968   7.779  1.00  0.00     0.188 HD
BRANCH  28  33
HETATM   33  C   UNK N   1      33.808  14.314   4.087  0.00  0.00     0.037 A 
HETATM   34  C   UNK N   1      32.704  14.300   3.060  0.00  0.00     0.011 A 
HETATM   35  C   UNK N   1      33.838  13.311   2.924  0.00  0.00     0.011 A 
ENDBRANCH  28  33
ENDBRANCH  24  26
ENDBRANCH  14  24
ENDBRANCH   7  10
ENDBRANCH   1   4
TORSDOF 5
ENDMDL
MODEL 4
REMARK VINA RESULT:      -7.7     11.066     14.804
REMARK  5 active torsions:
REMARK  status: ('A' for Active; 'I' for Inactive)
REMARK       I    between atoms: C_7  and  N_27 
REMARK    1  A    between atoms: C_8  and  N_22 
REMARK    2  A    between atoms: C_9  and  N_27 
REMARK    3  A    between atoms: C_12  and  C_30 
REMARK    4  A    between atoms: C_15  and  C_16 
REMARK    5  A    between atoms: C_21  and  N_22 
ROOT
HETATM    1  C   UNK N   1      34.658  15.424   7.172  0.00  0.00     0.162 C 
HETATM    2  C   UNK N   1      34.360  16.800   6.783  0.00  0.00     0.063 C 
HETATM    3  N   UNK N   1      34.133  17.898   6.505  0.00  0.00    -0.197 NA
ENDROOT
BRANCH   1   4
HETATM    4  C   UNK N   1      35.167  15.343   8.575  0.00  0.00    -0.045 A 
HETATM    5  C   UNK N   1      36.274  14.545   8.943  0.00  0.00     0.010 A 
HETATM    6  C   UNK N   1      36.691  14.468  10.280  0.00  0.00     0.030 A 
HETATM    7  C   UNK N   1      36.011  15.194  11.256  0.00  0.00     0.049 A 
HETATM    8  C   UNK N   1      34.944  16.024  10.848  0.00  0.00     0.030 A 
HETATM    9  C   UNK N   1      34.517  16.091   9.538  0.00  0.00     0.010 A 
BRANCH   7  10
HETATM   10  N   UNK N   1      36.322  15.019  12.651  0.00  0.00    -0.192 N 
HETATM   11  C   UNK N   1      35.906  13.838  13.333  0.00  0.00     0.684 A 
HETATM   12  N   UNK N   1      35.317  12.873  12.616  0.00  0.00    -0.175 N 
HETATM   13  N   UNK N   1      36.032  13.685  14.677  0.00  0.00    -0.191 N 
HETATM   14  C   UNK N   1      34.782  11.759  13.091  0.00  0.00     0.135 A 
ATOM     15  HN  UNK N   1      35.278  13.008  11.606  1.00  0.00     0.186 HD
HETATM   16  C   UNK N   1      34.905  11.540  14.498  0.00  0.00     0.036 A 
HETATM   17  C   UNK N   1      34.422  10.416  15.165  0.00  0.00     0.017 A 
HETATM   18  C   UNK N   1      35.554  12.552  15.274  0.00  0.00     0.063 A 
HETATM   19  C   UNK N   1      34.540  10.268  16.544  0.00  0.00     0.001 A 
HETATM   20  C   UNK N   1      35.158  11.264  17.296  0.00  0.00     0.002 A 
HETATM   21  C   UNK N   1      35.667  12.401  16.663  0.00  0.00     0.031 A 
ATOM     22  HN  UNK N   1      36.480  14.411  15.236  1.00  0.00     0.184 HD
HETATM   23  H   UNK N   1      36.822  15.716  13.135  0.00  0.00     0.184 HD
BRANCH  14  24
HETATM   24  N   UNK N   1      34.091  10.981  12.099  0.00  0.00    -0.326 N 
HETATM   25  H   UNK N   1      33.461  10.327  12.479  0.00  0.00     0.169 HD
BRANCH  24  26
HETATM   26  C   UNK N   1      34.139  10.968  10.694  0.00  0.00     0.123 A 
HETATM   27  C   UNK N   1      35.195  10.562   9.977  0.00  0.00     0.076 A 
HETATM   28  C   UNK N   1      34.964  11.019   8.724  0.00  0.00     0.033 A 
HETATM   29  N   UNK N   1      33.776  11.653   8.683  0.00  0.00    -0.303 N 
HETATM   30  N   UNK N   1      33.263  11.621   9.904  0.00  0.00    -0.285 N 
HETATM   31  H   UNK N   1      33.363  12.065   7.890  0.00  0.00     0.186 HD
ATOM     32  HN  UNK N   1      32.369  12.015  10.194  1.00  0.00     0.188 HD
BRANCH  28  33
HETATM   33  C   UNK N   1      36.044  11.124   7.694  0.00  0.00     0.037 A 
HETATM   34  C   UNK N   1      35.557  11.688   6.382  0.00  0.00     0.011 A 
HETATM   35  C   UNK N   1      35.720  10.193   6.516  0.00  0.00     0.011 A 
ENDBRANCH  28  33
ENDBRANCH  24  26
ENDBRANCH  14  24
ENDBRANCH   7  10
ENDBRANCH   1   4
TORSDOF 5
ENDMDL
MODEL 5
REMARK VINA RESULT:      -7.6     12.763     14.747
REMARK  5 active torsions:
REMARK  status: ('A' for Active; 'I' for Inactive)
REMARK       I    between atoms: C_7  and  N_27 
REMARK    1  A    between atoms: C_8  and  N_22 
REMARK    2  A    between atoms: C_9  and  N_27 
REMARK    3  A    between atoms: C_12  and  C_30 
REMARK    4  A    between atoms: C_15  and  C_16 
REMARK    5  A    between atoms: C_21  and  N_22 
ROOT
HETATM    1  C   UNK N   1      26.425  30.003  -3.719  0.00  0.00     0.162 C 
HETATM    2  C   UNK N   1      27.475  29.989  -2.703  0.00  0.00     0.063 C 
HETATM    3  N   UNK N   1      28.313  29.947  -1.910  0.00  0.00    -0.197 NA
ENDROOT
BRANCH   1   4
HETATM    4  C   UNK N   1      26.388  28.727  -4.496  0.00  0.00    -0.045 A 
HETATM    5  C   UNK N   1      27.071  28.557  -5.722  0.00  0.00     0.010 A 
HETATM    6  C   UNK N   1      26.975  27.354  -6.437  0.00  0.00     0.030 A 
HETATM    7  C   UNK N   1      26.204  26.310  -5.927  0.00  0.00     0.049 A 
HETATM    8  C   UNK N   1      25.580  26.492  -4.673  0.00  0.00     0.030 A 
HETATM    9  C   UNK N   1      25.655  27.678  -3.974  0.00  0.00     0.010 A 
BRANCH   7  10
HETATM   10  N   UNK N   1      25.968  25.123  -6.707  0.00  0.00    -0.192 N 
HETATM   11  C   UNK N   1      26.885  24.033  -6.646  0.00  0.00     0.684 A 
HETATM   12  N   UNK N   1      27.899  24.114  -5.775  0.00  0.00    -0.175 N 
HETATM   13  N   UNK N   1      26.801  22.958  -7.470  0.00  0.00    -0.191 N 
HETATM   14  C   UNK N   1      28.895  23.251  -5.649  0.00  0.00     0.135 A 
ATOM     15  HN  UNK N   1      27.904  24.918  -5.147  1.00  0.00     0.186 HD
HETATM   16  C   UNK N   1      28.843  22.089  -6.481  0.00  0.00     0.036 A 
HETATM   17  C   UNK N   1      29.792  21.068  -6.467  0.00  0.00     0.017 A 
HETATM   18  C   UNK N   1      27.752  21.978  -7.400  0.00  0.00     0.063 A 
HETATM   19  C   UNK N   1      29.710  19.974  -7.322  0.00  0.00     0.001 A 
HETATM   20  C   UNK N   1      28.655  19.879  -8.226  0.00  0.00     0.002 A 
HETATM   21  C   UNK N   1      27.676  20.875  -8.263  0.00  0.00     0.031 A 
ATOM     22  HN  UNK N   1      26.033  22.881  -8.137  1.00  0.00     0.184 HD
HETATM   23  H   UNK N   1      25.172  25.064  -7.284  0.00  0.00     0.184 HD
BRANCH  14  24
HETATM   24  N   UNK N   1      29.915  23.676  -4.730  0.00  0.00    -0.326 N 
HETATM   25  H   UNK N   1      30.009  24.654  -4.668  0.00  0.00     0.169 HD
BRANCH  24  26
HETATM   26  C   UNK N   1      30.807  22.970  -3.904  0.00  0.00     0.123 A 
HETATM   27  C   UNK N   1      32.114  22.820  -4.156  0.00  0.00     0.076 A 
HETATM   28  C   UNK N   1      32.518  21.826  -3.331  0.00  0.00     0.033 A 
HETATM   29  N   UNK N   1      31.482  21.414  -2.573  0.00  0.00    -0.303 N 
HETATM   30  N   UNK N   1      30.421  22.125  -2.927  0.00  0.00    -0.285 N 
HETATM   31  H   UNK N   1      31.509  20.714  -1.882  0.00  0.00     0.186 HD
ATOM     32  HN  UNK N   1      29.484  22.048  -2.532  1.00  0.00     0.188 HD
BRANCH  28  33
HETATM   33  C   UNK N   1      33.797  21.079  -3.537  0.00  0.00     0.037 A 
HETATM   34  C   UNK N   1      34.284  21.120  -4.964  0.00  0.00     0.011 A 
HETATM   35  C   UNK N   1      33.551  19.891  -4.480  0.00  0.00     0.011 A 
ENDBRANCH  28  33
ENDBRANCH  24  26
ENDBRANCH  14  24
ENDBRANCH   7  10
ENDBRANCH   1   4
TORSDOF 5
ENDMDL
MODEL 6
REMARK VINA RESULT:      -7.5      2.183      7.087
REMARK  5 active torsions:
REMARK  status: ('A' for Active; 'I' for Inactive)
REMARK       I    between atoms: C_7  and  N_27 
REMARK    1  A    between atoms: C_8  and  N_22 
REMARK    2  A    between atoms: C_9  and  N_27 
REMARK    3  A    between atoms: C_12  and  C_30 
REMARK    4  A    between atoms: C_15  and  C_16 
REMARK    5  A    between atoms: C_21  and  N_22 
ROOT
HETATM    1  C   UNK N   1      22.974  11.474  10.138  0.00  0.00     0.162 C 
HETATM    2  C   UNK N   1      23.471  11.862  11.456  0.00  0.00     0.063 C 
HETATM    3  N   UNK N   1      23.862  12.200  12.489  0.00  0.00    -0.197 NA
ENDROOT
BRANCH   1   4
HETATM    4  C   UNK N   1      22.665  12.665   9.290  0.00  0.00    -0.045 A 
HETATM    5  C   UNK N   1      21.851  13.731   9.735  0.00  0.00     0.010 A 
HETATM    6  C   UNK N   1      21.553  14.810   8.890  0.00  0.00     0.030 A 
HETATM    7  C   UNK N   1      22.076  14.836   7.598  0.00  0.00     0.049 A 
HETATM    8  C   UNK N   1      22.931  13.783   7.202  0.00  0.00     0.030 A 
HETATM    9  C   UNK N   1      23.213  12.711   8.022  0.00  0.00     0.010 A 
BRANCH   7  10
HETATM   10  N   UNK N   1      21.670  15.852   6.662  0.00  0.00    -0.192 N 
HETATM   11  C   UNK N   1      22.651  16.585   5.931  0.00  0.00     0.684 A 
HETATM   12  N   UNK N   1      23.934  16.228   6.071  0.00  0.00    -0.175 N 
HETATM   13  N   UNK N   1      22.340  17.654   5.155  0.00  0.00    -0.191 N 
HETATM   14  C   UNK N   1      24.982  16.850   5.554  0.00  0.00     0.135 A 
ATOM     15  HN  UNK N   1      24.123  15.396   6.630  1.00  0.00     0.186 HD
HETATM   16  C   UNK N   1      24.707  17.972   4.711  0.00  0.00     0.036 A 
HETATM   17  C   UNK N   1      25.683  18.729   4.066  0.00  0.00     0.017 A 
HETATM   18  C   UNK N   1      23.339  18.350   4.533  0.00  0.00     0.063 A 
HETATM   19  C   UNK N   1      25.362  19.833   3.282  0.00  0.00     0.001 A 
HETATM   20  C   UNK N   1      24.030  20.206   3.126  0.00  0.00     0.002 A 
HETATM   21  C   UNK N   1      23.020  19.465   3.746  0.00  0.00     0.031 A 
ATOM     22  HN  UNK N   1      21.366  17.936   5.037  1.00  0.00     0.184 HD
HETATM   23  H   UNK N   1      20.713  16.041   6.526  0.00  0.00     0.184 HD
BRANCH  14  24
HETATM   24  N   UNK N   1      26.243  16.323   5.996  0.00  0.00    -0.326 N 
HETATM   25  H   UNK N   1      26.285  15.339   5.989  0.00  0.00     0.169 HD
BRANCH  24  26
HETATM   26  C   UNK N   1      27.429  16.935   6.437  0.00  0.00     0.123 A 
HETATM   27  C   UNK N   1      28.645  16.380   6.349  0.00  0.00     0.076 A 
HETATM   28  C   UNK N   1      29.429  17.120   7.169  0.00  0.00     0.033 A 
HETATM   29  N   UNK N   1      28.705  18.121   7.708  0.00  0.00    -0.303 N 
HETATM   30  N   UNK N   1      27.465  18.008   7.253  0.00  0.00    -0.285 N 
HETATM   31  H   UNK N   1      29.037  18.812   8.326  0.00  0.00     0.186 HD
ATOM     32  HN  UNK N   1      26.682  18.621   7.477  1.00  0.00     0.188 HD
BRANCH  28  33
HETATM   33  C   UNK N   1      30.755  16.638   7.666  0.00  0.00     0.037 A 
HETATM   34  C   UNK N   1      31.603  17.740   8.252  0.00  0.00     0.011 A 
HETATM   35  C   UNK N   1      31.877  17.283   6.838  0.00  0.00     0.011 A 
ENDBRANCH  28  33
ENDBRANCH  24  26
ENDBRANCH  14  24
ENDBRANCH   7  10
ENDBRANCH   1   4
TORSDOF 5
ENDMDL
MODEL 7
REMARK VINA RESULT:      -7.4      9.524     13.733
REMARK  5 active torsions:
REMARK  status: ('A' for Active; 'I' for Inactive)
REMARK       I    between atoms: C_7  and  N_27 
REMARK    1  A    between atoms: C_8  and  N_22 
REMARK    2  A    between atoms: C_9  and  N_27 
REMARK    3  A    between atoms: C_12  and  C_30 
REMARK    4  A    between atoms: C_15  and  C_16 
REMARK    5  A    between atoms: C_21  and  N_22 
ROOT
HETATM    1  C   UNK N   1      36.148   9.310  14.143  0.00  0.00     0.162 C 
HETATM    2  C   UNK N   1      36.090   7.869  14.377  0.00  0.00     0.063 C 
HETATM    3  N   UNK N   1      36.029   6.726  14.533  0.00  0.00    -0.197 NA
ENDROOT
BRANCH   1   4
HETATM    4  C   UNK N   1      35.561   9.681  12.820  0.00  0.00    -0.045 A 
HETATM    5  C   UNK N   1      36.353  10.018  11.698  0.00  0.00     0.010 A 
HETATM    6  C   UNK N   1      35.757  10.400  10.487  0.00  0.00     0.030 A 
HETATM    7  C   UNK N   1      34.367  10.438  10.386  0.00  0.00     0.049 A 
HETATM    8  C   UNK N   1      33.605  10.042  11.507  0.00  0.00     0.030 A 
HETATM    9  C   UNK N   1      34.184   9.683  12.706  0.00  0.00     0.010 A 
BRANCH   7  10
HETATM   10  N   UNK N   1      33.731  10.966   9.207  0.00  0.00    -0.192 N 
HETATM   11  C   UNK N   1      33.543  12.373   9.065  0.00  0.00     0.684 A 
HETATM   12  N   UNK N   1      34.062  13.173  10.005  0.00  0.00    -0.175 N 
HETATM   13  N   UNK N   1      32.816  12.916   8.056  0.00  0.00    -0.191 N 
HETATM   14  C   UNK N   1      33.905  14.484  10.092  0.00  0.00     0.135 A 
ATOM     15  HN  UNK N   1      34.634  12.730  10.724  1.00  0.00     0.186 HD
HETATM   16  C   UNK N   1      33.163  15.110   9.042  0.00  0.00     0.036 A 
HETATM   17  C   UNK N   1      32.919  16.480   8.959  0.00  0.00     0.017 A 
HETATM   18  C   UNK N   1      32.623  14.270   8.017  0.00  0.00     0.063 A 
HETATM   19  C   UNK N   1      32.162  17.033   7.930  0.00  0.00     0.001 A 
HETATM   20  C   UNK N   1      31.625  16.208   6.946  0.00  0.00     0.002 A 
HETATM   21  C   UNK N   1      31.858  14.831   6.986  0.00  0.00     0.031 A 
ATOM     22  HN  UNK N   1      32.417  12.319   7.332  1.00  0.00     0.184 HD
HETATM   23  H   UNK N   1      33.426  10.355   8.497  0.00  0.00     0.184 HD
BRANCH  14  24
HETATM   24  N   UNK N   1      34.456  15.055  11.290  0.00  0.00    -0.326 N 
HETATM   25  H   UNK N   1      34.143  15.970  11.472  0.00  0.00     0.169 HD
BRANCH  24  26
HETATM   26  C   UNK N   1      35.356  14.565  12.252  0.00  0.00     0.123 A 
HETATM   27  C   UNK N   1      35.173  13.440  12.955  0.00  0.00     0.076 A 
HETATM   28  C   UNK N   1      36.063  13.514  13.973  0.00  0.00     0.033 A 
HETATM   29  N   UNK N   1      36.790  14.642  13.860  0.00  0.00    -0.303 N 
HETATM   30  N   UNK N   1      36.354  15.293  12.791  0.00  0.00    -0.285 N 
HETATM   31  H   UNK N   1      37.516  14.930  14.460  0.00  0.00     0.186 HD
ATOM     32  HN  UNK N   1      36.709  16.182  12.440  1.00  0.00     0.188 HD
BRANCH  28  33
HETATM   33  C   UNK N   1      35.952  12.668  15.202  0.00  0.00     0.037 A 
HETATM   34  C   UNK N   1      34.528  12.320  15.555  0.00  0.00     0.011 A 
HETATM   35  C   UNK N   1      35.206  13.448  16.295  0.00  0.00     0.011 A 
ENDBRANCH  28  33
ENDBRANCH  24  26
ENDBRANCH  14  24
ENDBRANCH   7  10
ENDBRANCH   1   4
TORSDOF 5
ENDMDL
MODEL 8
REMARK VINA RESULT:      -7.3     13.040     15.391
REMARK  5 active torsions:
REMARK  status: ('A' for Active; 'I' for Inactive)
REMARK       I    between atoms: C_7  and  N_27 
REMARK    1  A    between atoms: C_8  and  N_22 
REMARK    2  A    between atoms: C_9  and  N_27 
REMARK    3  A    between atoms: C_12  and  C_30 
REMARK    4  A    between atoms: C_15  and  C_16 
REMARK    5  A    between atoms: C_21  and  N_22 
ROOT
HETATM    1  C   UNK N   1      24.919  27.280  -5.685  0.00  0.00     0.162 C 
HETATM    2  C   UNK N   1      25.306  27.776  -4.366  0.00  0.00     0.063 C 
HETATM    3  N   UNK N   1      25.631  28.141  -3.319  0.00  0.00    -0.197 NA
ENDROOT
BRANCH   1   4
HETATM    4  C   UNK N   1      25.577  25.976  -6.001  0.00  0.00    -0.045 A 
HETATM    5  C   UNK N   1      25.417  24.824  -5.199  0.00  0.00     0.010 A 
HETATM    6  C   UNK N   1      26.087  23.632  -5.512  0.00  0.00     0.030 A 
HETATM    7  C   UNK N   1      26.912  23.581  -6.634  0.00  0.00     0.049 A 
HETATM    8  C   UNK N   1      27.006  24.733  -7.446  0.00  0.00     0.030 A 
HETATM    9  C   UNK N   1      26.365  25.913  -7.134  0.00  0.00     0.010 A 
BRANCH   7  10
HETATM   10  N   UNK N   1      27.725  22.421  -6.896  0.00  0.00    -0.192 N 
HETATM   11  C   UNK N   1      28.951  22.234  -6.191  0.00  0.00     0.684 A 
HETATM   12  N   UNK N   1      29.260  23.108  -5.225  0.00  0.00    -0.175 N 
HETATM   13  N   UNK N   1      29.831  21.249  -6.503  0.00  0.00    -0.191 N 
HETATM   14  C   UNK N   1      30.390  23.150  -4.538  0.00  0.00     0.135 A 
ATOM     15  HN  UNK N   1      28.555  23.808  -4.994  1.00  0.00     0.186 HD
HETATM   16  C   UNK N   1      31.344  22.121  -4.814  0.00  0.00     0.036 A 
HETATM   17  C   UNK N   1      32.575  21.997  -4.172  0.00  0.00     0.017 A 
HETATM   18  C   UNK N   1      31.017  21.166  -5.828  0.00  0.00     0.063 A 
HETATM   19  C   UNK N   1      33.482  20.994  -4.503  0.00  0.00     0.001 A 
HETATM   20  C   UNK N   1      33.165  20.078  -5.502  0.00  0.00     0.002 A 
HETATM   21  C   UNK N   1      31.935  20.160  -6.161  0.00  0.00     0.031 A 
ATOM     22  HN  UNK N   1      29.609  20.574  -7.235  1.00  0.00     0.184 HD
HETATM   23  H   UNK N   1      27.434  21.757  -7.562  0.00  0.00     0.184 HD
BRANCH  14  24
HETATM   24  N   UNK N   1      30.496  24.288  -3.667  0.00  0.00    -0.326 N 
HETATM   25  H   UNK N   1      30.912  24.084  -2.799  0.00  0.00     0.169 HD
BRANCH  24  26
HETATM   26  C   UNK N   1      30.121  25.635  -3.811  0.00  0.00     0.123 A 
HETATM   27  C   UNK N   1      30.867  26.674  -3.413  0.00  0.00     0.076 A 
HETATM   28  C   UNK N   1      30.024  27.734  -3.419  0.00  0.00     0.033 A 
HETATM   29  N   UNK N   1      28.808  27.344  -3.848  0.00  0.00    -0.303 N 
HETATM   30  N   UNK N   1      28.868  26.043  -4.093  0.00  0.00    -0.285 N 
HETATM   31  H   UNK N   1      28.018  27.921  -3.960  0.00  0.00     0.186 HD
ATOM     32  HN  UNK N   1      28.106  25.457  -4.434  1.00  0.00     0.188 HD
BRANCH  28  33
HETATM   33  C   UNK N   1      30.326  29.007  -2.693  0.00  0.00     0.037 A 
HETATM   34  C   UNK N   1      29.234  30.038  -2.829  0.00  0.00     0.011 A 
HETATM   35  C   UNK N   1      30.459  30.154  -3.705  0.00  0.00     0.011 A 
ENDBRANCH  28  33
ENDBRANCH  24  26
ENDBRANCH  14  24
ENDBRANCH   7  10
ENDBRANCH   1   4
TORSDOF 5
ENDMDL
MODEL 9
REMARK VINA RESULT:      -7.3     12.663     14.430
REMARK  5 active torsions:
REMARK  status: ('A' for Active; 'I' for Inactive)
REMARK       I    between atoms: C_7  and  N_27 
REMARK    1  A    between atoms: C_8  and  N_22 
REMARK    2  A    between atoms: C_9  and  N_27 
REMARK    3  A    between atoms: C_12  and  C_30 
REMARK    4  A    between atoms: C_15  and  C_16 
REMARK    5  A    between atoms: C_21  and  N_22 
ROOT
HETATM    1  C   UNK N   1      29.689  18.685  -8.024  0.00  0.00     0.162 C 
HETATM    2  C   UNK N   1      30.872  18.573  -8.875  0.00  0.00     0.063 C 
HETATM    3  N   UNK N   1      31.801  18.516  -9.560  0.00  0.00    -0.197 NA
ENDROOT
BRANCH   1   4
HETATM    4  C   UNK N   1      29.005  20.002  -8.196  0.00  0.00    -0.045 A 
HETATM    5  C   UNK N   1      29.683  21.166  -8.625  0.00  0.00     0.010 A 
HETATM    6  C   UNK N   1      29.008  22.392  -8.733  0.00  0.00     0.030 A 
HETATM    7  C   UNK N   1      27.651  22.459  -8.422  0.00  0.00     0.049 A 
HETATM    8  C   UNK N   1      26.991  21.267  -8.050  0.00  0.00     0.030 A 
HETATM    9  C   UNK N   1      27.652  20.063  -7.925  0.00  0.00     0.010 A 
BRANCH   7  10
HETATM   10  N   UNK N   1      26.970  23.727  -8.381  0.00  0.00    -0.192 N 
HETATM   11  C   UNK N   1      26.928  24.476  -7.168  0.00  0.00     0.684 A 
HETATM   12  N   UNK N   1      27.619  24.013  -6.119  0.00  0.00    -0.175 N 
HETATM   13  N   UNK N   1      26.174  25.596  -7.025  0.00  0.00    -0.191 N 
HETATM   14  C   UNK N   1      27.618  24.516  -4.895  0.00  0.00     0.135 A 
ATOM     15  HN  UNK N   1      28.203  23.192  -6.278  1.00  0.00     0.186 HD
HETATM   16  C   UNK N   1      26.855  25.709  -4.695  0.00  0.00     0.036 A 
HETATM   17  C   UNK N   1      26.758  26.388  -3.482  0.00  0.00     0.017 A 
HETATM   18  C   UNK N   1      26.131  26.230  -5.814  0.00  0.00     0.063 A 
HETATM   19  C   UNK N   1      25.974  27.528  -3.334  0.00  0.00     0.001 A 
HETATM   20  C   UNK N   1      25.258  28.020  -4.422  0.00  0.00     0.002 A 
HETATM   21  C   UNK N   1      25.338  27.377  -5.660  0.00  0.00     0.031 A 
ATOM     22  HN  UNK N   1      25.644  25.963  -7.816  1.00  0.00     0.184 HD
HETATM   23  H   UNK N   1      26.533  24.078  -9.190  0.00  0.00     0.184 HD
BRANCH  14  24
HETATM   24  N   UNK N   1      28.340  23.721  -3.941  0.00  0.00    -0.326 N 
HETATM   25  H   UNK N   1      27.900  23.662  -3.062  0.00  0.00     0.169 HD
BRANCH  24  26
HETATM   26  C   UNK N   1      29.551  23.011  -4.015  0.00  0.00     0.123 A 
HETATM   27  C   UNK N   1      29.844  22.111  -4.962  0.00  0.00     0.076 A 
HETATM   28  C   UNK N   1      30.919  21.439  -4.487  0.00  0.00     0.033 A 
HETATM   29  N   UNK N   1      31.286  21.952  -3.296  0.00  0.00    -0.303 N 
HETATM   30  N   UNK N   1      30.439  22.928  -3.003  0.00  0.00    -0.285 N 
HETATM   31  H   UNK N   1      32.045  21.656  -2.744  0.00  0.00     0.186 HD
ATOM     32  HN  UNK N   1      30.456  23.511  -2.167  1.00  0.00     0.188 HD
BRANCH  28  33
HETATM   33  C   UNK N   1      31.346  20.113  -5.034  0.00  0.00     0.037 A 
HETATM   34  C   UNK N   1      32.746  19.729  -4.626  0.00  0.00     0.011 A 
HETATM   35  C   UNK N   1      32.522  20.313  -6.001  0.00  0.00     0.011 A 
ENDBRANCH  28  33
ENDBRANCH  24  26
ENDBRANCH  14  24
ENDBRANCH   7  10
ENDBRANCH   1   4
TORSDOF 5
ENDMDL
