REMARK  5 active torsions:
REMARK  status: ('A' for Active; 'I' for Inactive)
REMARK       I    between atoms: C_7  and  N_27 
REMARK    1  A    between atoms: C_8  and  N_22 
REMARK    2  A    between atoms: C_9  and  N_27 
REMARK    3  A    between atoms: C_12  and  C_30 
REMARK    4  A    between atoms: C_15  and  C_16 
REMARK    5  A    between atoms: C_21  and  N_22 
ROOT
HETATM    1  C   UNK N   1       6.626  -0.787   0.025  0.00  0.00     0.162 C 
HETATM    2  C   UNK N   1       7.951  -0.171   0.019  0.00  0.00     0.063 C 
HETATM    3  N   UNK N   1       8.984   0.346   0.012  0.00  0.00    -0.197 NA
ENDROOT
BRANCH   1   4
HETATM    4  C   UNK N   1       5.539   0.236  -0.045  0.00  0.00    -0.045 A 
HETATM    5  C   UNK N   1       5.752   1.601   0.254  0.00  0.00     0.010 A 
HETATM    6  C   UNK N   1       4.692   2.519   0.215  0.00  0.00     0.030 A 
HETATM    7  C   UNK N   1       3.415   2.081  -0.133  0.00  0.00     0.049 A 
HETATM    8  C   UNK N   1       3.247   0.722  -0.480  0.00  0.00     0.030 A 
HETATM    9  C   UNK N   1       4.281  -0.189  -0.426  0.00  0.00     0.010 A 
BRANCH   7  10
HETATM   10  N   UNK N   1       2.284   2.967  -0.038  0.00  0.00    -0.192 N 
HETATM   11  C   UNK N   1       0.964   2.434   0.049  0.00  0.00     0.684 A 
HETATM   12  N   UNK N   1       0.828   1.105   0.140  0.00  0.00    -0.175 N 
HETATM   13  N   UNK N   1      -0.146   3.213  -0.016  0.00  0.00    -0.191 N 
HETATM   14  C   UNK N   1      -0.311   0.431   0.130  0.00  0.00     0.135 A 
ATOM     15  HN  UNK N   1       1.685   0.559   0.226  1.00  0.00     0.186 HD
HETATM   16  C   UNK N   1      -1.512   1.206   0.083  0.00  0.00     0.036 A 
HETATM   17  C   UNK N   1      -2.797   0.667   0.088  0.00  0.00     0.017 A 
HETATM   18  C   UNK N   1      -1.382   2.629   0.010  0.00  0.00     0.063 A 
HETATM   19  C   UNK N   1      -3.933   1.467   0.008  0.00  0.00     0.001 A 
HETATM   20  C   UNK N   1      -3.800   2.850  -0.080  0.00  0.00     0.002 A 
HETATM   21  C   UNK N   1      -2.529   3.431  -0.075  0.00  0.00     0.031 A 
ATOM     22  HN  UNK N   1      -0.058   4.227  -0.083  1.00  0.00     0.184 HD
HETATM   23  H   UNK N   1       2.422   3.942  -0.033  0.00  0.00     0.184 HD
BRANCH  14  24
HETATM   24  N   UNK N   1      -0.139  -0.995   0.094  0.00  0.00    -0.326 N 
HETATM   25  H   UNK N   1       0.796  -1.283   0.204  0.00  0.00     0.169 HD
BRANCH  24  26
HETATM   26  C   UNK N   1      -1.042  -2.060  -0.069  0.00  0.00     0.123 A 
HETATM   27  C   UNK N   1      -2.374  -1.925  -0.094  0.00  0.00     0.076 A 
HETATM   28  C   UNK N   1      -2.857  -3.179   0.073  0.00  0.00     0.033 A 
HETATM   29  N   UNK N   1      -1.834  -4.052   0.158  0.00  0.00    -0.303 N 
HETATM   30  N   UNK N   1      -0.708  -3.359   0.068  0.00  0.00    -0.285 N 
HETATM   31  H   UNK N   1      -1.909  -5.028   0.266  0.00  0.00     0.186 HD
ATOM     32  HN  UNK N   1       0.238  -3.738   0.096  1.00  0.00     0.188 HD
BRANCH  28  33
HETATM   33  C   UNK N   1      -4.270  -3.450   0.482  0.00  0.00     0.037 A 
HETATM   34  C   UNK N   1      -5.261  -3.233  -0.634  0.00  0.00     0.011 A 
HETATM   35  C   UNK N   1      -5.084  -2.150   0.404  0.00  0.00     0.011 A 
ENDBRANCH  28  33
ENDBRANCH  24  26
ENDBRANCH  14  24
ENDBRANCH   7  10
ENDBRANCH   1   4
TORSDOF 5
