MODEL 1
REMARK VINA RESULT:      -7.3      0.000      0.000
REMARK  8 active torsions:
REMARK  status: ('A' for Active; 'I' for Inactive)
REMARK    1  A    between atoms: N_6  and  C_14 
REMARK    2  A    between atoms: C_7  and  N_13 
REMARK    3  A    between atoms: N_13  and  C_20 
REMARK    4  A    between atoms: C_25  and  O_26 
REMARK    5  A    between atoms: O_26  and  C_27 
REMARK    6  A    between atoms: C_27  and  C_29 
REMARK    7  A    between atoms: C_29  and  C_30 
REMARK    8  A    between atoms: C_30  and  N_31 
ROOT
HETATM    1  C   UNK N   1      21.561  12.377   7.413  0.00  0.00     0.185 A 
HETATM    2  N   UNK N   1      20.793  12.879   6.400  0.00  0.00    -0.346 N 
ATOM      3  HN  UNK N   1      20.497  12.409   5.544  1.00  0.00     0.167 HD
HETATM    4  C   UNK N   1      20.516  14.140   6.790  0.00  0.00     0.122 A 
HETATM    5  C   UNK N   1      21.115  14.396   7.966  0.00  0.00     0.142 A 
HETATM    6  N   UNK N   1      21.774  13.311   8.380  0.00  0.00    -0.322 N 
HETATM    7  C   UNK N   1      19.711  15.115   6.218  0.00  0.00     0.139 A 
HETATM    8  N   UNK N   1      20.975  15.579   8.623  0.00  0.00    -0.318 N 
ATOM      9  HN  UNK N   1      21.432  15.739   9.520  1.00  0.00     0.169 HD
HETATM   10  N   UNK N   1      19.589  16.300   6.866  0.00  0.00    -0.318 N 
ATOM     11  HN  UNK N   1      19.013  17.032   6.452  1.00  0.00     0.169 HD
HETATM   12  C   UNK N   1      20.206  16.543   8.044  0.00  0.00     0.191 A 
HETATM   13  N   UNK N   1      19.809  18.865   9.104  0.00  0.00    -0.188 NA
HETATM   14  C   UNK N   1      20.006  17.818   8.656  0.00  0.00     0.137 C 
ENDROOT
BRANCH   7  15
HETATM   15  N   UNK N   1      19.011  14.903   5.020  0.00  0.00    -0.338 N 
HETATM   16  H   UNK N   1      18.036  14.778   5.068  0.00  0.00     0.167 HD
BRANCH  15  17
HETATM   17  C   UNK N   1      19.635  14.859   3.735  0.00  0.00     0.067 A 
HETATM   18  C   UNK N   1      19.895  13.657   3.056  0.00  0.00     0.032 A 
HETATM   19  C   UNK N   1      20.479  13.669   1.790  0.00  0.00     0.002 A 
HETATM   20  C   UNK N   1      20.773  14.885   1.174  0.00  0.00     0.003 A 
HETATM   21  C   UNK N   1      20.530  16.083   1.845  0.00  0.00     0.039 A 
HETATM   22  C   UNK N   1      19.992  16.064   3.129  0.00  0.00     0.095 A 
BRANCH  22  23
HETATM   23  O   UNK N   1      19.894  17.209   3.807  0.00  0.00    -0.349 OA
BRANCH  23  24
HETATM   24  C   UNK N   1      19.988  18.390   3.105  0.00  0.00     0.177 C 
BRANCH  24  25
HETATM   25  C   UNK N   1      21.068  19.241   3.670  0.00  0.00     0.047 C 
BRANCH  25  26
HETATM   26  C   UNK N   1      21.357  18.655   5.024  0.00  0.00     0.131 C 
BRANCH  26  27
HETATM   27  N   UNK N   1      22.702  18.147   5.091  0.00  0.00    -0.352 N 
HETATM   28  C   UNK N   1      23.056  17.016   5.707  0.00  0.00     0.182 A 
HETATM   29  N   UNK N   1      24.368  16.777   5.540  0.00  0.00    -0.361 N 
HETATM   30  C   UNK N   1      24.839  17.796   4.789  0.00  0.00     0.106 A 
ATOM     31  HN  UNK N   1      24.899  15.987   5.907  1.00  0.00     0.166 HD
HETATM   32  C   UNK N   1      23.798  18.649   4.504  0.00  0.00     0.108 A 
ENDBRANCH  26  27
ENDBRANCH  25  26
ENDBRANCH  24  25
ENDBRANCH  23  24
ENDBRANCH  22  23
ENDBRANCH  15  17
ENDBRANCH   7  15
BRANCH   6  33
HETATM   33  C   UNK N   1      22.370  13.131   9.707  0.00  0.00     0.092 C 
HETATM   34  C   UNK N   1      21.547  12.354  10.691  0.00  0.00     0.026 C 
HETATM   35  C   UNK N   1      22.563  12.042  11.782  0.00  0.00     0.002 C 
HETATM   36  C   UNK N   1      23.932  12.022  11.112  0.00  0.00     0.002 C 
HETATM   37  C   UNK N   1      23.679  12.372   9.670  0.00  0.00     0.026 C 
ENDBRANCH   6  33
TORSDOF 8
ENDMDL
MODEL 2
REMARK VINA RESULT:      -7.2      2.148      7.242
REMARK  8 active torsions:
REMARK  status: ('A' for Active; 'I' for Inactive)
REMARK    1  A    between atoms: N_6  and  C_14 
REMARK    2  A    between atoms: C_7  and  N_13 
REMARK    3  A    between atoms: N_13  and  C_20 
REMARK    4  A    between atoms: C_25  and  O_26 
REMARK    5  A    between atoms: O_26  and  C_27 
REMARK    6  A    between atoms: C_27  and  C_29 
REMARK    7  A    between atoms: C_29  and  C_30 
REMARK    8  A    between atoms: C_30  and  N_31 
ROOT
HETATM    1  C   UNK N   1      19.689  16.679   4.003  0.00  0.00     0.185 A 
HETATM    2  N   UNK N   1      19.829  15.556   4.768  0.00  0.00    -0.346 N 
ATOM      3  HN  UNK N   1      19.112  14.878   5.024  1.00  0.00     0.167 HD
HETATM    4  C   UNK N   1      21.135  15.548   5.105  0.00  0.00     0.122 A 
HETATM    5  C   UNK N   1      21.744  16.633   4.596  0.00  0.00     0.142 A 
HETATM    6  N   UNK N   1      20.865  17.357   3.900  0.00  0.00    -0.322 N 
HETATM    7  C   UNK N   1      21.890  14.617   5.803  0.00  0.00     0.139 A 
HETATM    8  N   UNK N   1      23.077  16.865   4.740  0.00  0.00    -0.318 N 
ATOM      9  HN  UNK N   1      23.513  17.691   4.330  1.00  0.00     0.169 HD
HETATM   10  N   UNK N   1      23.214  14.862   5.961  0.00  0.00    -0.318 N 
ATOM     11  HN  UNK N   1      23.781  14.194   6.484  1.00  0.00     0.169 HD
HETATM   12  C   UNK N   1      23.810  15.962   5.449  0.00  0.00     0.191 A 
HETATM   13  N   UNK N   1      26.349  16.205   5.859  0.00  0.00    -0.188 NA
HETATM   14  C   UNK N   1      25.213  16.126   5.659  0.00  0.00     0.137 C 
ENDROOT
BRANCH   7  15
HETATM   15  N   UNK N   1      21.336  13.435   6.318  0.00  0.00    -0.338 N 
HETATM   16  H   UNK N   1      20.622  12.994   5.804  0.00  0.00     0.167 HD
BRANCH  15  17
HETATM   17  C   UNK N   1      21.751  12.835   7.548  0.00  0.00     0.067 A 
HETATM   18  C   UNK N   1      22.699  11.799   7.607  0.00  0.00     0.032 A 
HETATM   19  C   UNK N   1      23.091  11.267   8.835  0.00  0.00     0.002 A 
HETATM   20  C   UNK N   1      22.572  11.793  10.017  0.00  0.00     0.003 A 
HETATM   21  C   UNK N   1      21.624  12.814   9.967  0.00  0.00     0.039 A 
HETATM   22  C   UNK N   1      21.196  13.307   8.737  0.00  0.00     0.095 A 
BRANCH  22  23
HETATM   23  O   UNK N   1      20.191  14.184   8.705  0.00  0.00    -0.349 OA
BRANCH  23  24
HETATM   24  C   UNK N   1      20.399  15.431   9.252  0.00  0.00     0.177 C 
BRANCH  24  25
HETATM   25  C   UNK N   1      19.963  16.489   8.304  0.00  0.00     0.047 C 
BRANCH  25  26
HETATM   26  C   UNK N   1      18.509  16.715   8.613  0.00  0.00     0.131 C 
BRANCH  26  27
HETATM   27  N   UNK N   1      18.344  17.755   9.593  0.00  0.00    -0.352 N 
HETATM   28  C   UNK N   1      19.203  18.760   9.785  0.00  0.00     0.182 A 
HETATM   29  N   UNK N   1      18.743  19.604  10.725  0.00  0.00    -0.361 N 
HETATM   30  C   UNK N   1      17.553  19.104  11.122  0.00  0.00     0.106 A 
ATOM     31  HN  UNK N   1      19.200  20.449  11.067  1.00  0.00     0.166 HD
HETATM   32  C   UNK N   1      17.301  17.952  10.413  0.00  0.00     0.108 A 
ENDBRANCH  26  27
ENDBRANCH  25  26
ENDBRANCH  24  25
ENDBRANCH  23  24
ENDBRANCH  22  23
ENDBRANCH  15  17
ENDBRANCH   7  15
BRANCH   6  33
HETATM   33  C   UNK N   1      21.193  18.489   3.027  0.00  0.00     0.092 C 
HETATM   34  C   UNK N   1      20.390  18.592   1.765  0.00  0.00     0.026 C 
HETATM   35  C   UNK N   1      20.704  20.009   1.302  0.00  0.00     0.002 C 
HETATM   36  C   UNK N   1      21.049  20.811   2.551  0.00  0.00     0.002 C 
HETATM   37  C   UNK N   1      20.977  19.830   3.691  0.00  0.00     0.026 C 
ENDBRANCH   6  33
TORSDOF 8
ENDMDL
MODEL 3
REMARK VINA RESULT:      -7.1      2.323      4.257
REMARK  8 active torsions:
REMARK  status: ('A' for Active; 'I' for Inactive)
REMARK    1  A    between atoms: N_6  and  C_14 
REMARK    2  A    between atoms: C_7  and  N_13 
REMARK    3  A    between atoms: N_13  and  C_20 
REMARK    4  A    between atoms: C_25  and  O_26 
REMARK    5  A    between atoms: O_26  and  C_27 
REMARK    6  A    between atoms: C_27  and  C_29 
REMARK    7  A    between atoms: C_29  and  C_30 
REMARK    8  A    between atoms: C_30  and  N_31 
ROOT
HETATM    1  C   UNK N   1      20.641  15.876   8.580  0.00  0.00     0.185 A 
HETATM    2  N   UNK N   1      20.949  16.852   7.675  0.00  0.00    -0.346 N 
ATOM      3  HN  UNK N   1      20.581  17.803   7.629  1.00  0.00     0.167 HD
HETATM    4  C   UNK N   1      21.850  16.272   6.857  0.00  0.00     0.122 A 
HETATM    5  C   UNK N   1      22.051  14.996   7.231  0.00  0.00     0.142 A 
HETATM    6  N   UNK N   1      21.310  14.721   8.307  0.00  0.00    -0.322 N 
HETATM    7  C   UNK N   1      22.585  16.787   5.799  0.00  0.00     0.139 A 
HETATM    8  N   UNK N   1      22.944  14.178   6.611  0.00  0.00    -0.318 N 
ATOM      9  HN  UNK N   1      23.084  13.219   6.926  1.00  0.00     0.169 HD
HETATM   10  N   UNK N   1      23.460  15.963   5.171  0.00  0.00    -0.318 N 
ATOM     11  HN  UNK N   1      23.998  16.322   4.383  1.00  0.00     0.169 HD
HETATM   12  C   UNK N   1      23.644  14.680   5.556  0.00  0.00     0.191 A 
HETATM   13  N   UNK N   1      25.380  13.307   4.225  0.00  0.00    -0.188 NA
HETATM   14  C   UNK N   1      24.597  13.894   4.839  0.00  0.00     0.137 C 
ENDROOT
BRANCH   7  15
HETATM   15  N   UNK N   1      22.470  18.123   5.385  0.00  0.00    -0.338 N 
HETATM   16  H   UNK N   1      22.924  18.815   5.917  0.00  0.00     0.167 HD
BRANCH  15  17
HETATM   17  C   UNK N   1      21.730  18.535   4.233  0.00  0.00     0.067 A 
HETATM   18  C   UNK N   1      20.524  17.926   3.847  0.00  0.00     0.032 A 
HETATM   19  C   UNK N   1      19.825  18.384   2.731  0.00  0.00     0.002 A 
HETATM   20  C   UNK N   1      20.303  19.479   2.013  0.00  0.00     0.003 A 
HETATM   21  C   UNK N   1      21.505  20.082   2.382  0.00  0.00     0.039 A 
HETATM   22  C   UNK N   1      22.226  19.590   3.467  0.00  0.00     0.095 A 
BRANCH  22  23
HETATM   23  O   UNK N   1      23.437  20.089   3.721  0.00  0.00    -0.349 OA
BRANCH  23  24
HETATM   24  C   UNK N   1      24.194  20.530   2.658  0.00  0.00     0.177 C 
BRANCH  24  25
HETATM   25  C   UNK N   1      25.642  20.399   2.967  0.00  0.00     0.047 C 
BRANCH  25  26
HETATM   26  C   UNK N   1      25.749  19.164   3.816  0.00  0.00     0.131 C 
BRANCH  26  27
HETATM   27  N   UNK N   1      26.473  19.432   5.030  0.00  0.00    -0.352 N 
HETATM   28  C   UNK N   1      27.367  18.605   5.580  0.00  0.00     0.182 A 
HETATM   29  N   UNK N   1      27.919  19.162   6.671  0.00  0.00    -0.361 N 
HETATM   30  C   UNK N   1      27.350  20.380   6.795  0.00  0.00     0.106 A 
ATOM     31  HN  UNK N   1      28.625  18.748   7.280  1.00  0.00     0.166 HD
HETATM   32  C   UNK N   1      26.450  20.552   5.768  0.00  0.00     0.108 A 
ENDBRANCH  26  27
ENDBRANCH  25  26
ENDBRANCH  24  25
ENDBRANCH  23  24
ENDBRANCH  22  23
ENDBRANCH  15  17
ENDBRANCH   7  15
BRANCH   6  33
HETATM   33  C   UNK N   1      21.415  13.511   9.128  0.00  0.00     0.092 C 
HETATM   34  C   UNK N   1      22.699  13.349   9.887  0.00  0.00     0.026 C 
HETATM   35  C   UNK N   1      22.347  12.246  10.877  0.00  0.00     0.002 C 
HETATM   36  C   UNK N   1      20.842  12.327  11.106  0.00  0.00     0.002 C 
HETATM   37  C   UNK N   1      20.358  13.435  10.208  0.00  0.00     0.026 C 
ENDBRANCH   6  33
TORSDOF 8
ENDMDL
MODEL 4
REMARK VINA RESULT:      -7.1     12.285     15.252
REMARK  8 active torsions:
REMARK  status: ('A' for Active; 'I' for Inactive)
REMARK    1  A    between atoms: N_6  and  C_14 
REMARK    2  A    between atoms: C_7  and  N_13 
REMARK    3  A    between atoms: N_13  and  C_20 
REMARK    4  A    between atoms: C_25  and  O_26 
REMARK    5  A    between atoms: O_26  and  C_27 
REMARK    6  A    between atoms: C_27  and  C_29 
REMARK    7  A    between atoms: C_29  and  C_30 
REMARK    8  A    between atoms: C_30  and  N_31 
ROOT
HETATM    1  C   UNK N   1      36.244  14.702  13.265  0.00  0.00     0.185 A 
HETATM    2  N   UNK N   1      36.024  15.429  12.129  0.00  0.00    -0.346 N 
ATOM      3  HN  UNK N   1      36.321  16.384  11.928  1.00  0.00     0.167 HD
HETATM    4  C   UNK N   1      35.326  14.593  11.333  0.00  0.00     0.122 A 
HETATM    5  C   UNK N   1      35.107  13.431  11.972  0.00  0.00     0.142 A 
HETATM    6  N   UNK N   1      35.672  13.469  13.182  0.00  0.00    -0.322 N 
HETATM    7  C   UNK N   1      34.886  14.736  10.025  0.00  0.00     0.139 A 
HETATM    8  N   UNK N   1      34.462  12.382  11.393  0.00  0.00    -0.318 N 
ATOM      9  HN  UNK N   1      34.323  11.507  11.900  1.00  0.00     0.169 HD
HETATM   10  N   UNK N   1      34.227  13.695   9.459  0.00  0.00    -0.318 N 
ATOM     11  HN  UNK N   1      33.885  13.789   8.502  1.00  0.00     0.169 HD
HETATM   12  C   UNK N   1      34.009  12.536  10.119  0.00  0.00     0.191 A 
HETATM   13  N   UNK N   1      32.751  10.685   8.828  0.00  0.00    -0.188 NA
HETATM   14  C   UNK N   1      33.315  11.492   9.432  0.00  0.00     0.137 C 
ENDROOT
BRANCH   7  15
HETATM   15  N   UNK N   1      35.124  15.898   9.275  0.00  0.00    -0.338 N 
HETATM   16  H   UNK N   1      35.932  16.422   9.475  0.00  0.00     0.167 HD
BRANCH  15  17
HETATM   17  C   UNK N   1      34.257  16.363   8.238  0.00  0.00     0.067 A 
HETATM   18  C   UNK N   1      33.016  16.970   8.498  0.00  0.00     0.032 A 
HETATM   19  C   UNK N   1      32.220  17.432   7.451  0.00  0.00     0.002 A 
HETATM   20  C   UNK N   1      32.674  17.330   6.136  0.00  0.00     0.003 A 
HETATM   21  C   UNK N   1      33.898  16.719   5.868  0.00  0.00     0.039 A 
HETATM   22  C   UNK N   1      34.667  16.213   6.913  0.00  0.00     0.095 A 
BRANCH  22  23
HETATM   23  O   UNK N   1      35.766  15.512   6.628  0.00  0.00    -0.349 OA
BRANCH  23  24
HETATM   24  C   UNK N   1      35.615  14.282   6.026  0.00  0.00     0.177 C 
BRANCH  24  25
HETATM   25  C   UNK N   1      36.230  13.219   6.863  0.00  0.00     0.047 C 
BRANCH  25  26
HETATM   26  C   UNK N   1      37.577  13.762   7.255  0.00  0.00     0.131 C 
BRANCH  26  27
HETATM   27  N   UNK N   1      37.933  13.350   8.586  0.00  0.00    -0.352 N 
HETATM   28  C   UNK N   1      38.496  14.144   9.502  0.00  0.00     0.182 A 
HETATM   29  N   UNK N   1      38.648  13.491  10.666  0.00  0.00    -0.361 N 
HETATM   30  C   UNK N   1      38.155  12.250  10.463  0.00  0.00     0.106 A 
ATOM     31  HN  UNK N   1      39.053  13.859  11.527  1.00  0.00     0.166 HD
HETATM   32  C   UNK N   1      37.704  12.163   9.166  0.00  0.00     0.108 A 
ENDBRANCH  26  27
ENDBRANCH  25  26
ENDBRANCH  24  25
ENDBRANCH  23  24
ENDBRANCH  22  23
ENDBRANCH  15  17
ENDBRANCH   7  15
BRANCH   6  33
HETATM   33  C   UNK N   1      35.830  12.326  14.085  0.00  0.00     0.092 C 
HETATM   34  C   UNK N   1      37.192  11.697  14.107  0.00  0.00     0.026 C 
HETATM   35  C   UNK N   1      37.124  10.831  15.358  0.00  0.00     0.002 C 
HETATM   36  C   UNK N   1      36.110  11.486  16.289  0.00  0.00     0.002 C 
HETATM   37  C   UNK N   1      35.584  12.678  15.535  0.00  0.00     0.026 C 
ENDBRANCH   6  33
TORSDOF 8
ENDMDL
MODEL 5
REMARK VINA RESULT:      -7.1      2.123      3.236
REMARK  8 active torsions:
REMARK  status: ('A' for Active; 'I' for Inactive)
REMARK    1  A    between atoms: N_6  and  C_14 
REMARK    2  A    between atoms: C_7  and  N_13 
REMARK    3  A    between atoms: N_13  and  C_20 
REMARK    4  A    between atoms: C_25  and  O_26 
REMARK    5  A    between atoms: O_26  and  C_27 
REMARK    6  A    between atoms: C_27  and  C_29 
REMARK    7  A    between atoms: C_29  and  C_30 
REMARK    8  A    between atoms: C_30  and  N_31 
ROOT
HETATM    1  C   UNK N   1      23.217  13.859   7.431  0.00  0.00     0.185 A 
HETATM    2  N   UNK N   1      22.763  14.501   6.313  0.00  0.00    -0.346 N 
ATOM      3  HN  UNK N   1      23.152  14.469   5.371  1.00  0.00     0.167 HD
HETATM    4  C   UNK N   1      21.684  15.186   6.742  0.00  0.00     0.122 A 
HETATM    5  C   UNK N   1      21.515  14.992   8.062  0.00  0.00     0.142 A 
HETATM    6  N   UNK N   1      22.458  14.165   8.519  0.00  0.00    -0.322 N 
HETATM    7  C   UNK N   1      20.760  15.957   6.051  0.00  0.00     0.139 A 
HETATM    8  N   UNK N   1      20.476  15.528   8.758  0.00  0.00    -0.318 N 
ATOM      9  HN  UNK N   1      20.367  15.352   9.757  1.00  0.00     0.169 HD
HETATM   10  N   UNK N   1      19.737  16.504   6.752  0.00  0.00    -0.318 N 
ATOM     11  HN  UNK N   1      19.058  17.085   6.261  1.00  0.00     0.169 HD
HETATM   12  C   UNK N   1      19.587  16.306   8.081  0.00  0.00     0.191 A 
HETATM   13  N   UNK N   1      17.549  17.432   9.199  0.00  0.00    -0.188 NA
HETATM   14  C   UNK N   1      18.469  16.916   8.729  0.00  0.00     0.137 C 
ENDROOT
BRANCH   7  15
HETATM   15  N   UNK N   1      20.839  16.160   4.664  0.00  0.00    -0.338 N 
HETATM   16  H   UNK N   1      20.687  15.389   4.073  0.00  0.00     0.167 HD
BRANCH  15  17
HETATM   17  C   UNK N   1      21.128  17.425   4.064  0.00  0.00     0.067 A 
HETATM   18  C   UNK N   1      20.149  18.207   3.430  0.00  0.00     0.032 A 
HETATM   19  C   UNK N   1      20.476  19.448   2.885  0.00  0.00     0.002 A 
HETATM   20  C   UNK N   1      21.777  19.937   3.004  0.00  0.00     0.003 A 
HETATM   21  C   UNK N   1      22.758  19.162   3.622  0.00  0.00     0.039 A 
HETATM   22  C   UNK N   1      22.438  17.902   4.120  0.00  0.00     0.095 A 
BRANCH  22  23
HETATM   23  O   UNK N   1      23.416  17.120   4.582  0.00  0.00    -0.349 OA
BRANCH  23  24
HETATM   24  C   UNK N   1      24.426  16.763   3.717  0.00  0.00     0.177 C 
BRANCH  24  25
HETATM   25  C   UNK N   1      25.740  16.814   4.410  0.00  0.00     0.047 C 
BRANCH  25  26
HETATM   26  C   UNK N   1      26.385  18.085   3.930  0.00  0.00     0.131 C 
BRANCH  26  27
HETATM   27  N   UNK N   1      26.693  18.956   5.032  0.00  0.00    -0.352 N 
HETATM   28  C   UNK N   1      25.924  19.973   5.435  0.00  0.00     0.182 A 
HETATM   29  N   UNK N   1      26.446  20.557   6.526  0.00  0.00    -0.361 N 
HETATM   30  C   UNK N   1      27.574  19.872   6.812  0.00  0.00     0.106 A 
ATOM     31  HN  UNK N   1      26.066  21.356   7.035  1.00  0.00     0.166 HD
HETATM   32  C   UNK N   1      27.727  18.869   5.882  0.00  0.00     0.108 A 
ENDBRANCH  26  27
ENDBRANCH  25  26
ENDBRANCH  24  25
ENDBRANCH  23  24
ENDBRANCH  22  23
ENDBRANCH  15  17
ENDBRANCH   7  15
BRANCH   6  33
HETATM   33  C   UNK N   1      22.482  13.553   9.851  0.00  0.00     0.092 C 
HETATM   34  C   UNK N   1      21.336  12.637  10.167  0.00  0.00     0.026 C 
HETATM   35  C   UNK N   1      21.838  11.914  11.410  0.00  0.00     0.002 C 
HETATM   36  C   UNK N   1      23.361  11.917  11.333  0.00  0.00     0.002 C 
HETATM   37  C   UNK N   1      23.698  12.683  10.081  0.00  0.00     0.026 C 
ENDBRANCH   6  33
TORSDOF 8
ENDMDL
MODEL 6
REMARK VINA RESULT:      -6.9     14.155     17.989
REMARK  8 active torsions:
REMARK  status: ('A' for Active; 'I' for Inactive)
REMARK    1  A    between atoms: N_6  and  C_14 
REMARK    2  A    between atoms: C_7  and  N_13 
REMARK    3  A    between atoms: N_13  and  C_20 
REMARK    4  A    between atoms: C_25  and  O_26 
REMARK    5  A    between atoms: O_26  and  C_27 
REMARK    6  A    between atoms: C_27  and  C_29 
REMARK    7  A    between atoms: C_29  and  C_30 
REMARK    8  A    between atoms: C_30  and  N_31 
ROOT
HETATM    1  C   UNK N   1      35.054  10.628  12.370  0.00  0.00     0.185 A 
HETATM    2  N   UNK N   1      35.752  11.293  13.339  0.00  0.00    -0.346 N 
ATOM      3  HN  UNK N   1      36.160  10.910  14.192  1.00  0.00     0.167 HD
HETATM    4  C   UNK N   1      35.780  12.570  12.907  0.00  0.00     0.122 A 
HETATM    5  C   UNK N   1      35.102  12.676  11.751  0.00  0.00     0.142 A 
HETATM    6  N   UNK N   1      34.639  11.477  11.390  0.00  0.00    -0.322 N 
HETATM    7  C   UNK N   1      36.412  13.693  13.423  0.00  0.00     0.139 A 
HETATM    8  N   UNK N   1      35.000  13.844  11.061  0.00  0.00    -0.318 N 
ATOM      9  HN  UNK N   1      34.490  13.890  10.179  1.00  0.00     0.169 HD
HETATM   10  N   UNK N   1      36.291  14.859  12.742  0.00  0.00    -0.318 N 
ATOM     11  HN  UNK N   1      36.738  15.696  13.115  1.00  0.00     0.169 HD
HETATM   12  C   UNK N   1      35.599  14.949  11.584  0.00  0.00     0.191 A 
HETATM   13  N   UNK N   1      35.527  17.271  10.454  0.00  0.00    -0.188 NA
HETATM   14  C   UNK N   1      35.540  16.220  10.935  0.00  0.00     0.137 C 
ENDROOT
BRANCH   7  15
HETATM   15  N   UNK N   1      37.181  13.649  14.596  0.00  0.00    -0.338 N 
HETATM   16  H   UNK N   1      38.068  13.225  14.554  0.00  0.00     0.167 HD
BRANCH  15  17
HETATM   17  C   UNK N   1      36.748  14.186  15.848  0.00  0.00     0.067 A 
HETATM   18  C   UNK N   1      37.189  15.428  16.336  0.00  0.00     0.032 A 
HETATM   19  C   UNK N   1      36.714  15.920  17.551  0.00  0.00     0.002 A 
HETATM   20  C   UNK N   1      35.764  15.196  18.270  0.00  0.00     0.003 A 
HETATM   21  C   UNK N   1      35.330  13.958  17.798  0.00  0.00     0.039 A 
HETATM   22  C   UNK N   1      35.844  13.446  16.610  0.00  0.00     0.095 A 
BRANCH  22  23
HETATM   23  O   UNK N   1      35.522  12.203  16.246  0.00  0.00    -0.349 OA
BRANCH  23  24
HETATM   24  C   UNK N   1      35.333  11.265  17.237  0.00  0.00     0.177 C 
BRANCH  24  25
HETATM   25  C   UNK N   1      35.333   9.897  16.656  0.00  0.00     0.047 C 
BRANCH  25  26
HETATM   26  C   UNK N   1      36.748   9.410  16.804  0.00  0.00     0.131 C 
BRANCH  26  27
HETATM   27  N   UNK N   1      37.276   8.965  15.542  0.00  0.00    -0.352 N 
HETATM   28  C   UNK N   1      36.663   8.104  14.724  0.00  0.00     0.182 A 
HETATM   29  N   UNK N   1      37.374   7.936  13.596  0.00  0.00    -0.361 N 
HETATM   30  C   UNK N   1      38.461   8.726  13.720  0.00  0.00     0.106 A 
ATOM     31  HN  UNK N   1      37.139   7.333  12.808  1.00  0.00     0.166 HD
HETATM   32  C   UNK N   1      38.398   9.374  14.933  0.00  0.00     0.108 A 
ENDBRANCH  26  27
ENDBRANCH  25  26
ENDBRANCH  24  25
ENDBRANCH  23  24
ENDBRANCH  22  23
ENDBRANCH  15  17
ENDBRANCH   7  15
BRANCH   6  33
HETATM   33  C   UNK N   1      34.039  11.150  10.093  0.00  0.00     0.092 C 
HETATM   34  C   UNK N   1      34.983  10.620   9.053  0.00  0.00     0.026 C 
HETATM   35  C   UNK N   1      34.026  10.056   8.012  0.00  0.00     0.002 C 
HETATM   36  C   UNK N   1      32.748   9.674   8.752  0.00  0.00     0.002 C 
HETATM   37  C   UNK N   1      32.980  10.074  10.184  0.00  0.00     0.026 C 
ENDBRANCH   6  33
TORSDOF 8
ENDMDL
MODEL 7
REMARK VINA RESULT:      -6.9     13.412     16.331
REMARK  8 active torsions:
REMARK  status: ('A' for Active; 'I' for Inactive)
REMARK    1  A    between atoms: N_6  and  C_14 
REMARK    2  A    between atoms: C_7  and  N_13 
REMARK    3  A    between atoms: N_13  and  C_20 
REMARK    4  A    between atoms: C_25  and  O_26 
REMARK    5  A    between atoms: O_26  and  C_27 
REMARK    6  A    between atoms: C_27  and  C_29 
REMARK    7  A    between atoms: C_29  and  C_30 
REMARK    8  A    between atoms: C_30  and  N_31 
ROOT
HETATM    1  C   UNK N   1      37.048  11.888  14.004  0.00  0.00     0.185 A 
HETATM    2  N   UNK N   1      37.318  11.620  12.692  0.00  0.00    -0.346 N 
ATOM      3  HN  UNK N   1      37.677  10.754  12.289  1.00  0.00     0.167 HD
HETATM    4  C   UNK N   1      37.000  12.763  12.050  0.00  0.00     0.122 A 
HETATM    5  C   UNK N   1      36.589  13.685  12.938  0.00  0.00     0.142 A 
HETATM    6  N   UNK N   1      36.608  13.165  14.168  0.00  0.00    -0.322 N 
HETATM    7  C   UNK N   1      36.983  13.074  10.698  0.00  0.00     0.139 A 
HETATM    8  N   UNK N   1      36.162  14.924  12.569  0.00  0.00    -0.318 N 
ATOM      9  HN  UNK N   1      35.845  15.598  13.266  1.00  0.00     0.169 HD
HETATM   10  N   UNK N   1      36.575  14.316  10.337  0.00  0.00    -0.318 N 
ATOM     11  HN  UNK N   1      36.570  14.566   9.348  1.00  0.00     0.169 HD
HETATM   12  C   UNK N   1      36.173  15.235  11.244  0.00  0.00     0.191 A 
HETATM   13  N   UNK N   1      35.418  17.525  10.319  0.00  0.00    -0.188 NA
HETATM   14  C   UNK N   1      35.750  16.511  10.763  0.00  0.00     0.137 C 
ENDROOT
BRANCH   7  15
HETATM   15  N   UNK N   1      37.345  12.147   9.709  0.00  0.00    -0.338 N 
HETATM   16  H   UNK N   1      36.808  11.327   9.622  0.00  0.00     0.167 HD
BRANCH  15  17
HETATM   17  C   UNK N   1      38.451  12.327   8.821  0.00  0.00     0.067 A 
HETATM   18  C   UNK N   1      39.735  11.825   9.094  0.00  0.00     0.032 A 
HETATM   19  C   UNK N   1      40.774  12.003   8.181  0.00  0.00     0.002 A 
HETATM   20  C   UNK N   1      40.530  12.648   6.969  0.00  0.00     0.003 A 
HETATM   21  C   UNK N   1      39.263  13.159   6.696  0.00  0.00     0.039 A 
HETATM   22  C   UNK N   1      38.241  13.024   7.631  0.00  0.00     0.095 A 
BRANCH  22  23
HETATM   23  O   UNK N   1      37.076  13.637   7.413  0.00  0.00    -0.349 OA
BRANCH  23  24
HETATM   24  C   UNK N   1      36.825  14.124   6.149  0.00  0.00     0.177 C 
BRANCH  24  25
HETATM   25  C   UNK N   1      35.587  14.946   6.149  0.00  0.00     0.047 C 
BRANCH  25  26
HETATM   26  C   UNK N   1      34.722  14.348   7.223  0.00  0.00     0.131 C 
BRANCH  26  27
HETATM   27  N   UNK N   1      33.818  15.327   7.764  0.00  0.00    -0.352 N 
HETATM   28  C   UNK N   1      33.089  15.158   8.871  0.00  0.00     0.182 A 
HETATM   29  N   UNK N   1      32.394  16.272   9.155  0.00  0.00    -0.361 N 
HETATM   30  C   UNK N   1      32.710  17.163   8.192  0.00  0.00     0.106 A 
ATOM     31  HN  UNK N   1      31.757  16.414   9.939  1.00  0.00     0.166 HD
HETATM   32  C   UNK N   1      33.604  16.576   7.325  0.00  0.00     0.108 A 
ENDBRANCH  26  27
ENDBRANCH  25  26
ENDBRANCH  24  25
ENDBRANCH  23  24
ENDBRANCH  22  23
ENDBRANCH  15  17
ENDBRANCH   7  15
BRANCH   6  33
HETATM   33  C   UNK N   1      36.034  13.788  15.364  0.00  0.00     0.092 C 
HETATM   34  C   UNK N   1      35.586  12.842  16.439  0.00  0.00     0.026 C 
HETATM   35  C   UNK N   1      35.403  13.774  17.629  0.00  0.00     0.002 C 
HETATM   36  C   UNK N   1      36.345  14.953  17.411  0.00  0.00     0.002 C 
HETATM   37  C   UNK N   1      37.005  14.698  16.082  0.00  0.00     0.026 C 
ENDBRANCH   6  33
TORSDOF 8
ENDMDL
MODEL 8
REMARK VINA RESULT:      -6.8     12.837     15.959
REMARK  8 active torsions:
REMARK  status: ('A' for Active; 'I' for Inactive)
REMARK    1  A    between atoms: N_6  and  C_14 
REMARK    2  A    between atoms: C_7  and  N_13 
REMARK    3  A    between atoms: N_13  and  C_20 
REMARK    4  A    between atoms: C_25  and  O_26 
REMARK    5  A    between atoms: O_26  and  C_27 
REMARK    6  A    between atoms: C_27  and  C_29 
REMARK    7  A    between atoms: C_29  and  C_30 
REMARK    8  A    between atoms: C_30  and  N_31 
ROOT
HETATM    1  C   UNK N   1      36.596  14.323  15.417  0.00  0.00     0.185 A 
HETATM    2  N   UNK N   1      36.941  14.603  14.125  0.00  0.00    -0.346 N 
ATOM      3  HN  UNK N   1      37.561  15.338  13.786  1.00  0.00     0.167 HD
HETATM    4  C   UNK N   1      36.273  13.684  13.399  0.00  0.00     0.122 A 
HETATM    5  C   UNK N   1      35.535  12.908  14.212  0.00  0.00     0.142 A 
HETATM    6  N   UNK N   1      35.719  13.284  15.481  0.00  0.00    -0.322 N 
HETATM    7  C   UNK N   1      36.286  13.411  12.038  0.00  0.00     0.139 A 
HETATM    8  N   UNK N   1      34.788  11.865  13.759  0.00  0.00    -0.318 N 
ATOM      9  HN  UNK N   1      34.249  11.286  14.403  1.00  0.00     0.169 HD
HETATM   10  N   UNK N   1      35.526  12.383  11.588  0.00  0.00    -0.318 N 
ATOM     11  HN  UNK N   1      35.514  12.178  10.589  1.00  0.00     0.169 HD
HETATM   12  C   UNK N   1      34.783  11.618  12.420  0.00  0.00     0.191 A 
HETATM   13  N   UNK N   1      33.433   9.700  11.337  0.00  0.00    -0.188 NA
HETATM   14  C   UNK N   1      34.025  10.550  11.851  0.00  0.00     0.137 C 
ENDROOT
BRANCH   7  15
HETATM   15  N   UNK N   1      37.072  14.142  11.134  0.00  0.00    -0.338 N 
HETATM   16  H   UNK N   1      37.119  15.119  11.243  0.00  0.00     0.167 HD
BRANCH  15  17
HETATM   17  C   UNK N   1      37.809  13.546  10.064  0.00  0.00     0.067 A 
HETATM   18  C   UNK N   1      39.008  12.841  10.266  0.00  0.00     0.032 A 
HETATM   19  C   UNK N   1      39.674  12.253   9.191  0.00  0.00     0.002 A 
HETATM   20  C   UNK N   1      39.127  12.329   7.910  0.00  0.00     0.003 A 
HETATM   21  C   UNK N   1      37.945  13.036   7.699  0.00  0.00     0.039 A 
HETATM   22  C   UNK N   1      37.309  13.664   8.767  0.00  0.00     0.095 A 
BRANCH  22  23
HETATM   23  O   UNK N   1      36.257  14.449   8.525  0.00  0.00    -0.349 OA
BRANCH  23  24
HETATM   24  C   UNK N   1      35.824  14.571   7.223  0.00  0.00     0.177 C 
BRANCH  24  25
HETATM   25  C   UNK N   1      34.683  15.520   7.146  0.00  0.00     0.047 C 
BRANCH  25  26
HETATM   26  C   UNK N   1      33.872  15.254   8.384  0.00  0.00     0.131 C 
BRANCH  26  27
HETATM   27  N   UNK N   1      32.817  16.222   8.528  0.00  0.00    -0.352 N 
HETATM   28  C   UNK N   1      33.004  17.542   8.610  0.00  0.00     0.182 A 
HETATM   29  N   UNK N   1      31.825  18.184   8.674  0.00  0.00    -0.361 N 
HETATM   30  C   UNK N   1      30.876  17.225   8.623  0.00  0.00     0.106 A 
ATOM     31  HN  UNK N   1      31.678  19.191   8.746  1.00  0.00     0.166 HD
HETATM   32  C   UNK N   1      31.494  15.999   8.527  0.00  0.00     0.108 A 
ENDBRANCH  26  27
ENDBRANCH  25  26
ENDBRANCH  24  25
ENDBRANCH  23  24
ENDBRANCH  22  23
ENDBRANCH  15  17
ENDBRANCH   7  15
BRANCH   6  33
HETATM   33  C   UNK N   1      35.255  12.551  16.662  0.00  0.00     0.092 C 
HETATM   34  C   UNK N   1      36.027  11.311  17.004  0.00  0.00     0.026 C 
HETATM   35  C   UNK N   1      35.551  11.018  18.420  0.00  0.00     0.002 C 
HETATM   36  C   UNK N   1      35.132  12.353  19.026  0.00  0.00     0.002 C 
HETATM   37  C   UNK N   1      35.327  13.369  17.933  0.00  0.00     0.026 C 
ENDBRANCH   6  33
TORSDOF 8
ENDMDL
MODEL 9
REMARK VINA RESULT:      -6.8     13.329     17.818
REMARK  8 active torsions:
REMARK  status: ('A' for Active; 'I' for Inactive)
REMARK    1  A    between atoms: N_6  and  C_14 
REMARK    2  A    between atoms: C_7  and  N_13 
REMARK    3  A    between atoms: N_13  and  C_20 
REMARK    4  A    between atoms: C_25  and  O_26 
REMARK    5  A    between atoms: O_26  and  C_27 
REMARK    6  A    between atoms: C_27  and  C_29 
REMARK    7  A    between atoms: C_29  and  C_30 
REMARK    8  A    between atoms: C_30  and  N_31 
ROOT
HETATM    1  C   UNK N   1      35.934  15.953  11.031  0.00  0.00     0.185 A 
HETATM    2  N   UNK N   1      36.580  15.364  12.082  0.00  0.00    -0.346 N 
ATOM      3  HN  UNK N   1      37.265  15.784  12.711  1.00  0.00     0.167 HD
HETATM    4  C   UNK N   1      36.104  14.103  12.098  0.00  0.00     0.122 A 
HETATM    5  C   UNK N   1      35.237  13.930  11.085  0.00  0.00     0.142 A 
HETATM    6  N   UNK N   1      35.110  15.071  10.402  0.00  0.00    -0.322 N 
HETATM    7  C   UNK N   1      36.324  13.057  12.982  0.00  0.00     0.139 A 
HETATM    8  N   UNK N   1      34.566  12.764  10.880  0.00  0.00    -0.318 N 
ATOM      9  HN  UNK N   1      33.905  12.668  10.109  1.00  0.00     0.169 HD
HETATM   10  N   UNK N   1      35.667  11.891  12.763  0.00  0.00    -0.318 N 
ATOM     11  HN  UNK N   1      35.828  11.107  13.396  1.00  0.00     0.169 HD
HETATM   12  C   UNK N   1      34.805  11.731  11.734  0.00  0.00     0.191 A 
HETATM   13  N   UNK N   1      33.654   9.427  11.530  0.00  0.00    -0.188 NA
HETATM   14  C   UNK N   1      34.153  10.468  11.594  0.00  0.00     0.137 C 
ENDROOT
BRANCH   7  15
HETATM   15  N   UNK N   1      37.171  13.178  14.094  0.00  0.00    -0.338 N 
HETATM   16  H   UNK N   1      38.092  12.839  14.015  0.00  0.00     0.167 HD
BRANCH  15  17
HETATM   17  C   UNK N   1      36.772  13.768  15.334  0.00  0.00     0.067 A 
HETATM   18  C   UNK N   1      37.263  15.007  15.779  0.00  0.00     0.032 A 
HETATM   19  C   UNK N   1      36.820  15.553  16.984  0.00  0.00     0.002 A 
HETATM   20  C   UNK N   1      35.853  14.884  17.734  0.00  0.00     0.003 A 
HETATM   21  C   UNK N   1      35.370  13.649  17.305  0.00  0.00     0.039 A 
HETATM   22  C   UNK N   1      35.852  13.084  16.128  0.00  0.00     0.095 A 
BRANCH  22  23
HETATM   23  O   UNK N   1      35.482  11.843  15.805  0.00  0.00    -0.349 OA
BRANCH  23  24
HETATM   24  C   UNK N   1      36.046  10.796  16.499  0.00  0.00     0.177 C 
BRANCH  24  25
HETATM   25  C   UNK N   1      35.908   9.533  15.727  0.00  0.00     0.047 C 
BRANCH  25  26
HETATM   26  C   UNK N   1      37.279   9.265  15.169  0.00  0.00     0.131 C 
BRANCH  26  27
HETATM   27  N   UNK N   1      37.203   8.814  13.805  0.00  0.00    -0.352 N 
HETATM   28  C   UNK N   1      36.317   7.924  13.348  0.00  0.00     0.182 A 
HETATM   29  N   UNK N   1      36.455   7.757  12.022  0.00  0.00    -0.361 N 
HETATM   30  C   UNK N   1      37.458   8.579  11.646  0.00  0.00     0.106 A 
ATOM     31  HN  UNK N   1      35.912   7.136  11.422  1.00  0.00     0.166 HD
HETATM   32  C   UNK N   1      37.922   9.243  12.758  0.00  0.00     0.108 A 
ENDBRANCH  26  27
ENDBRANCH  25  26
ENDBRANCH  24  25
ENDBRANCH  23  24
ENDBRANCH  22  23
ENDBRANCH  15  17
ENDBRANCH   7  15
BRANCH   6  33
HETATM   33  C   UNK N   1      34.106  15.337   9.368  0.00  0.00     0.092 C 
HETATM   34  C   UNK N   1      33.711  16.774   9.198  0.00  0.00     0.026 C 
HETATM   35  C   UNK N   1      32.978  16.749   7.863  0.00  0.00     0.002 C 
HETATM   36  C   UNK N   1      33.554  15.581   7.070  0.00  0.00     0.002 C 
HETATM   37  C   UNK N   1      34.561  14.934   7.983  0.00  0.00     0.026 C 
ENDBRANCH   6  33
TORSDOF 8
ENDMDL
