MODEL 1
REMARK VINA RESULT:      -7.1      0.000      0.000
REMARK  4 active torsions:
REMARK  status: ('A' for Active; 'I' for Inactive)
REMARK    1  A    between atoms: O_2  and  C_3 
REMARK    2  A    between atoms: C_6  and  O_7 
REMARK    3  A    between atoms: C_9  and  N_10 
REMARK       I    between atoms: N_10  and  C_11 
REMARK       I    between atoms: C_11  and  N_13 
REMARK       I    between atoms: N_13  and  C_14 
REMARK    4  A    between atoms: C_14  and  C_16 
ROOT
HETATM    1  N   UNK N   1      34.021  15.149  10.627  0.00  0.00    -0.306 N 
HETATM    2  C   UNK N   1      35.048  14.351  11.013  0.00  0.00     0.327 C 
HETATM    3  O   UNK N   1      36.085  14.291  10.365  0.00  0.00    -0.247 OA
HETATM    4  N   UNK N   1      34.888  13.623  12.142  0.00  0.00    -0.275 N 
HETATM    5  C   UNK N   1      35.773  12.767  12.710  0.00  0.00     0.261 C 
HETATM    6  O   UNK N   1      36.869  12.575  12.200  0.00  0.00    -0.267 OA
HETATM    7  H   UNK N   1      33.222  15.141  11.203  0.00  0.00     0.171 HD
HETATM    8  H   UNK N   1      34.026  13.728  12.607  0.00  0.00     0.173 HD
ENDROOT
BRANCH   1   9
HETATM    9  C   UNK N   1      33.966  15.994   9.486  0.00  0.00     0.072 A 
HETATM   10  C   UNK N   1      33.275  15.545   8.348  0.00  0.00     0.095 A 
HETATM   11  C   UNK N   1      33.210  16.367   7.209  0.00  0.00     0.042 A 
HETATM   12  C   UNK N   1      33.828  17.619   7.206  0.00  0.00     0.039 A 
HETATM   13  C   UNK N   1      34.514  18.062   8.339  0.00  0.00     0.068 A 
HETATM   14  C   UNK N   1      34.583  17.254   9.473  0.00  0.00     0.069 A 
BRANCH  10  15
HETATM   15  O   UNK N   1      32.683  14.325   8.371  0.00  0.00    -0.354 OA
HETATM   16  C   UNK N   1      33.212  13.211   7.758  0.00  0.00     0.210 C 
ENDBRANCH  10  15
BRANCH  13  17
HETATM   17  O   UNK N   1      35.107  19.265   8.339  0.00  0.00    -0.361 OA
HETATM   18  H   UNK N   1      34.809  19.935   7.756  0.00  0.00     0.217 HD
ENDBRANCH  13  17
ENDBRANCH   1   9
BRANCH   5  19
HETATM   19  C   UNK N   1      35.401  12.058  13.965  0.00  0.00     0.054 A 
HETATM   20  C   UNK N   1      35.957  12.506  15.175  0.00  0.00     0.022 A 
HETATM   21  C   UNK N   1      35.645  11.880  16.382  0.00  0.00     0.043 A 
HETATM   22  C   UNK N   1      34.769  10.796  16.401  0.00  0.00     0.118 A 
HETATM   23  F   UNK N   1      34.464  10.187  17.571  0.00  0.00    -0.206 F 
HETATM   24  C   UNK N   1      34.206  10.335  15.216  0.00  0.00     0.067 A 
HETATM   25  C   UNK N   1      34.506  10.946  13.997  0.00  0.00     0.052 A 
HETATM   26 Cl   UNK N   1      33.723  10.262  12.573  0.00  0.00    -0.083 Cl
ENDBRANCH   5  19
TORSDOF 4
ENDMDL
MODEL 2
REMARK VINA RESULT:      -7.1      3.793      5.339
REMARK  4 active torsions:
REMARK  status: ('A' for Active; 'I' for Inactive)
REMARK    1  A    between atoms: O_2  and  C_3 
REMARK    2  A    between atoms: C_6  and  O_7 
REMARK    3  A    between atoms: C_9  and  N_10 
REMARK       I    between atoms: N_10  and  C_11 
REMARK       I    between atoms: C_11  and  N_13 
REMARK       I    between atoms: N_13  and  C_14 
REMARK    4  A    between atoms: C_14  and  C_16 
ROOT
HETATM    1  N   UNK N   1      31.311  16.585   8.368  0.00  0.00    -0.306 N 
HETATM    2  C   UNK N   1      32.541  17.066   8.678  0.00  0.00     0.327 C 
HETATM    3  O   UNK N   1      32.867  18.211   8.392  0.00  0.00    -0.247 OA
HETATM    4  N   UNK N   1      33.399  16.236   9.314  0.00  0.00    -0.275 N 
HETATM    5  C   UNK N   1      34.666  16.501   9.716  0.00  0.00     0.261 C 
HETATM    6  O   UNK N   1      35.167  17.600   9.514  0.00  0.00    -0.267 OA
HETATM    7  H   UNK N   1      31.128  15.654   8.633  0.00  0.00     0.171 HD
HETATM    8  H   UNK N   1      33.062  15.332   9.510  0.00  0.00     0.173 HD
ENDROOT
BRANCH   1   9
HETATM    9  C   UNK N   1      30.258  17.271   7.706  0.00  0.00     0.072 A 
HETATM   10  C   UNK N   1      30.201  17.225   6.304  0.00  0.00     0.095 A 
HETATM   11  C   UNK N   1      29.166  17.897   5.630  0.00  0.00     0.042 A 
HETATM   12  C   UNK N   1      28.202  18.608   6.348  0.00  0.00     0.039 A 
HETATM   13  C   UNK N   1      28.262  18.652   7.743  0.00  0.00     0.068 A 
HETATM   14  C   UNK N   1      29.284  17.987   8.418  0.00  0.00     0.069 A 
BRANCH  10  15
HETATM   15  O   UNK N   1      31.148  16.529   5.625  0.00  0.00    -0.354 OA
HETATM   16  C   UNK N   1      32.127  17.125   4.861  0.00  0.00     0.210 C 
ENDBRANCH  10  15
BRANCH  13  17
HETATM   17  O   UNK N   1      27.336  19.333   8.434  0.00  0.00    -0.361 OA
HETATM   18  H   UNK N   1      27.335  19.306   9.371  0.00  0.00     0.217 HD
ENDBRANCH  13  17
ENDBRANCH   1   9
BRANCH   5  19
HETATM   19  C   UNK N   1      35.450  15.441  10.409  0.00  0.00     0.054 A 
HETATM   20  C   UNK N   1      35.477  15.440  11.813  0.00  0.00     0.022 A 
HETATM   21  C   UNK N   1      36.194  14.472  12.516  0.00  0.00     0.043 A 
HETATM   22  C   UNK N   1      36.897  13.485  11.826  0.00  0.00     0.118 A 
HETATM   23  F   UNK N   1      37.593  12.544  12.505  0.00  0.00    -0.206 F 
HETATM   24  C   UNK N   1      36.885  13.466  10.435  0.00  0.00     0.067 A 
HETATM   25  C   UNK N   1      36.174  14.425   9.713  0.00  0.00     0.052 A 
HETATM   26 Cl   UNK N   1      36.243  14.284   7.957  0.00  0.00    -0.083 Cl
ENDBRANCH   5  19
TORSDOF 4
ENDMDL
MODEL 3
REMARK VINA RESULT:      -6.9     11.392     13.193
REMARK  4 active torsions:
REMARK  status: ('A' for Active; 'I' for Inactive)
REMARK    1  A    between atoms: O_2  and  C_3 
REMARK    2  A    between atoms: C_6  and  O_7 
REMARK    3  A    between atoms: C_9  and  N_10 
REMARK       I    between atoms: N_10  and  C_11 
REMARK       I    between atoms: C_11  and  N_13 
REMARK       I    between atoms: N_13  and  C_14 
REMARK    4  A    between atoms: C_14  and  C_16 
ROOT
HETATM    1  N   UNK N   1      22.535  17.210   6.271  0.00  0.00    -0.306 N 
HETATM    2  C   UNK N   1      22.179  15.902   6.244  0.00  0.00     0.327 C 
HETATM    3  O   UNK N   1      21.716  15.389   5.233  0.00  0.00    -0.247 OA
HETATM    4  N   UNK N   1      22.351  15.181   7.375  0.00  0.00    -0.275 N 
HETATM    5  C   UNK N   1      22.067  13.870   7.576  0.00  0.00     0.261 C 
HETATM    6  O   UNK N   1      21.593  13.190   6.675  0.00  0.00    -0.267 OA
HETATM    7  H   UNK N   1      22.900  17.546   7.122  0.00  0.00     0.171 HD
HETATM    8  H   UNK N   1      22.730  15.665   8.145  0.00  0.00     0.173 HD
ENDROOT
BRANCH   1   9
HETATM    9  C   UNK N   1      22.443  18.151   5.211  0.00  0.00     0.072 A 
HETATM   10  C   UNK N   1      23.615  18.506   4.522  0.00  0.00     0.095 A 
HETATM   11  C   UNK N   1      23.545  19.436   3.470  0.00  0.00     0.042 A 
HETATM   12  C   UNK N   1      22.321  20.005   3.110  0.00  0.00     0.039 A 
HETATM   13  C   UNK N   1      21.158  19.649   3.797  0.00  0.00     0.068 A 
HETATM   14  C   UNK N   1      21.219  18.727   4.841  0.00  0.00     0.069 A 
BRANCH  10  15
HETATM   15  O   UNK N   1      24.795  17.943   4.887  0.00  0.00    -0.354 OA
HETATM   16  C   UNK N   1      25.987  18.631   4.923  0.00  0.00     0.210 C 
ENDBRANCH  10  15
BRANCH  13  17
HETATM   17  O   UNK N   1      19.982  20.194   3.452  0.00  0.00    -0.361 OA
HETATM   18  H   UNK N   1      19.521  19.879   2.700  0.00  0.00     0.217 HD
ENDBRANCH  13  17
ENDBRANCH   1   9
BRANCH   5  19
HETATM   19  C   UNK N   1      22.336  13.259   8.908  0.00  0.00     0.054 A 
HETATM   20  C   UNK N   1      21.241  12.928   9.723  0.00  0.00     0.022 A 
HETATM   21  C   UNK N   1      21.431  12.354  10.980  0.00  0.00     0.043 A 
HETATM   22  C   UNK N   1      22.721  12.099  11.443  0.00  0.00     0.118 A 
HETATM   23  F   UNK N   1      22.909  11.540  12.662  0.00  0.00    -0.206 F 
HETATM   24  C   UNK N   1      23.820  12.418  10.653  0.00  0.00     0.067 A 
HETATM   25  C   UNK N   1      23.652  12.994   9.394  0.00  0.00     0.052 A 
HETATM   26 Cl   UNK N   1      25.129  13.347   8.498  0.00  0.00    -0.083 Cl
ENDBRANCH   5  19
TORSDOF 4
ENDMDL
MODEL 4
REMARK VINA RESULT:      -6.8      3.594      5.155
REMARK  4 active torsions:
REMARK  status: ('A' for Active; 'I' for Inactive)
REMARK    1  A    between atoms: O_2  and  C_3 
REMARK    2  A    between atoms: C_6  and  O_7 
REMARK    3  A    between atoms: C_9  and  N_10 
REMARK       I    between atoms: N_10  and  C_11 
REMARK       I    between atoms: C_11  and  N_13 
REMARK       I    between atoms: N_13  and  C_14 
REMARK    4  A    between atoms: C_14  and  C_16 
ROOT
HETATM    1  N   UNK N   1      31.731  16.254   8.010  0.00  0.00    -0.306 N 
HETATM    2  C   UNK N   1      32.853  16.805   8.536  0.00  0.00     0.327 C 
HETATM    3  O   UNK N   1      33.146  17.975   8.325  0.00  0.00    -0.247 OA
HETATM    4  N   UNK N   1      33.639  16.017   9.305  0.00  0.00    -0.275 N 
HETATM    5  C   UNK N   1      34.795  16.353   9.927  0.00  0.00     0.261 C 
HETATM    6  O   UNK N   1      35.250  17.485   9.828  0.00  0.00    -0.267 OA
HETATM    7  H   UNK N   1      31.566  15.308   8.228  0.00  0.00     0.171 HD
HETATM    8  H   UNK N   1      33.334  15.089   9.428  0.00  0.00     0.173 HD
ENDROOT
BRANCH   1   9
HETATM    9  C   UNK N   1      30.767  16.886   7.180  0.00  0.00     0.072 A 
HETATM   10  C   UNK N   1      29.669  17.519   7.786  0.00  0.00     0.095 A 
HETATM   11  C   UNK N   1      28.703  18.150   6.982  0.00  0.00     0.042 A 
HETATM   12  C   UNK N   1      28.831  18.148   5.591  0.00  0.00     0.039 A 
HETATM   13  C   UNK N   1      29.924  17.517   4.992  0.00  0.00     0.068 A 
HETATM   14  C   UNK N   1      30.887  16.890   5.782  0.00  0.00     0.069 A 
BRANCH  10  15
HETATM   15  O   UNK N   1      29.562  17.509   9.139  0.00  0.00    -0.354 OA
HETATM   16  C   UNK N   1      29.682  18.638   9.918  0.00  0.00     0.210 C 
ENDBRANCH  10  15
BRANCH  13  17
HETATM   17  O   UNK N   1      30.049  17.514   3.657  0.00  0.00    -0.361 OA
HETATM   18  H   UNK N   1      30.615  16.895   3.240  0.00  0.00     0.217 HD
ENDBRANCH  13  17
ENDBRANCH   1   9
BRANCH   5  19
HETATM   19  C   UNK N   1      35.515  15.330  10.735  0.00  0.00     0.054 A 
HETATM   20  C   UNK N   1      35.414  15.394  12.135  0.00  0.00     0.022 A 
HETATM   21  C   UNK N   1      36.066  14.462  12.944  0.00  0.00     0.043 A 
HETATM   22  C   UNK N   1      36.829  13.449  12.366  0.00  0.00     0.118 A 
HETATM   23  F   UNK N   1      37.462  12.543  13.148  0.00  0.00    -0.206 F 
HETATM   24  C   UNK N   1      36.943  13.365  10.982  0.00  0.00     0.067 A 
HETATM   25  C   UNK N   1      36.300  14.287  10.156  0.00  0.00     0.052 A 
HETATM   26 Cl   UNK N   1      36.527  14.066   8.422  0.00  0.00    -0.083 Cl
ENDBRANCH   5  19
TORSDOF 4
ENDMDL
MODEL 5
REMARK VINA RESULT:      -6.8      4.030      8.044
REMARK  4 active torsions:
REMARK  status: ('A' for Active; 'I' for Inactive)
REMARK    1  A    between atoms: O_2  and  C_3 
REMARK    2  A    between atoms: C_6  and  O_7 
REMARK    3  A    between atoms: C_9  and  N_10 
REMARK       I    between atoms: N_10  and  C_11 
REMARK       I    between atoms: C_11  and  N_13 
REMARK       I    between atoms: N_13  and  C_14 
REMARK    4  A    between atoms: C_14  and  C_16 
ROOT
HETATM    1  N   UNK N   1      34.542  14.108  11.725  0.00  0.00    -0.306 N 
HETATM    2  C   UNK N   1      34.748  15.268  11.054  0.00  0.00     0.327 C 
HETATM    3  O   UNK N   1      35.695  15.997  11.318  0.00  0.00    -0.247 OA
HETATM    4  N   UNK N   1      33.868  15.594  10.079  0.00  0.00    -0.275 N 
HETATM    5  C   UNK N   1      33.877  16.694   9.287  0.00  0.00     0.261 C 
HETATM    6  O   UNK N   1      34.752  17.542   9.408  0.00  0.00    -0.267 OA
HETATM    7  H   UNK N   1      33.758  13.578  11.451  0.00  0.00     0.171 HD
HETATM    8  H   UNK N   1      33.134  14.956   9.926  0.00  0.00     0.173 HD
ENDROOT
BRANCH   1   9
HETATM    9  C   UNK N   1      35.329  13.569  12.778  0.00  0.00     0.072 A 
HETATM   10  C   UNK N   1      35.363  12.175  12.948  0.00  0.00     0.095 A 
HETATM   11  C   UNK N   1      36.136  11.622  13.984  0.00  0.00     0.042 A 
HETATM   12  C   UNK N   1      36.865  12.451  14.840  0.00  0.00     0.039 A 
HETATM   13  C   UNK N   1      36.829  13.836  14.668  0.00  0.00     0.068 A 
HETATM   14  C   UNK N   1      36.065  14.392  13.642  0.00  0.00     0.069 A 
BRANCH  10  15
HETATM   15  O   UNK N   1      34.647  11.387  12.106  0.00  0.00    -0.354 OA
HETATM   16  C   UNK N   1      33.950  10.273  12.516  0.00  0.00     0.210 C 
ENDBRANCH  10  15
BRANCH  13  17
HETATM   17  O   UNK N   1      37.529  14.634  15.489  0.00  0.00    -0.361 OA
HETATM   18  H   UNK N   1      37.878  15.443  15.172  0.00  0.00     0.217 HD
ENDBRANCH  13  17
ENDBRANCH   1   9
BRANCH   5  19
HETATM   19  C   UNK N   1      32.809  16.867   8.263  0.00  0.00     0.054 A 
HETATM   20  C   UNK N   1      31.536  17.279   8.690  0.00  0.00     0.022 A 
HETATM   21  C   UNK N   1      30.497  17.457   7.776  0.00  0.00     0.043 A 
HETATM   22  C   UNK N   1      30.714  17.228   6.418  0.00  0.00     0.118 A 
HETATM   23  F   UNK N   1      29.708  17.401   5.529  0.00  0.00    -0.206 F 
HETATM   24  C   UNK N   1      31.966  16.820   5.972  0.00  0.00     0.067 A 
HETATM   25  C   UNK N   1      33.019  16.635   6.870  0.00  0.00     0.052 A 
HETATM   26 Cl   UNK N   1      34.553  16.117   6.171  0.00  0.00    -0.083 Cl
ENDBRANCH   5  19
TORSDOF 4
ENDMDL
MODEL 6
REMARK VINA RESULT:      -6.8     12.427     13.462
REMARK  4 active torsions:
REMARK  status: ('A' for Active; 'I' for Inactive)
REMARK    1  A    between atoms: O_2  and  C_3 
REMARK    2  A    between atoms: C_6  and  O_7 
REMARK    3  A    between atoms: C_9  and  N_10 
REMARK       I    between atoms: N_10  and  C_11 
REMARK       I    between atoms: C_11  and  N_13 
REMARK       I    between atoms: N_13  and  C_14 
REMARK    4  A    between atoms: C_14  and  C_16 
ROOT
HETATM    1  N   UNK N   1      23.661  17.857   5.611  0.00  0.00    -0.306 N 
HETATM    2  C   UNK N   1      23.374  16.538   5.473  0.00  0.00     0.327 C 
HETATM    3  O   UNK N   1      23.594  15.946   4.424  0.00  0.00    -0.247 OA
HETATM    4  N   UNK N   1      22.833  15.898   6.535  0.00  0.00    -0.275 N 
HETATM    5  C   UNK N   1      22.470  14.595   6.622  0.00  0.00     0.261 C 
HETATM    6  O   UNK N   1      22.614  13.842   5.667  0.00  0.00    -0.267 OA
HETATM    7  H   UNK N   1      23.454  18.259   6.486  0.00  0.00     0.171 HD
HETATM    8  H   UNK N   1      22.688  16.444   7.341  0.00  0.00     0.173 HD
ENDROOT
BRANCH   1   9
HETATM    9  C   UNK N   1      24.227  18.723   4.638  0.00  0.00     0.072 A 
HETATM   10  C   UNK N   1      23.367  19.393   3.752  0.00  0.00     0.095 A 
HETATM   11  C   UNK N   1      23.908  20.255   2.781  0.00  0.00     0.042 A 
HETATM   12  C   UNK N   1      25.289  20.443   2.696  0.00  0.00     0.039 A 
HETATM   13  C   UNK N   1      26.141  19.775   3.578  0.00  0.00     0.068 A 
HETATM   14  C   UNK N   1      25.612  18.919   4.544  0.00  0.00     0.069 A 
BRANCH  10  15
HETATM   15  O   UNK N   1      22.028  19.196   3.851  0.00  0.00    -0.354 OA
HETATM   16  C   UNK N   1      21.094  20.019   3.264  0.00  0.00     0.210 C 
ENDBRANCH  10  15
BRANCH  13  17
HETATM   17  O   UNK N   1      27.468  19.955   3.498  0.00  0.00    -0.361 OA
HETATM   18  H   UNK N   1      27.815  20.670   3.002  0.00  0.00     0.217 HD
ENDBRANCH  13  17
ENDBRANCH   1   9
BRANCH   5  19
HETATM   19  C   UNK N   1      21.889  14.081   7.894  0.00  0.00     0.054 A 
HETATM   20  C   UNK N   1      22.516  12.992   8.521  0.00  0.00     0.022 A 
HETATM   21  C   UNK N   1      22.017  12.468   9.714  0.00  0.00     0.043 A 
HETATM   22  C   UNK N   1      20.883  13.026  10.302  0.00  0.00     0.118 A 
HETATM   23  F   UNK N   1      20.397  12.521  11.460  0.00  0.00    -0.206 F 
HETATM   24  C   UNK N   1      20.246  14.105   9.699  0.00  0.00     0.067 A 
HETATM   25  C   UNK N   1      20.728  14.644   8.505  0.00  0.00     0.052 A 
HETATM   26 Cl   UNK N   1      19.827  16.010   7.850  0.00  0.00    -0.083 Cl
ENDBRANCH   5  19
TORSDOF 4
ENDMDL
MODEL 7
REMARK VINA RESULT:      -6.7      4.443      8.068
REMARK  4 active torsions:
REMARK  status: ('A' for Active; 'I' for Inactive)
REMARK    1  A    between atoms: O_2  and  C_3 
REMARK    2  A    between atoms: C_6  and  O_7 
REMARK    3  A    between atoms: C_9  and  N_10 
REMARK       I    between atoms: N_10  and  C_11 
REMARK       I    between atoms: C_11  and  N_13 
REMARK       I    between atoms: N_13  and  C_14 
REMARK    4  A    between atoms: C_14  and  C_16 
ROOT
HETATM    1  N   UNK N   1      33.920  14.452  10.710  0.00  0.00    -0.306 N 
HETATM    2  C   UNK N   1      34.005  15.555   9.925  0.00  0.00     0.327 C 
HETATM    3  O   UNK N   1      35.082  16.089   9.693  0.00  0.00    -0.247 OA
HETATM    4  N   UNK N   1      32.857  16.047   9.405  0.00  0.00    -0.275 N 
HETATM    5  C   UNK N   1      32.706  17.129   8.603  0.00  0.00     0.261 C 
HETATM    6  O   UNK N   1      33.676  17.794   8.264  0.00  0.00    -0.267 OA
HETATM    7  H   UNK N   1      33.017  14.082  10.846  0.00  0.00     0.171 HD
HETATM    8  H   UNK N   1      32.033  15.561   9.637  0.00  0.00     0.173 HD
ENDROOT
BRANCH   1   9
HETATM    9  C   UNK N   1      34.984  13.769  11.356  0.00  0.00     0.072 A 
HETATM   10  C   UNK N   1      35.538  12.640  10.730  0.00  0.00     0.095 A 
HETATM   11  C   UNK N   1      36.592  11.949  11.354  0.00  0.00     0.042 A 
HETATM   12  C   UNK N   1      37.086  12.380  12.587  0.00  0.00     0.039 A 
HETATM   13  C   UNK N   1      36.533  13.503  13.207  0.00  0.00     0.068 A 
HETATM   14  C   UNK N   1      35.488  14.194  12.594  0.00  0.00     0.069 A 
BRANCH  10  15
HETATM   15  O   UNK N   1      35.043  12.237   9.533  0.00  0.00    -0.354 OA
HETATM   16  C   UNK N   1      35.687  12.450   8.334  0.00  0.00     0.210 C 
ENDBRANCH  10  15
BRANCH  13  17
HETATM   17  O   UNK N   1      37.007  13.919  14.391  0.00  0.00    -0.361 OA
HETATM   18  H   UNK N   1      36.564  13.683  15.182  0.00  0.00     0.217 HD
ENDBRANCH  13  17
ENDBRANCH   1   9
BRANCH   5  19
HETATM   19  C   UNK N   1      31.344  17.506   8.133  0.00  0.00     0.054 A 
HETATM   20  C   UNK N   1      30.542  18.294   8.975  0.00  0.00     0.022 A 
HETATM   21  C   UNK N   1      29.258  18.678   8.588  0.00  0.00     0.043 A 
HETATM   22  C   UNK N   1      28.753  18.282   7.351  0.00  0.00     0.118 A 
HETATM   23  F   UNK N   1      27.508  18.653   6.972  0.00  0.00    -0.206 F 
HETATM   24  C   UNK N   1      29.529  17.501   6.500  0.00  0.00     0.067 A 
HETATM   25  C   UNK N   1      30.815  17.106   6.868  0.00  0.00     0.052 A 
HETATM   26 Cl   UNK N   1      31.689  16.120   5.697  0.00  0.00    -0.083 Cl
ENDBRANCH   5  19
TORSDOF 4
ENDMDL
MODEL 8
REMARK VINA RESULT:      -6.7     11.609     13.145
REMARK  4 active torsions:
REMARK  status: ('A' for Active; 'I' for Inactive)
REMARK    1  A    between atoms: O_2  and  C_3 
REMARK    2  A    between atoms: C_6  and  O_7 
REMARK    3  A    between atoms: C_9  and  N_10 
REMARK       I    between atoms: N_10  and  C_11 
REMARK       I    between atoms: C_11  and  N_13 
REMARK       I    between atoms: N_13  and  C_14 
REMARK    4  A    between atoms: C_14  and  C_16 
ROOT
HETATM    1  N   UNK N   1      23.594  17.710   5.658  0.00  0.00    -0.306 N 
HETATM    2  C   UNK N   1      23.244  16.410   5.484  0.00  0.00     0.327 C 
HETATM    3  O   UNK N   1      23.269  15.888   4.378  0.00  0.00    -0.247 OA
HETATM    4  N   UNK N   1      22.864  15.710   6.578  0.00  0.00    -0.275 N 
HETATM    5  C   UNK N   1      22.477  14.413   6.639  0.00  0.00     0.261 C 
HETATM    6  O   UNK N   1      22.437  13.725   5.626  0.00  0.00    -0.267 OA
HETATM    7  H   UNK N   1      23.548  18.054   6.580  0.00  0.00     0.171 HD
HETATM    8  H   UNK N   1      22.872  16.201   7.431  0.00  0.00     0.173 HD
ENDROOT
BRANCH   1   9
HETATM    9  C   UNK N   1      24.020  18.629   4.663  0.00  0.00     0.072 A 
HETATM   10  C   UNK N   1      25.398  18.790   4.442  0.00  0.00     0.095 A 
HETATM   11  C   UNK N   1      25.841  19.695   3.461  0.00  0.00     0.042 A 
HETATM   12  C   UNK N   1      24.920  20.431   2.713  0.00  0.00     0.039 A 
HETATM   13  C   UNK N   1      23.551  20.268   2.935  0.00  0.00     0.068 A 
HETATM   14  C   UNK N   1      23.103  19.372   3.905  0.00  0.00     0.069 A 
BRANCH  10  15
HETATM   15  O   UNK N   1      26.277  18.066   5.180  0.00  0.00    -0.354 OA
HETATM   16  C   UNK N   1      27.097  17.095   4.649  0.00  0.00     0.210 C 
ENDBRANCH  10  15
BRANCH  13  17
HETATM   17  O   UNK N   1      22.665  20.974   2.217  0.00  0.00    -0.361 OA
HETATM   18  H   UNK N   1      22.722  20.987   1.282  0.00  0.00     0.217 HD
ENDBRANCH  13  17
ENDBRANCH   1   9
BRANCH   5  19
HETATM   19  C   UNK N   1      22.097  13.824   7.953  0.00  0.00     0.054 A 
HETATM   20  C   UNK N   1      22.836  12.731   8.434  0.00  0.00     0.022 A 
HETATM   21  C   UNK N   1      22.525  12.139   9.658  0.00  0.00     0.043 A 
HETATM   22  C   UNK N   1      21.471  12.632  10.425  0.00  0.00     0.118 A 
HETATM   23  F   UNK N   1      21.168  12.060  11.614  0.00  0.00    -0.206 F 
HETATM   24  C   UNK N   1      20.725  13.713   9.970  0.00  0.00     0.067 A 
HETATM   25  C   UNK N   1      21.018  14.319   8.748  0.00  0.00     0.052 A 
HETATM   26 Cl   UNK N   1      19.996  15.681   8.291  0.00  0.00    -0.083 Cl
ENDBRANCH   5  19
TORSDOF 4
ENDMDL
MODEL 9
REMARK VINA RESULT:      -6.7      5.835      9.584
REMARK  4 active torsions:
REMARK  status: ('A' for Active; 'I' for Inactive)
REMARK    1  A    between atoms: O_2  and  C_3 
REMARK    2  A    between atoms: C_6  and  O_7 
REMARK    3  A    between atoms: C_9  and  N_10 
REMARK       I    between atoms: N_10  and  C_11 
REMARK       I    between atoms: C_11  and  N_13 
REMARK       I    between atoms: N_13  and  C_14 
REMARK    4  A    between atoms: C_14  and  C_16 
ROOT
HETATM    1  N   UNK N   1      32.696  16.440   8.529  0.00  0.00    -0.306 N 
HETATM    2  C   UNK N   1      31.676  16.079   7.710  0.00  0.00     0.327 C 
HETATM    3  O   UNK N   1      31.545  14.923   7.330  0.00  0.00    -0.247 OA
HETATM    4  N   UNK N   1      30.808  17.042   7.327  0.00  0.00    -0.275 N 
HETATM    5  C   UNK N   1      29.726  16.911   6.520  0.00  0.00     0.261 C 
HETATM    6  O   UNK N   1      29.434  15.824   6.040  0.00  0.00    -0.267 OA
HETATM    7  H   UNK N   1      32.731  17.388   8.790  0.00  0.00     0.171 HD
HETATM    8  H   UNK N   1      30.981  17.946   7.676  0.00  0.00     0.173 HD
ENDROOT
BRANCH   1   9
HETATM    9  C   UNK N   1      33.718  15.604   9.053  0.00  0.00     0.072 A 
HETATM   10  C   UNK N   1      34.885  15.412   8.295  0.00  0.00     0.095 A 
HETATM   11  C   UNK N   1      35.909  14.588   8.797  0.00  0.00     0.042 A 
HETATM   12  C   UNK N   1      35.767  13.964  10.038  0.00  0.00     0.039 A 
HETATM   13  C   UNK N   1      34.606  14.157  10.789  0.00  0.00     0.068 A 
HETATM   14  C   UNK N   1      33.587  14.973  10.299  0.00  0.00     0.069 A 
BRANCH  10  15
HETATM   15  O   UNK N   1      35.003  16.027   7.091  0.00  0.00    -0.354 OA
HETATM   16  C   UNK N   1      35.102  15.348   5.898  0.00  0.00     0.210 C 
ENDBRANCH  10  15
BRANCH  13  17
HETATM   17  O   UNK N   1      34.469  13.559  11.981  0.00  0.00    -0.361 OA
HETATM   18  H   UNK N   1      33.748  12.981  12.136  0.00  0.00     0.217 HD
ENDBRANCH  13  17
ENDBRANCH   1   9
BRANCH   5  19
HETATM   19  C   UNK N   1      28.889  18.106   6.219  0.00  0.00     0.054 A 
HETATM   20  C   UNK N   1      28.737  18.494   4.878  0.00  0.00     0.022 A 
HETATM   21  C   UNK N   1      27.965  19.605   4.536  0.00  0.00     0.043 A 
HETATM   22  C   UNK N   1      27.330  20.347   5.531  0.00  0.00     0.118 A 
HETATM   23  F   UNK N   1      26.580  21.425   5.202  0.00  0.00    -0.206 F 
HETATM   24  C   UNK N   1      27.467  19.982   6.866  0.00  0.00     0.067 A 
HETATM   25  C   UNK N   1      28.234  18.875   7.229  0.00  0.00     0.052 A 
HETATM   26 Cl   UNK N   1      28.322  18.524   8.954  0.00  0.00    -0.083 Cl
ENDBRANCH   5  19
TORSDOF 4
ENDMDL
