MODEL 1
REMARK VINA RESULT:      -7.5      0.000      0.000
REMARK  4 active torsions:
REMARK  status: ('A' for Active; 'I' for Inactive)
REMARK    1  A    between atoms: C_4  and  C_7 
REMARK    2  A    between atoms: C_5  and  O_20 
REMARK    3  A    between atoms: C_10  and  C_17 
REMARK    4  A    between atoms: C_11  and  N_13 
ROOT
HETATM    1  C   UNK N   1      21.386  13.730   8.854  0.00  0.00     0.004 A 
HETATM    2  C   UNK N   1      21.290  13.122   7.577  0.00  0.00     0.072 A 
HETATM    3  C   UNK N   1      20.856  15.021   9.015  0.00  0.00     0.030 A 
HETATM    4  C   UNK N   1      20.240  15.695   7.950  0.00  0.00     0.051 A 
HETATM    5  C   UNK N   1      21.781  11.297   6.138  0.00  0.00     0.119 A 
HETATM    6  C   UNK N   1      21.099  11.937   5.092  0.00  0.00     0.137 A 
HETATM    7  C   UNK N   1      20.122  15.063   6.703  0.00  0.00     0.048 A 
HETATM    8  C   UNK N   1      20.642  13.783   6.515  0.00  0.00     0.060 A 
HETATM    9  N   UNK N   1      20.549  13.166   5.303  0.00  0.00    -0.360 N 
ATOM     10  HN  UNK N   1      20.058  13.633   4.540  1.00  0.00     0.165 HD
HETATM   11  N   UNK N   1      21.839  11.909   7.346  0.00  0.00    -0.339 N 
ATOM     12  HN  UNK N   1      22.316  11.435   8.112  1.00  0.00     0.167 HD
ENDROOT
BRANCH   1  13
HETATM   13  C   UNK N   1      22.036  13.047  10.022  0.00  0.00    -0.021 A 
HETATM   14  C   UNK N   1      21.253  12.403  10.997  0.00  0.00     0.012 A 
HETATM   15  C   UNK N   1      21.856  11.761  12.085  0.00  0.00     0.004 A 
HETATM   16  C   UNK N   1      23.249  11.747  12.210  0.00  0.00     0.036 A 
HETATM   17  C   UNK N   1      24.039  12.377  11.247  0.00  0.00     0.066 A 
HETATM   18  C   UNK N   1      23.435  13.018  10.168  0.00  0.00     0.049 A 
BRANCH  17  19
HETATM   19  O   UNK N   1      25.377  12.366  11.358  0.00  0.00    -0.361 OA
HETATM   20  H   UNK N   1      25.832  13.136  11.636  0.00  0.00     0.217 HD
ENDBRANCH  17  19
ENDBRANCH   1  13
BRANCH   4  21
HETATM   21  C   UNK N   1      19.737  17.099   8.125  0.00  0.00     0.417 C 
HETATM   22  F   UNK N   1      20.055  17.543   9.397  0.00  0.00    -0.166 F 
HETATM   23  F   UNK N   1      20.331  17.932   7.195  0.00  0.00    -0.166 F 
HETATM   24  F   UNK N   1      18.362  17.162   7.968  0.00  0.00    -0.166 F 
ENDBRANCH   4  21
BRANCH   5  25
HETATM   25  N   UNK N   1      22.468  10.066   5.958  0.00  0.00    -0.363 N 
HETATM   26  C   UNK N   1      21.871   8.939   5.276  0.00  0.00     0.154 C 
HETATM   27  C   UNK N   1      22.065   7.690   6.145  0.00  0.00     0.291 C 
HETATM   28  N   UNK N   1      23.484   7.528   6.481  0.00  0.00     0.087 N 
HETATM   29  C   UNK N   1      23.924   8.668   7.282  0.00  0.00     0.291 C 
HETATM   30  C   UNK N   1      23.611   6.347   7.314  0.00  0.00     0.310 C 
HETATM   31  C   UNK N   1      23.825   9.930   6.442  0.00  0.00     0.154 C 
ENDBRANCH   5  25
TORSDOF 4
ENDMDL
MODEL 2
REMARK VINA RESULT:      -7.5     17.983     19.164
REMARK  4 active torsions:
REMARK  status: ('A' for Active; 'I' for Inactive)
REMARK    1  A    between atoms: C_4  and  C_7 
REMARK    2  A    between atoms: C_5  and  O_20 
REMARK    3  A    between atoms: C_10  and  C_17 
REMARK    4  A    between atoms: C_11  and  N_13 
ROOT
HETATM    1  C   UNK N   1      26.852  24.165  -5.945  0.00  0.00     0.004 A 
HETATM    2  C   UNK N   1      28.040  24.126  -5.173  0.00  0.00     0.072 A 
HETATM    3  C   UNK N   1      26.043  25.310  -5.860  0.00  0.00     0.030 A 
HETATM    4  C   UNK N   1      26.399  26.396  -5.044  0.00  0.00     0.051 A 
HETATM    5  C   UNK N   1      29.961  22.940  -4.432  0.00  0.00     0.119 A 
HETATM    6  C   UNK N   1      30.356  24.053  -3.675  0.00  0.00     0.137 A 
HETATM    7  C   UNK N   1      27.596  26.354  -4.316  0.00  0.00     0.048 A 
HETATM    8  C   UNK N   1      28.416  25.227  -4.380  0.00  0.00     0.060 A 
HETATM    9  N   UNK N   1      29.574  25.169  -3.662  0.00  0.00    -0.360 N 
ATOM     10  HN  UNK N   1      29.860  25.975  -3.106  1.00  0.00     0.165 HD
HETATM   11  N   UNK N   1      28.823  23.024  -5.164  0.00  0.00    -0.339 N 
ATOM     12  HN  UNK N   1      28.546  22.224  -5.731  1.00  0.00     0.167 HD
ENDROOT
BRANCH   1  13
HETATM   13  C   UNK N   1      26.432  23.028  -6.831  0.00  0.00    -0.021 A 
HETATM   14  C   UNK N   1      25.233  22.337  -6.583  0.00  0.00     0.012 A 
HETATM   15  C   UNK N   1      24.836  21.280  -7.411  0.00  0.00     0.004 A 
HETATM   16  C   UNK N   1      25.627  20.904  -8.500  0.00  0.00     0.036 A 
HETATM   17  C   UNK N   1      26.817  21.584  -8.762  0.00  0.00     0.066 A 
HETATM   18  C   UNK N   1      27.210  22.633  -7.935  0.00  0.00     0.049 A 
BRANCH  17  19
HETATM   19  O   UNK N   1      27.581  21.232  -9.808  0.00  0.00    -0.361 OA
HETATM   20  H   UNK N   1      28.400  21.661  -9.958  0.00  0.00     0.217 HD
ENDBRANCH  17  19
ENDBRANCH   1  13
BRANCH   4  21
HETATM   21  C   UNK N   1      25.489  27.584  -4.918  0.00  0.00     0.417 C 
HETATM   22  F   UNK N   1      26.126  28.702  -5.429  0.00  0.00    -0.166 F 
HETATM   23  F   UNK N   1      24.325  27.364  -5.628  0.00  0.00    -0.166 F 
HETATM   24  F   UNK N   1      25.166  27.829  -3.593  0.00  0.00    -0.166 F 
ENDBRANCH   4  21
BRANCH   5  25
HETATM   25  N   UNK N   1      30.671  21.709  -4.406  0.00  0.00    -0.363 N 
HETATM   26  C   UNK N   1      31.525  21.333  -3.302  0.00  0.00     0.154 C 
HETATM   27  C   UNK N   1      32.872  20.868  -3.868  0.00  0.00     0.291 C 
HETATM   28  N   UNK N   1      32.660  19.818  -4.871  0.00  0.00     0.087 N 
HETATM   29  C   UNK N   1      31.900  20.367  -5.992  0.00  0.00     0.291 C 
HETATM   30  C   UNK N   1      33.957  19.426  -5.386  0.00  0.00     0.310 C 
HETATM   31  C   UNK N   1      30.522  20.776  -5.502  0.00  0.00     0.154 C 
ENDBRANCH   5  25
TORSDOF 4
ENDMDL
MODEL 3
REMARK VINA RESULT:      -7.4     18.198     20.258
REMARK  4 active torsions:
REMARK  status: ('A' for Active; 'I' for Inactive)
REMARK    1  A    between atoms: C_4  and  C_7 
REMARK    2  A    between atoms: C_5  and  O_20 
REMARK    3  A    between atoms: C_10  and  C_17 
REMARK    4  A    between atoms: C_11  and  N_13 
ROOT
HETATM    1  C   UNK N   1      28.002  23.935  -5.536  0.00  0.00     0.004 A 
HETATM    2  C   UNK N   1      27.463  25.242  -5.640  0.00  0.00     0.072 A 
HETATM    3  C   UNK N   1      27.311  22.881  -6.156  0.00  0.00     0.030 A 
HETATM    4  C   UNK N   1      26.122  23.107  -6.869  0.00  0.00     0.051 A 
HETATM    5  C   UNK N   1      27.561  27.546  -5.074  0.00  0.00     0.119 A 
HETATM    6  C   UNK N   1      26.416  27.786  -5.847  0.00  0.00     0.137 A 
HETATM    7  C   UNK N   1      25.624  24.412  -6.991  0.00  0.00     0.048 A 
HETATM    8  C   UNK N   1      26.289  25.476  -6.383  0.00  0.00     0.060 A 
HETATM    9  N   UNK N   1      25.804  26.747  -6.481  0.00  0.00    -0.360 N 
ATOM     10  HN  UNK N   1      24.967  26.921  -7.039  1.00  0.00     0.165 HD
HETATM   11  N   UNK N   1      28.049  26.284  -5.011  0.00  0.00    -0.339 N 
ATOM     12  HN  UNK N   1      28.894  26.113  -4.465  1.00  0.00     0.167 HD
ENDROOT
BRANCH   1  13
HETATM   13  C   UNK N   1      29.270  23.646  -4.785  0.00  0.00    -0.021 A 
HETATM   14  C   UNK N   1      30.501  23.586  -5.462  0.00  0.00     0.012 A 
HETATM   15  C   UNK N   1      31.685  23.322  -4.765  0.00  0.00     0.004 A 
HETATM   16  C   UNK N   1      31.657  23.122  -3.381  0.00  0.00     0.036 A 
HETATM   17  C   UNK N   1      30.444  23.185  -2.695  0.00  0.00     0.066 A 
HETATM   18  C   UNK N   1      29.267  23.444  -3.393  0.00  0.00     0.049 A 
BRANCH  17  19
HETATM   19  O   UNK N   1      30.408  22.997  -1.366  0.00  0.00    -0.361 OA
HETATM   20  H   UNK N   1      29.922  23.584  -0.821  0.00  0.00     0.217 HD
ENDBRANCH  17  19
ENDBRANCH   1  13
BRANCH   4  21
HETATM   21  C   UNK N   1      25.364  21.958  -7.470  0.00  0.00     0.417 C 
HETATM   22  F   UNK N   1      24.625  22.414  -8.547  0.00  0.00    -0.166 F 
HETATM   23  F   UNK N   1      26.246  20.988  -7.905  0.00  0.00    -0.166 F 
HETATM   24  F   UNK N   1      24.497  21.395  -6.548  0.00  0.00    -0.166 F 
ENDBRANCH   4  21
BRANCH   5  25
HETATM   25  N   UNK N   1      28.186  28.564  -4.302  0.00  0.00    -0.363 N 
HETATM   26  C   UNK N   1      29.623  28.702  -4.223  0.00  0.00     0.154 C 
HETATM   27  C   UNK N   1      30.016  28.828  -2.746  0.00  0.00     0.291 C 
HETATM   28  N   UNK N   1      29.256  29.913  -2.115  0.00  0.00     0.087 N 
HETATM   29  C   UNK N   1      27.832  29.584  -2.143  0.00  0.00     0.291 C 
HETATM   30  C   UNK N   1      29.650  29.980  -0.721  0.00  0.00     0.310 C 
HETATM   31  C   UNK N   1      27.368  29.521  -3.588  0.00  0.00     0.154 C 
ENDBRANCH   5  25
TORSDOF 4
ENDMDL
MODEL 4
REMARK VINA RESULT:      -7.3      8.758     10.182
REMARK  4 active torsions:
REMARK  status: ('A' for Active; 'I' for Inactive)
REMARK    1  A    between atoms: C_4  and  C_7 
REMARK    2  A    between atoms: C_5  and  O_20 
REMARK    3  A    between atoms: C_10  and  C_17 
REMARK    4  A    between atoms: C_11  and  N_13 
ROOT
HETATM    1  C   UNK N   1      29.306  17.692   4.457  0.00  0.00     0.004 A 
HETATM    2  C   UNK N   1      28.656  16.748   3.622  0.00  0.00     0.072 A 
HETATM    3  C   UNK N   1      30.709  17.665   4.521  0.00  0.00     0.030 A 
HETATM    4  C   UNK N   1      31.456  16.740   3.776  0.00  0.00     0.051 A 
HETATM    5  C   UNK N   1      26.646  15.791   2.794  0.00  0.00     0.119 A 
HETATM    6  C   UNK N   1      27.393  14.915   1.992  0.00  0.00     0.137 A 
HETATM    7  C   UNK N   1      30.798  15.838   2.927  0.00  0.00     0.048 A 
HETATM    8  C   UNK N   1      29.405  15.841   2.847  0.00  0.00     0.060 A 
HETATM    9  N   UNK N   1      28.754  14.957   2.038  0.00  0.00    -0.360 N 
ATOM     10  HN  UNK N   1      29.295  14.316   1.458  1.00  0.00     0.165 HD
HETATM   11  N   UNK N   1      27.307  16.684   3.570  0.00  0.00    -0.339 N 
ATOM     12  HN  UNK N   1      26.766  17.335   4.137  1.00  0.00     0.167 HD
ENDROOT
BRANCH   1  13
HETATM   13  C   UNK N   1      28.548  18.700   5.271  0.00  0.00    -0.021 A 
HETATM   14  C   UNK N   1      28.049  19.869   4.672  0.00  0.00     0.012 A 
HETATM   15  C   UNK N   1      27.337  20.809   5.427  0.00  0.00     0.004 A 
HETATM   16  C   UNK N   1      27.109  20.590   6.789  0.00  0.00     0.036 A 
HETATM   17  C   UNK N   1      27.593  19.431   7.396  0.00  0.00     0.066 A 
HETATM   18  C   UNK N   1      28.304  18.500   6.642  0.00  0.00     0.049 A 
BRANCH  17  19
HETATM   19  O   UNK N   1      27.376  19.211   8.703  0.00  0.00    -0.361 OA
HETATM   20  H   UNK N   1      28.099  19.116   9.290  0.00  0.00     0.217 HD
ENDBRANCH  17  19
ENDBRANCH   1  13
BRANCH   4  21
HETATM   21  C   UNK N   1      32.951  16.685   3.907  0.00  0.00     0.417 C 
HETATM   22  F   UNK N   1      33.515  16.549   2.650  0.00  0.00    -0.166 F 
HETATM   23  F   UNK N   1      33.416  17.850   4.487  0.00  0.00    -0.166 F 
HETATM   24  F   UNK N   1      33.347  15.609   4.685  0.00  0.00    -0.166 F 
ENDBRANCH   4  21
BRANCH   5  25
HETATM   25  N   UNK N   1      25.228  15.729   2.875  0.00  0.00    -0.363 N 
HETATM   26  C   UNK N   1      24.462  16.618   3.721  0.00  0.00     0.154 C 
HETATM   27  C   UNK N   1      23.477  15.775   4.541  0.00  0.00     0.291 C 
HETATM   28  N   UNK N   1      22.677  14.929   3.649  0.00  0.00     0.087 N 
HETATM   29  C   UNK N   1      23.557  13.989   2.957  0.00  0.00     0.291 C 
HETATM   30  C   UNK N   1      21.778  14.143   4.471  0.00  0.00     0.310 C 
HETATM   31  C   UNK N   1      24.510  14.769   2.066  0.00  0.00     0.154 C 
ENDBRANCH   5  25
TORSDOF 4
ENDMDL
MODEL 5
REMARK VINA RESULT:      -7.3     18.064     19.288
REMARK  4 active torsions:
REMARK  status: ('A' for Active; 'I' for Inactive)
REMARK    1  A    between atoms: C_4  and  C_7 
REMARK    2  A    between atoms: C_5  and  O_20 
REMARK    3  A    between atoms: C_10  and  C_17 
REMARK    4  A    between atoms: C_11  and  N_13 
ROOT
HETATM    1  C   UNK N   1      27.827  24.673  -5.218  0.00  0.00     0.004 A 
HETATM    2  C   UNK N   1      27.192  23.996  -6.290  0.00  0.00     0.072 A 
HETATM    3  C   UNK N   1      27.228  25.843  -4.725  0.00  0.00     0.030 A 
HETATM    4  C   UNK N   1      26.028  26.333  -5.265  0.00  0.00     0.051 A 
HETATM    5  C   UNK N   1      27.188  22.232  -7.880  0.00  0.00     0.119 A 
HETATM    6  C   UNK N   1      25.952  22.677  -8.372  0.00  0.00     0.137 A 
HETATM    7  C   UNK N   1      25.396  25.630  -6.301  0.00  0.00     0.048 A 
HETATM    8  C   UNK N   1      25.971  24.467  -6.811  0.00  0.00     0.060 A 
HETATM    9  N   UNK N   1      25.373  23.785  -7.830  0.00  0.00    -0.360 N 
ATOM     10  HN  UNK N   1      24.476  24.111  -8.192  1.00  0.00     0.165 HD
HETATM   11  N   UNK N   1      27.755  22.902  -6.848  0.00  0.00    -0.339 N 
ATOM     12  HN  UNK N   1      28.643  22.567  -6.476  1.00  0.00     0.167 HD
ENDROOT
BRANCH   1  13
HETATM   13  C   UNK N   1      29.110  24.186  -4.609  0.00  0.00    -0.021 A 
HETATM   14  C   UNK N   1      30.290  24.146  -5.372  0.00  0.00     0.012 A 
HETATM   15  C   UNK N   1      31.489  23.697  -4.805  0.00  0.00     0.004 A 
HETATM   16  C   UNK N   1      31.527  23.290  -3.468  0.00  0.00     0.036 A 
HETATM   17  C   UNK N   1      30.364  23.330  -2.697  0.00  0.00     0.066 A 
HETATM   18  C   UNK N   1      29.173  23.773  -3.265  0.00  0.00     0.049 A 
BRANCH  17  19
HETATM   19  O   UNK N   1      30.392  22.944  -1.412  0.00  0.00    -0.361 OA
HETATM   20  H   UNK N   1      30.717  23.525  -0.753  0.00  0.00     0.217 HD
ENDBRANCH  17  19
ENDBRANCH   1  13
BRANCH   4  21
HETATM   21  C   UNK N   1      25.437  27.621  -4.767  0.00  0.00     0.417 C 
HETATM   22  F   UNK N   1      26.234  28.676  -5.175  0.00  0.00    -0.166 F 
HETATM   23  F   UNK N   1      24.167  27.787  -5.285  0.00  0.00    -0.166 F 
HETATM   24  F   UNK N   1      25.362  27.635  -3.384  0.00  0.00    -0.166 F 
ENDBRANCH   4  21
BRANCH   5  25
HETATM   25  N   UNK N   1      27.897  21.150  -8.469  0.00  0.00    -0.363 N 
HETATM   26  C   UNK N   1      28.651  20.200  -7.681  0.00  0.00     0.154 C 
HETATM   27  C   UNK N   1      30.045  20.053  -8.305  0.00  0.00     0.291 C 
HETATM   28  N   UNK N   1      29.925  19.718  -9.728  0.00  0.00     0.087 N 
HETATM   29  C   UNK N   1      29.266  20.818 -10.429  0.00  0.00     0.291 C 
HETATM   30  C   UNK N   1      31.265  19.607 -10.273  0.00  0.00     0.310 C 
HETATM   31  C   UNK N   1      27.848  20.961  -9.903  0.00  0.00     0.154 C 
ENDBRANCH   5  25
TORSDOF 4
ENDMDL
MODEL 6
REMARK VINA RESULT:      -7.3      6.486      8.345
REMARK  4 active torsions:
REMARK  status: ('A' for Active; 'I' for Inactive)
REMARK    1  A    between atoms: C_4  and  C_7 
REMARK    2  A    between atoms: C_5  and  O_20 
REMARK    3  A    between atoms: C_10  and  C_17 
REMARK    4  A    between atoms: C_11  and  N_13 
ROOT
HETATM    1  C   UNK N   1      22.866  18.217   4.568  0.00  0.00     0.004 A 
HETATM    2  C   UNK N   1      24.118  18.864   4.411  0.00  0.00     0.072 A 
HETATM    3  C   UNK N   1      21.779  18.684   3.812  0.00  0.00     0.030 A 
HETATM    4  C   UNK N   1      21.919  19.756   2.916  0.00  0.00     0.051 A 
HETATM    5  C   UNK N   1      26.394  19.100   5.049  0.00  0.00     0.119 A 
HETATM    6  C   UNK N   1      26.555  20.120   4.100  0.00  0.00     0.137 A 
HETATM    7  C   UNK N   1      23.174  20.359   2.747  0.00  0.00     0.048 A 
HETATM    8  C   UNK N   1      24.270  19.917   3.488  0.00  0.00     0.060 A 
HETATM    9  N   UNK N   1      25.490  20.509   3.344  0.00  0.00    -0.360 N 
ATOM     10  HN  UNK N   1      25.607  21.255   2.658  1.00  0.00     0.165 HD
HETATM   11  N   UNK N   1      25.183  18.501   5.159  0.00  0.00    -0.339 N 
ATOM     12  HN  UNK N   1      25.071  17.745   5.834  1.00  0.00     0.167 HD
ENDROOT
BRANCH   1  13
HETATM   13  C   UNK N   1      22.669  17.068   5.514  0.00  0.00    -0.021 A 
HETATM   14  C   UNK N   1      23.482  15.925   5.424  0.00  0.00     0.012 A 
HETATM   15  C   UNK N   1      23.305  14.853   6.308  0.00  0.00     0.004 A 
HETATM   16  C   UNK N   1      22.318  14.913   7.297  0.00  0.00     0.036 A 
HETATM   17  C   UNK N   1      21.509  16.044   7.402  0.00  0.00     0.066 A 
HETATM   18  C   UNK N   1      21.686  17.107   6.519  0.00  0.00     0.049 A 
BRANCH  17  19
HETATM   19  O   UNK N   1      20.561  16.112   8.351  0.00  0.00    -0.361 OA
HETATM   20  H   UNK N   1      20.226  16.943   8.623  0.00  0.00     0.217 HD
ENDBRANCH  17  19
ENDBRANCH   1  13
BRANCH   4  21
HETATM   21  C   UNK N   1      20.730  20.282   2.164  0.00  0.00     0.417 C 
HETATM   22  F   UNK N   1      19.571  19.877   2.802  0.00  0.00    -0.166 F 
HETATM   23  F   UNK N   1      20.769  21.663   2.129  0.00  0.00    -0.166 F 
HETATM   24  F   UNK N   1      20.707  19.801   0.864  0.00  0.00    -0.166 F 
ENDBRANCH   4  21
BRANCH   5  25
HETATM   25  N   UNK N   1      27.431  18.720   5.943  0.00  0.00    -0.363 N 
HETATM   26  C   UNK N   1      27.998  17.389   5.949  0.00  0.00     0.154 C 
HETATM   27  C   UNK N   1      28.025  16.882   7.396  0.00  0.00     0.291 C 
HETATM   28  N   UNK N   1      28.714  17.851   8.255  0.00  0.00     0.087 N 
HETATM   29  C   UNK N   1      27.966  19.106   8.265  0.00  0.00     0.291 C 
HETATM   30  C   UNK N   1      28.698  17.335   9.610  0.00  0.00     0.310 C 
HETATM   31  C   UNK N   1      27.971  19.696   6.865  0.00  0.00     0.154 C 
ENDBRANCH   5  25
TORSDOF 4
ENDMDL
MODEL 7
REMARK VINA RESULT:      -7.2      3.978      5.267
REMARK  4 active torsions:
REMARK  status: ('A' for Active; 'I' for Inactive)
REMARK    1  A    between atoms: C_4  and  C_7 
REMARK    2  A    between atoms: C_5  and  O_20 
REMARK    3  A    between atoms: C_10  and  C_17 
REMARK    4  A    between atoms: C_11  and  N_13 
ROOT
HETATM    1  C   UNK N   1      21.446  14.911   8.173  0.00  0.00     0.004 A 
HETATM    2  C   UNK N   1      22.022  15.734   7.173  0.00  0.00     0.072 A 
HETATM    3  C   UNK N   1      20.222  15.309   8.736  0.00  0.00     0.030 A 
HETATM    4  C   UNK N   1      19.575  16.483   8.320  0.00  0.00     0.051 A 
HETATM    5  C   UNK N   1      23.820  16.201   5.692  0.00  0.00     0.119 A 
HETATM    6  C   UNK N   1      23.139  17.334   5.222  0.00  0.00     0.137 A 
HETATM    7  C   UNK N   1      20.142  17.265   7.304  0.00  0.00     0.048 A 
HETATM    8  C   UNK N   1      21.358  16.895   6.730  0.00  0.00     0.060 A 
HETATM    9  N   UNK N   1      21.927  17.657   5.753  0.00  0.00    -0.360 N 
ATOM     10  HN  UNK N   1      21.436  18.485   5.414  1.00  0.00     0.165 HD
HETATM   11  N   UNK N   1      23.228  15.436   6.641  0.00  0.00    -0.339 N 
ATOM     12  HN  UNK N   1      23.713  14.601   6.969  1.00  0.00     0.167 HD
ENDROOT
BRANCH   1  13
HETATM   13  C   UNK N   1      22.102  13.647   8.649  0.00  0.00    -0.021 A 
HETATM   14  C   UNK N   1      22.272  12.560   7.773  0.00  0.00     0.012 A 
HETATM   15  C   UNK N   1      22.888  11.382   8.212  0.00  0.00     0.004 A 
HETATM   16  C   UNK N   1      23.348  11.276   9.528  0.00  0.00     0.036 A 
HETATM   17  C   UNK N   1      23.191  12.349  10.406  0.00  0.00     0.066 A 
HETATM   18  C   UNK N   1      22.575  13.518   9.968  0.00  0.00     0.049 A 
BRANCH  17  19
HETATM   19  O   UNK N   1      23.633  12.257  11.671  0.00  0.00    -0.361 OA
HETATM   20  H   UNK N   1      23.022  12.223  12.381  0.00  0.00     0.217 HD
ENDBRANCH  17  19
ENDBRANCH   1  13
BRANCH   4  21
HETATM   21  C   UNK N   1      18.300  16.925   8.979  0.00  0.00     0.417 C 
HETATM   22  F   UNK N   1      17.900  15.963   9.889  0.00  0.00    -0.166 F 
HETATM   23  F   UNK N   1      18.503  18.120   9.644  0.00  0.00    -0.166 F 
HETATM   24  F   UNK N   1      17.289  17.098   8.048  0.00  0.00    -0.166 F 
ENDBRANCH   4  21
BRANCH   5  25
HETATM   25  N   UNK N   1      25.132  15.866   5.260  0.00  0.00    -0.363 N 
HETATM   26  C   UNK N   1      26.259  15.830   6.166  0.00  0.00     0.154 C 
HETATM   27  C   UNK N   1      27.409  16.626   5.539  0.00  0.00     0.291 C 
HETATM   28  N   UNK N   1      27.687  16.128   4.188  0.00  0.00     0.087 N 
HETATM   29  C   UNK N   1      26.516  16.347   3.342  0.00  0.00     0.291 C 
HETATM   30  C   UNK N   1      28.767  16.922   3.635  0.00  0.00     0.310 C 
HETATM   31  C   UNK N   1      25.359  15.518   3.874  0.00  0.00     0.154 C 
ENDBRANCH   5  25
TORSDOF 4
ENDMDL
MODEL 8
REMARK VINA RESULT:      -7.0     12.330     14.348
REMARK  4 active torsions:
REMARK  status: ('A' for Active; 'I' for Inactive)
REMARK    1  A    between atoms: C_4  and  C_7 
REMARK    2  A    between atoms: C_5  and  O_20 
REMARK    3  A    between atoms: C_10  and  C_17 
REMARK    4  A    between atoms: C_11  and  N_13 
ROOT
HETATM    1  C   UNK N   1      35.018  13.318  10.523  0.00  0.00     0.004 A 
HETATM    2  C   UNK N   1      34.935  14.662  10.078  0.00  0.00     0.072 A 
HETATM    3  C   UNK N   1      35.423  13.082  11.847  0.00  0.00     0.030 A 
HETATM    4  C   UNK N   1      35.730  14.140  12.716  0.00  0.00     0.051 A 
HETATM    5  C   UNK N   1      34.534  16.216   8.327  0.00  0.00     0.119 A 
HETATM    6  C   UNK N   1      34.768  17.277   9.215  0.00  0.00     0.137 A 
HETATM    7  C   UNK N   1      35.606  15.463  12.269  0.00  0.00     0.048 A 
HETATM    8  C   UNK N   1      35.210  15.726  10.958  0.00  0.00     0.060 A 
HETATM    9  N   UNK N   1      35.103  17.009  10.508  0.00  0.00    -0.360 N 
ATOM     10  HN  UNK N   1      35.278  17.782  11.151  1.00  0.00     0.165 HD
HETATM   11  N   UNK N   1      34.614  14.947   8.797  0.00  0.00    -0.339 N 
ATOM     12  HN  UNK N   1      34.424  14.176   8.157  1.00  0.00     0.167 HD
ENDROOT
BRANCH   1  13
HETATM   13  C   UNK N   1      34.699  12.155   9.629  0.00  0.00    -0.021 A 
HETATM   14  C   UNK N   1      35.695  11.590   8.813  0.00  0.00     0.012 A 
HETATM   15  C   UNK N   1      35.403  10.502   7.982  0.00  0.00     0.004 A 
HETATM   16  C   UNK N   1      34.114   9.960   7.960  0.00  0.00     0.036 A 
HETATM   17  C   UNK N   1      33.117  10.506   8.769  0.00  0.00     0.066 A 
HETATM   18  C   UNK N   1      33.411  11.591   9.592  0.00  0.00     0.049 A 
BRANCH  17  19
HETATM   19  O   UNK N   1      31.878   9.990   8.756  0.00  0.00    -0.361 OA
HETATM   20  H   UNK N   1      31.557   9.519   9.500  0.00  0.00     0.217 HD
ENDBRANCH  17  19
ENDBRANCH   1  13
BRANCH   4  21
HETATM   21  C   UNK N   1      36.222  13.865  14.108  0.00  0.00     0.417 C 
HETATM   22  F   UNK N   1      35.141  13.599  14.930  0.00  0.00    -0.166 F 
HETATM   23  F   UNK N   1      37.065  12.770  14.102  0.00  0.00    -0.166 F 
HETATM   24  F   UNK N   1      36.907  14.955  14.621  0.00  0.00    -0.166 F 
ENDBRANCH   4  21
BRANCH   5  25
HETATM   25  N   UNK N   1      34.286  16.421   6.943  0.00  0.00    -0.363 N 
HETATM   26  C   UNK N   1      33.547  17.563   6.451  0.00  0.00     0.154 C 
HETATM   27  C   UNK N   1      32.476  17.062   5.475  0.00  0.00     0.291 C 
HETATM   28  N   UNK N   1      33.092  16.231   4.435  0.00  0.00     0.087 N 
HETATM   29  C   UNK N   1      33.684  15.046   5.052  0.00  0.00     0.291 C 
HETATM   30  C   UNK N   1      32.039  15.770   3.551  0.00  0.00     0.310 C 
HETATM   31  C   UNK N   1      34.809  15.480   5.977  0.00  0.00     0.154 C 
ENDBRANCH   5  25
TORSDOF 4
ENDMDL
MODEL 9
REMARK VINA RESULT:      -7.0      5.655      7.909
REMARK  4 active torsions:
REMARK  status: ('A' for Active; 'I' for Inactive)
REMARK    1  A    between atoms: C_4  and  C_7 
REMARK    2  A    between atoms: C_5  and  O_20 
REMARK    3  A    between atoms: C_10  and  C_17 
REMARK    4  A    between atoms: C_11  and  N_13 
ROOT
HETATM    1  C   UNK N   1      23.588  18.215   4.157  0.00  0.00     0.004 A 
HETATM    2  C   UNK N   1      24.090  17.230   5.045  0.00  0.00     0.072 A 
HETATM    3  C   UNK N   1      24.472  19.205   3.696  0.00  0.00     0.030 A 
HETATM    4  C   UNK N   1      25.819  19.222   4.090  0.00  0.00     0.051 A 
HETATM    5  C   UNK N   1      23.708  15.341   6.433  0.00  0.00     0.119 A 
HETATM    6  C   UNK N   1      25.070  15.312   6.769  0.00  0.00     0.137 A 
HETATM    7  C   UNK N   1      26.306  18.218   4.940  0.00  0.00     0.048 A 
HETATM    8  C   UNK N   1      25.449  17.226   5.415  0.00  0.00     0.060 A 
HETATM    9  N   UNK N   1      25.909  16.256   6.256  0.00  0.00    -0.360 N 
ATOM     10  HN  UNK N   1      26.898  16.236   6.506  1.00  0.00     0.165 HD
HETATM   11  N   UNK N   1      23.273  16.293   5.572  0.00  0.00    -0.339 N 
ATOM     12  HN  UNK N   1      22.287  16.302   5.311  1.00  0.00     0.167 HD
ENDROOT
BRANCH   1  13
HETATM   13  C   UNK N   1      22.155  18.236   3.708  0.00  0.00    -0.021 A 
HETATM   14  C   UNK N   1      21.442  19.447   3.662  0.00  0.00     0.012 A 
HETATM   15  C   UNK N   1      20.107  19.471   3.239  0.00  0.00     0.004 A 
HETATM   16  C   UNK N   1      19.471  18.288   2.851  0.00  0.00     0.036 A 
HETATM   17  C   UNK N   1      20.168  17.080   2.886  0.00  0.00     0.066 A 
HETATM   18  C   UNK N   1      21.495  17.060   3.310  0.00  0.00     0.049 A 
BRANCH  17  19
HETATM   19  O   UNK N   1      19.566  15.940   2.512  0.00  0.00    -0.361 OA
HETATM   20  H   UNK N   1      19.204  15.366   3.157  0.00  0.00     0.217 HD
ENDBRANCH  17  19
ENDBRANCH   1  13
BRANCH   4  21
HETATM   21  C   UNK N   1      26.732  20.325   3.637  0.00  0.00     0.417 C 
HETATM   22  F   UNK N   1      26.854  21.260   4.649  0.00  0.00    -0.166 F 
HETATM   23  F   UNK N   1      27.981  19.811   3.342  0.00  0.00    -0.166 F 
HETATM   24  F   UNK N   1      26.231  20.958   2.511  0.00  0.00    -0.166 F 
ENDBRANCH   4  21
BRANCH   5  25
HETATM   25  N   UNK N   1      22.761  14.455   7.014  0.00  0.00    -0.363 N 
HETATM   26  C   UNK N   1      21.338  14.708   6.971  0.00  0.00     0.154 C 
HETATM   27  C   UNK N   1      20.772  14.531   8.386  0.00  0.00     0.291 C 
HETATM   28  N   UNK N   1      21.150  13.217   8.916  0.00  0.00     0.087 N 
HETATM   29  C   UNK N   1      22.605  13.143   9.034  0.00  0.00     0.291 C 
HETATM   30  C   UNK N   1      20.608  13.106  10.257  0.00  0.00     0.310 C 
HETATM   31  C   UNK N   1      23.219  13.238   7.647  0.00  0.00     0.154 C 
ENDBRANCH   5  25
TORSDOF 4
ENDMDL
