MODEL 1
REMARK VINA RESULT:      -8.8      0.000      0.000
REMARK  6 active torsions:
REMARK  status: ('A' for Active; 'I' for Inactive)
REMARK    1  A    between atoms: C_2  and  C_5 
REMARK    2  A    between atoms: C_10  and  N_11 
REMARK       I    between atoms: N_11  and  C_12 
REMARK    3  A    between atoms: C_12  and  C_14 
REMARK    4  A    between atoms: C_20  and  N_21 
REMARK    5  A    between atoms: N_21  and  C_22 
REMARK    6  A    between atoms: C_28  and  C_29 
REMARK       I    between atoms: C_29  and  N_31 
ROOT
HETATM    1  C   UNK N   1      35.307  15.215   9.890  0.00  0.00     0.034 A 
HETATM    2  C   UNK N   1      34.559  16.264   9.348  0.00  0.00     0.047 A 
HETATM    3  C   UNK N   1      35.918  14.289   9.035  0.00  0.00     0.018 A 
HETATM    4  C   UNK N   1      35.790  14.418   7.651  0.00  0.00     0.010 A 
HETATM    5  C   UNK N   1      35.019  15.450   7.112  0.00  0.00    -0.035 A 
HETATM    6  C   UNK N   1      34.847  15.536   5.636  0.00  0.00     0.050 C 
HETATM    7  C   UNK N   1      34.409  16.384   7.967  0.00  0.00     0.039 A 
ENDROOT
BRANCH   1   8
HETATM    8  C   UNK N   1      35.199  14.936  11.327  0.00  0.00     0.256 C 
HETATM    9  N   UNK N   1      36.348  14.845  12.048  0.00  0.00    -0.323 N 
HETATM   10  H   UNK N   1      37.063  15.502  11.886  0.00  0.00     0.169 HD
HETATM   11  O   UNK N   1      34.139  14.532  11.788  0.00  0.00    -0.267 OA
BRANCH   9  12
HETATM   12  C   UNK N   1      36.554  13.838  13.025  0.00  0.00     0.035 A 
HETATM   13  C   UNK N   1      36.071  14.029  14.327  0.00  0.00     0.045 A 
HETATM   14  C   UNK N   1      36.016  12.982  15.240  0.00  0.00     0.050 A 
HETATM   15  C   UNK N   1      36.451  11.709  14.848  0.00  0.00     0.016 A 
HETATM   16  C   UNK N   1      36.940  11.504  13.550  0.00  0.00     0.003 A 
HETATM   17  C   UNK N   1      36.967  12.562  12.632  0.00  0.00     0.029 A 
BRANCH  14  18
HETATM   18  C   UNK N   1      35.438  13.242  16.599  0.00  0.00     0.417 C 
HETATM   19  F   UNK N   1      35.674  12.148  17.415  0.00  0.00    -0.166 F 
HETATM   20  F   UNK N   1      36.007  14.360  17.180  0.00  0.00    -0.166 F 
HETATM   21  F   UNK N   1      34.073  13.433  16.492  0.00  0.00    -0.166 F 
ENDBRANCH  14  18
ENDBRANCH   9  12
ENDBRANCH   1   8
BRANCH   7  22
HETATM   22  N   UNK N   1      33.598  17.421   7.451  0.00  0.00    -0.355 N 
HETATM   23  H   UNK N   1      34.025  18.251   7.139  0.00  0.00     0.166 HD
BRANCH  22  24
HETATM   24  C   UNK N   1      32.193  17.300   7.372  0.00  0.00     0.049 A 
HETATM   25  C   UNK N   1      31.397  17.876   8.361  0.00  0.00     0.049 A 
HETATM   26  C   UNK N   1      30.005  17.756   8.294  0.00  0.00     0.049 A 
HETATM   27  C   UNK N   1      29.436  17.043   7.229  0.00  0.00     0.104 A 
HETATM   28  N   UNK N   1      30.228  16.486   6.275  0.00  0.00    -0.372 N 
HETATM   29  C   UNK N   1      31.581  16.602   6.322  0.00  0.00     0.117 A 
ATOM     30  HN  UNK N   1      29.798  15.971   5.508  1.00  0.00     0.164 HD
BRANCH  26  31
HETATM   31  C   UNK N   1      29.149  18.374   9.327  0.00  0.00     0.250 C 
HETATM   32  O   UNK N   1      29.651  18.883  10.317  0.00  0.00    -0.268 OA
HETATM   33  N   UNK N   1      27.808  18.390   9.180  0.00  0.00    -0.366 N 
HETATM   34  H   UNK N   1      27.205  17.885   8.588  0.00  0.00     0.159 HD
HETATM   35  H   UNK N   1      27.348  19.023   9.775  0.00  0.00     0.159 HD
ENDBRANCH  26  31
ENDBRANCH  22  24
ENDBRANCH   7  22
TORSDOF 6
ENDMDL
MODEL 2
REMARK VINA RESULT:      -8.4      3.206      5.175
REMARK  6 active torsions:
REMARK  status: ('A' for Active; 'I' for Inactive)
REMARK    1  A    between atoms: C_2  and  C_5 
REMARK    2  A    between atoms: C_10  and  N_11 
REMARK       I    between atoms: N_11  and  C_12 
REMARK    3  A    between atoms: C_12  and  C_14 
REMARK    4  A    between atoms: C_20  and  N_21 
REMARK    5  A    between atoms: N_21  and  C_22 
REMARK    6  A    between atoms: C_28  and  C_29 
REMARK       I    between atoms: C_29  and  N_31 
ROOT
HETATM    1  C   UNK N   1      36.268  13.065  13.831  0.00  0.00     0.034 A 
HETATM    2  C   UNK N   1      36.265  14.123  12.918  0.00  0.00     0.047 A 
HETATM    3  C   UNK N   1      36.937  11.877  13.509  0.00  0.00     0.018 A 
HETATM    4  C   UNK N   1      37.604  11.754  12.289  0.00  0.00     0.010 A 
HETATM    5  C   UNK N   1      37.576  12.802  11.367  0.00  0.00    -0.035 A 
HETATM    6  C   UNK N   1      38.243  12.629  10.047  0.00  0.00     0.050 C 
HETATM    7  C   UNK N   1      36.910  13.997  11.689  0.00  0.00     0.039 A 
ENDROOT
BRANCH   1   8
HETATM    8  C   UNK N   1      35.341  13.106  14.969  0.00  0.00     0.256 C 
HETATM    9  N   UNK N   1      35.848  13.399  16.196  0.00  0.00    -0.323 N 
HETATM   10  H   UNK N   1      36.509  14.123  16.275  0.00  0.00     0.169 HD
HETATM   11  O   UNK N   1      34.220  12.628  14.854  0.00  0.00    -0.267 OA
BRANCH   9  12
HETATM   12  C   UNK N   1      35.459  12.698  17.366  0.00  0.00     0.035 A 
HETATM   13  C   UNK N   1      35.633  11.308  17.428  0.00  0.00     0.045 A 
HETATM   14  C   UNK N   1      35.514  10.616  18.628  0.00  0.00     0.050 A 
HETATM   15  C   UNK N   1      35.214  11.326  19.799  0.00  0.00     0.016 A 
HETATM   16  C   UNK N   1      35.034  12.715  19.751  0.00  0.00     0.003 A 
HETATM   17  C   UNK N   1      35.181  13.403  18.540  0.00  0.00     0.029 A 
BRANCH  14  18
HETATM   18  C   UNK N   1      35.766   9.138  18.635  0.00  0.00     0.417 C 
HETATM   19  F   UNK N   1      37.079   8.894  18.270  0.00  0.00    -0.166 F 
HETATM   20  F   UNK N   1      35.547   8.598  19.890  0.00  0.00    -0.166 F 
HETATM   21  F   UNK N   1      34.927   8.522  17.725  0.00  0.00    -0.166 F 
ENDBRANCH  14  18
ENDBRANCH   9  12
ENDBRANCH   1   8
BRANCH   7  22
HETATM   22  N   UNK N   1      36.838  15.063  10.763  0.00  0.00    -0.355 N 
HETATM   23  H   UNK N   1      37.665  15.537  10.516  0.00  0.00     0.166 HD
BRANCH  22  24
HETATM   24  C   UNK N   1      35.615  15.467  10.183  0.00  0.00     0.049 A 
HETATM   25  C   UNK N   1      34.764  14.510   9.636  0.00  0.00     0.049 A 
HETATM   26  C   UNK N   1      33.553  14.901   9.055  0.00  0.00     0.049 A 
HETATM   27  C   UNK N   1      33.226  16.264   9.027  0.00  0.00     0.104 A 
HETATM   28  N   UNK N   1      34.069  17.185   9.563  0.00  0.00    -0.372 N 
HETATM   29  C   UNK N   1      35.244  16.818  10.139  0.00  0.00     0.117 A 
ATOM     30  HN  UNK N   1      33.815  18.172   9.533  1.00  0.00     0.164 HD
BRANCH  26  31
HETATM   31  C   UNK N   1      32.635  13.895   8.485  0.00  0.00     0.250 C 
HETATM   32  O   UNK N   1      32.072  14.107   7.423  0.00  0.00    -0.268 OA
HETATM   33  N   UNK N   1      32.417  12.730   9.130  0.00  0.00    -0.366 N 
HETATM   34  H   UNK N   1      32.599  12.446  10.055  0.00  0.00     0.159 HD
HETATM   35  H   UNK N   1      31.998  12.037   8.573  0.00  0.00     0.159 HD
ENDBRANCH  26  31
ENDBRANCH  22  24
ENDBRANCH   7  22
TORSDOF 6
ENDMDL
MODEL 3
REMARK VINA RESULT:      -8.3      7.326     11.093
REMARK  6 active torsions:
REMARK  status: ('A' for Active; 'I' for Inactive)
REMARK    1  A    between atoms: C_2  and  C_5 
REMARK    2  A    between atoms: C_10  and  N_11 
REMARK       I    between atoms: N_11  and  C_12 
REMARK    3  A    between atoms: C_12  and  C_14 
REMARK    4  A    between atoms: C_20  and  N_21 
REMARK    5  A    between atoms: N_21  and  C_22 
REMARK    6  A    between atoms: C_28  and  C_29 
REMARK       I    between atoms: C_29  and  N_31 
ROOT
HETATM    1  C   UNK N   1      25.570  19.102   4.095  0.00  0.00     0.034 A 
HETATM    2  C   UNK N   1      24.728  18.010   4.324  0.00  0.00     0.047 A 
HETATM    3  C   UNK N   1      25.046  20.273   3.532  0.00  0.00     0.018 A 
HETATM    4  C   UNK N   1      23.691  20.353   3.210  0.00  0.00     0.010 A 
HETATM    5  C   UNK N   1      22.856  19.251   3.412  0.00  0.00    -0.035 A 
HETATM    6  C   UNK N   1      21.426  19.337   3.007  0.00  0.00     0.050 C 
HETATM    7  C   UNK N   1      23.378  18.077   3.982  0.00  0.00     0.039 A 
ENDROOT
BRANCH   1   8
HETATM    8  C   UNK N   1      27.023  18.907   4.177  0.00  0.00     0.256 C 
HETATM    9  N   UNK N   1      27.483  17.756   4.735  0.00  0.00    -0.323 N 
HETATM   10  H   UNK N   1      27.042  16.907   4.503  0.00  0.00     0.169 HD
HETATM   11  O   UNK N   1      27.772  19.858   4.000  0.00  0.00    -0.267 OA
BRANCH   9  12
HETATM   12  C   UNK N   1      28.574  17.735   5.641  0.00  0.00     0.035 A 
HETATM   13  C   UNK N   1      28.344  17.967   7.004  0.00  0.00     0.045 A 
HETATM   14  C   UNK N   1      29.320  17.703   7.959  0.00  0.00     0.050 A 
HETATM   15  C   UNK N   1      30.559  17.194   7.546  0.00  0.00     0.016 A 
HETATM   16  C   UNK N   1      30.804  16.960   6.186  0.00  0.00     0.003 A 
HETATM   17  C   UNK N   1      29.803  17.207   5.238  0.00  0.00     0.029 A 
BRANCH  14  18
HETATM   18  C   UNK N   1      28.991  17.922   9.405  0.00  0.00     0.417 C 
HETATM   19  F   UNK N   1      29.321  16.788  10.128  0.00  0.00    -0.166 F 
HETATM   20  F   UNK N   1      29.692  18.997   9.921  0.00  0.00    -0.166 F 
HETATM   21  F   UNK N   1      27.635  18.159   9.540  0.00  0.00    -0.166 F 
ENDBRANCH  14  18
ENDBRANCH   9  12
ENDBRANCH   1   8
BRANCH   7  22
HETATM   22  N   UNK N   1      22.564  16.936   4.169  0.00  0.00    -0.355 N 
HETATM   23  H   UNK N   1      22.288  16.412   3.382  0.00  0.00     0.166 HD
BRANCH  22  24
HETATM   24  C   UNK N   1      22.137  16.526   5.452  0.00  0.00     0.049 A 
HETATM   25  C   UNK N   1      21.295  17.353   6.193  0.00  0.00     0.049 A 
HETATM   26  C   UNK N   1      20.872  16.959   7.466  0.00  0.00     0.049 A 
HETATM   27  C   UNK N   1      21.316  15.732   7.977  0.00  0.00     0.104 A 
HETATM   28  N   UNK N   1      22.139  14.938   7.241  0.00  0.00    -0.372 N 
HETATM   29  C   UNK N   1      22.551  15.305   5.999  0.00  0.00     0.117 A 
ATOM     30  HN  UNK N   1      22.453  14.049   7.629  1.00  0.00     0.164 HD
BRANCH  26  31
HETATM   31  C   UNK N   1      19.968  17.819   8.255  0.00  0.00     0.250 C 
HETATM   32  O   UNK N   1      20.252  18.990   8.455  0.00  0.00    -0.268 OA
HETATM   33  N   UNK N   1      18.818  17.322   8.754  0.00  0.00    -0.366 N 
HETATM   34  H   UNK N   1      18.500  16.398   8.881  0.00  0.00     0.159 HD
HETATM   35  H   UNK N   1      18.177  18.009   9.045  0.00  0.00     0.159 HD
ENDBRANCH  26  31
ENDBRANCH  22  24
ENDBRANCH   7  22
TORSDOF 6
ENDMDL
MODEL 4
REMARK VINA RESULT:      -8.3      7.382     12.542
REMARK  6 active torsions:
REMARK  status: ('A' for Active; 'I' for Inactive)
REMARK    1  A    between atoms: C_2  and  C_5 
REMARK    2  A    between atoms: C_10  and  N_11 
REMARK       I    between atoms: N_11  and  C_12 
REMARK    3  A    between atoms: C_12  and  C_14 
REMARK    4  A    between atoms: C_20  and  N_21 
REMARK    5  A    between atoms: N_21  and  C_22 
REMARK    6  A    between atoms: C_28  and  C_29 
REMARK       I    between atoms: C_29  and  N_31 
ROOT
HETATM    1  C   UNK N   1      27.283  19.276   5.347  0.00  0.00     0.034 A 
HETATM    2  C   UNK N   1      28.221  18.252   5.508  0.00  0.00     0.047 A 
HETATM    3  C   UNK N   1      26.978  20.110   6.432  0.00  0.00     0.018 A 
HETATM    4  C   UNK N   1      27.614  19.926   7.660  0.00  0.00     0.010 A 
HETATM    5  C   UNK N   1      28.530  18.885   7.827  0.00  0.00    -0.035 A 
HETATM    6  C   UNK N   1      29.153  18.669   9.162  0.00  0.00     0.050 C 
HETATM    7  C   UNK N   1      28.842  18.050   6.740  0.00  0.00     0.039 A 
ENDROOT
BRANCH   1   8
HETATM    8  C   UNK N   1      26.432  19.278   4.152  0.00  0.00     0.256 C 
HETATM    9  N   UNK N   1      25.381  20.140   4.116  0.00  0.00    -0.323 N 
HETATM   10  H   UNK N   1      25.513  21.061   4.436  0.00  0.00     0.169 HD
HETATM   11  O   UNK N   1      26.509  18.354   3.353  0.00  0.00    -0.267 OA
BRANCH   9  12
HETATM   12  C   UNK N   1      24.102  19.759   3.636  0.00  0.00     0.035 A 
HETATM   13  C   UNK N   1      23.463  18.640   4.187  0.00  0.00     0.045 A 
HETATM   14  C   UNK N   1      22.119  18.379   3.942  0.00  0.00     0.050 A 
HETATM   15  C   UNK N   1      21.391  19.257   3.127  0.00  0.00     0.016 A 
HETATM   16  C   UNK N   1      22.018  20.377   2.566  0.00  0.00     0.003 A 
HETATM   17  C   UNK N   1      23.366  20.642   2.841  0.00  0.00     0.029 A 
BRANCH  14  18
HETATM   18  C   UNK N   1      21.482  17.195   4.605  0.00  0.00     0.417 C 
HETATM   19  F   UNK N   1      22.470  16.354   5.090  0.00  0.00    -0.166 F 
HETATM   20  F   UNK N   1      20.675  17.584   5.658  0.00  0.00    -0.166 F 
HETATM   21  F   UNK N   1      20.720  16.503   3.682  0.00  0.00    -0.166 F 
ENDBRANCH  14  18
ENDBRANCH   9  12
ENDBRANCH   1   8
BRANCH   7  22
HETATM   22  N   UNK N   1      29.741  16.969   6.887  0.00  0.00    -0.355 N 
HETATM   23  H   UNK N   1      29.396  16.099   7.193  0.00  0.00     0.166 HD
BRANCH  22  24
HETATM   24  C   UNK N   1      31.119  17.102   6.609  0.00  0.00     0.049 A 
HETATM   25  C   UNK N   1      31.989  17.505   7.621  0.00  0.00     0.049 A 
HETATM   26  C   UNK N   1      33.355  17.645   7.354  0.00  0.00     0.049 A 
HETATM   27  C   UNK N   1      33.821  17.383   6.058  0.00  0.00     0.104 A 
HETATM   28  N   UNK N   1      32.958  16.993   5.082  0.00  0.00    -0.372 N 
HETATM   29  C   UNK N   1      31.631  16.844   5.330  0.00  0.00     0.117 A 
ATOM     30  HN  UNK N   1      33.315  16.808   4.146  1.00  0.00     0.164 HD
BRANCH  26  31
HETATM   31  C   UNK N   1      34.289  18.057   8.420  0.00  0.00     0.250 C 
HETATM   32  O   UNK N   1      35.007  19.032   8.267  0.00  0.00    -0.268 OA
HETATM   33  N   UNK N   1      34.351  17.363   9.576  0.00  0.00    -0.366 N 
HETATM   34  H   UNK N   1      34.025  16.468   9.825  0.00  0.00     0.159 HD
HETATM   35  H   UNK N   1      34.806  17.841  10.305  0.00  0.00     0.159 HD
ENDBRANCH  26  31
ENDBRANCH  22  24
ENDBRANCH   7  22
TORSDOF 6
ENDMDL
MODEL 5
REMARK VINA RESULT:      -8.3      6.118     10.648
REMARK  6 active torsions:
REMARK  status: ('A' for Active; 'I' for Inactive)
REMARK    1  A    between atoms: C_2  and  C_5 
REMARK    2  A    between atoms: C_10  and  N_11 
REMARK       I    between atoms: N_11  and  C_12 
REMARK    3  A    between atoms: C_12  and  C_14 
REMARK    4  A    between atoms: C_20  and  N_21 
REMARK    5  A    between atoms: N_21  and  C_22 
REMARK    6  A    between atoms: C_28  and  C_29 
REMARK       I    between atoms: C_29  and  N_31 
ROOT
HETATM    1  C   UNK N   1      30.980  16.781   6.535  0.00  0.00     0.034 A 
HETATM    2  C   UNK N   1      31.619  15.938   7.449  0.00  0.00     0.047 A 
HETATM    3  C   UNK N   1      31.635  17.139   5.350  0.00  0.00     0.018 A 
HETATM    4  C   UNK N   1      32.913  16.649   5.077  0.00  0.00     0.010 A 
HETATM    5  C   UNK N   1      33.562  15.829   6.004  0.00  0.00    -0.035 A 
HETATM    6  C   UNK N   1      34.948  15.366   5.722  0.00  0.00     0.050 C 
HETATM    7  C   UNK N   1      32.905  15.465   7.192  0.00  0.00     0.039 A 
ENDROOT
BRANCH   1   8
HETATM    8  C   UNK N   1      29.772  17.501   6.959  0.00  0.00     0.256 C 
HETATM    9  N   UNK N   1      28.764  17.642   6.059  0.00  0.00    -0.323 N 
HETATM   10  H   UNK N   1      28.516  16.871   5.499  0.00  0.00     0.169 HD
HETATM   11  O   UNK N   1      29.797  18.175   7.981  0.00  0.00    -0.267 OA
BRANCH   9  12
HETATM   12  C   UNK N   1      28.056  18.860   5.896  0.00  0.00     0.035 A 
HETATM   13  C   UNK N   1      27.348  19.095   4.709  0.00  0.00     0.045 A 
HETATM   14  C   UNK N   1      26.437  20.140   4.603  0.00  0.00     0.050 A 
HETATM   15  C   UNK N   1      26.224  20.975   5.708  0.00  0.00     0.016 A 
HETATM   16  C   UNK N   1      26.927  20.755   6.900  0.00  0.00     0.003 A 
HETATM   17  C   UNK N   1      27.823  19.683   7.002  0.00  0.00     0.029 A 
BRANCH  14  18
HETATM   18  C   UNK N   1      25.674  20.302   3.322  0.00  0.00     0.417 C 
HETATM   19  F   UNK N   1      24.434  20.856   3.595  0.00  0.00    -0.166 F 
HETATM   20  F   UNK N   1      26.345  21.129   2.440  0.00  0.00    -0.166 F 
HETATM   21  F   UNK N   1      25.491  19.065   2.733  0.00  0.00    -0.166 F 
ENDBRANCH  14  18
ENDBRANCH   9  12
ENDBRANCH   1   8
BRANCH   7  22
HETATM   22  N   UNK N   1      33.549  14.663   8.163  0.00  0.00    -0.355 N 
HETATM   23  H   UNK N   1      33.553  13.685   8.047  0.00  0.00     0.166 HD
BRANCH  22  24
HETATM   24  C   UNK N   1      34.184  15.224   9.293  0.00  0.00     0.049 A 
HETATM   25  C   UNK N   1      34.519  14.405  10.369  0.00  0.00     0.049 A 
HETATM   26  C   UNK N   1      35.142  14.953  11.496  0.00  0.00     0.049 A 
HETATM   27  C   UNK N   1      35.409  16.329  11.520  0.00  0.00     0.104 A 
HETATM   28  N   UNK N   1      35.073  17.113  10.461  0.00  0.00    -0.372 N 
HETATM   29  C   UNK N   1      34.475  16.593   9.357  0.00  0.00     0.117 A 
ATOM     30  HN  UNK N   1      35.274  18.111  10.496  1.00  0.00     0.164 HD
BRANCH  26  31
HETATM   31  C   UNK N   1      35.517  14.094  12.636  0.00  0.00     0.250 C 
HETATM   32  O   UNK N   1      34.690  13.354  13.147  0.00  0.00    -0.268 OA
HETATM   33  N   UNK N   1      36.777  14.113  13.119  0.00  0.00    -0.366 N 
HETATM   34  H   UNK N   1      37.518  14.749  12.997  0.00  0.00     0.159 HD
HETATM   35  H   UNK N   1      36.995  13.350  13.700  0.00  0.00     0.159 HD
ENDBRANCH  26  31
ENDBRANCH  22  24
ENDBRANCH   7  22
TORSDOF 6
ENDMDL
MODEL 6
REMARK VINA RESULT:      -8.3      5.484     10.297
REMARK  6 active torsions:
REMARK  status: ('A' for Active; 'I' for Inactive)
REMARK    1  A    between atoms: C_2  and  C_5 
REMARK    2  A    between atoms: C_10  and  N_11 
REMARK       I    between atoms: N_11  and  C_12 
REMARK    3  A    between atoms: C_12  and  C_14 
REMARK    4  A    between atoms: C_20  and  N_21 
REMARK    5  A    between atoms: N_21  and  C_22 
REMARK    6  A    between atoms: C_28  and  C_29 
REMARK       I    between atoms: C_29  and  N_31 
ROOT
HETATM    1  C   UNK N   1      30.915  16.715   5.870  0.00  0.00     0.034 A 
HETATM    2  C   UNK N   1      31.094  16.325   7.201  0.00  0.00     0.047 A 
HETATM    3  C   UNK N   1      31.981  17.297   5.172  0.00  0.00     0.018 A 
HETATM    4  C   UNK N   1      33.216  17.478   5.796  0.00  0.00     0.010 A 
HETATM    5  C   UNK N   1      33.384  17.115   7.134  0.00  0.00    -0.035 A 
HETATM    6  C   UNK N   1      34.692  17.371   7.799  0.00  0.00     0.050 C 
HETATM    7  C   UNK N   1      32.319  16.526   7.836  0.00  0.00     0.039 A 
ENDROOT
BRANCH   1   8
HETATM    8  C   UNK N   1      29.553  16.775   5.325  0.00  0.00     0.256 C 
HETATM    9  N   UNK N   1      29.234  17.819   4.516  0.00  0.00    -0.323 N 
HETATM   10  H   UNK N   1      29.882  18.105   3.833  0.00  0.00     0.169 HD
HETATM   11  O   UNK N   1      28.678  16.065   5.804  0.00  0.00    -0.267 OA
BRANCH   9  12
HETATM   12  C   UNK N   1      28.002  18.513   4.622  0.00  0.00     0.035 A 
HETATM   13  C   UNK N   1      27.856  19.519   5.587  0.00  0.00     0.045 A 
HETATM   14  C   UNK N   1      26.777  20.396   5.562  0.00  0.00     0.050 A 
HETATM   15  C   UNK N   1      25.816  20.269   4.550  0.00  0.00     0.016 A 
HETATM   16  C   UNK N   1      25.947  19.265   3.580  0.00  0.00     0.003 A 
HETATM   17  C   UNK N   1      27.052  18.404   3.602  0.00  0.00     0.029 A 
BRANCH  14  18
HETATM   18  C   UNK N   1      26.709  21.484   6.592  0.00  0.00     0.417 C 
HETATM   19  F   UNK N   1      25.725  22.391   6.237  0.00  0.00    -0.166 F 
HETATM   20  F   UNK N   1      26.412  20.973   7.842  0.00  0.00    -0.166 F 
HETATM   21  F   UNK N   1      27.924  22.142   6.649  0.00  0.00    -0.166 F 
ENDBRANCH  14  18
ENDBRANCH   9  12
ENDBRANCH   1   8
BRANCH   7  22
HETATM   22  N   UNK N   1      32.451  16.177   9.200  0.00  0.00    -0.355 N 
HETATM   23  H   UNK N   1      32.000  16.728   9.879  0.00  0.00     0.166 HD
BRANCH  22  24
HETATM   24  C   UNK N   1      33.212  15.062   9.615  0.00  0.00     0.049 A 
HETATM   25  C   UNK N   1      33.902  15.112  10.824  0.00  0.00     0.049 A 
HETATM   26  C   UNK N   1      34.664  14.015  11.240  0.00  0.00     0.049 A 
HETATM   27  C   UNK N   1      34.723  12.881  10.418  0.00  0.00     0.104 A 
HETATM   28  N   UNK N   1      34.044  12.850   9.240  0.00  0.00    -0.372 N 
HETATM   29  C   UNK N   1      33.294  13.905   8.828  0.00  0.00     0.117 A 
ATOM     30  HN  UNK N   1      34.099  12.018   8.655  1.00  0.00     0.164 HD
BRANCH  26  31
HETATM   31  C   UNK N   1      35.387  14.050  12.526  0.00  0.00     0.250 C 
HETATM   32  O   UNK N   1      34.954  13.442  13.493  0.00  0.00    -0.268 OA
HETATM   33  N   UNK N   1      36.537  14.746  12.643  0.00  0.00    -0.366 N 
HETATM   34  H   UNK N   1      36.945  15.442  12.077  0.00  0.00     0.159 HD
HETATM   35  H   UNK N   1      37.065  14.517  13.439  0.00  0.00     0.159 HD
ENDBRANCH  26  31
ENDBRANCH  22  24
ENDBRANCH   7  22
TORSDOF 6
ENDMDL
MODEL 7
REMARK VINA RESULT:      -8.2     16.865     20.892
REMARK  6 active torsions:
REMARK  status: ('A' for Active; 'I' for Inactive)
REMARK    1  A    between atoms: C_2  and  C_5 
REMARK    2  A    between atoms: C_10  and  N_11 
REMARK       I    between atoms: N_11  and  C_12 
REMARK    3  A    between atoms: C_12  and  C_14 
REMARK    4  A    between atoms: C_20  and  N_21 
REMARK    5  A    between atoms: N_21  and  C_22 
REMARK    6  A    between atoms: C_28  and  C_29 
REMARK       I    between atoms: C_29  and  N_31 
ROOT
HETATM    1  C   UNK N   1      26.152  26.557  -6.056  0.00  0.00     0.034 A 
HETATM    2  C   UNK N   1      27.500  26.603  -5.687  0.00  0.00     0.047 A 
HETATM    3  C   UNK N   1      25.211  27.293  -5.324  0.00  0.00     0.018 A 
HETATM    4  C   UNK N   1      25.617  28.075  -4.242  0.00  0.00     0.010 A 
HETATM    5  C   UNK N   1      26.960  28.098  -3.858  0.00  0.00    -0.035 A 
HETATM    6  C   UNK N   1      27.362  28.892  -2.665  0.00  0.00     0.050 C 
HETATM    7  C   UNK N   1      27.907  27.364  -4.593  0.00  0.00     0.039 A 
ENDROOT
BRANCH   1   8
HETATM    8  C   UNK N   1      25.711  25.526  -7.004  0.00  0.00     0.256 C 
HETATM    9  N   UNK N   1      25.577  24.253  -6.547  0.00  0.00    -0.323 N 
HETATM   10  H   UNK N   1      25.155  24.105  -5.670  0.00  0.00     0.169 HD
HETATM   11  O   UNK N   1      25.733  25.760  -8.205  0.00  0.00    -0.267 OA
BRANCH   9  12
HETATM   12  C   UNK N   1      26.024  23.130  -7.289  0.00  0.00     0.035 A 
HETATM   13  C   UNK N   1      27.336  22.666  -7.116  0.00  0.00     0.045 A 
HETATM   14  C   UNK N   1      27.739  21.432  -7.613  0.00  0.00     0.050 A 
HETATM   15  C   UNK N   1      26.812  20.635  -8.299  0.00  0.00     0.016 A 
HETATM   16  C   UNK N   1      25.498  21.088  -8.482  0.00  0.00     0.003 A 
HETATM   17  C   UNK N   1      25.098  22.322  -7.955  0.00  0.00     0.029 A 
BRANCH  14  18
HETATM   18  C   UNK N   1      29.142  20.972  -7.347  0.00  0.00     0.417 C 
HETATM   19  F   UNK N   1      29.598  21.545  -6.172  0.00  0.00    -0.166 F 
HETATM   20  F   UNK N   1      29.203  19.596  -7.223  0.00  0.00    -0.166 F 
HETATM   21  F   UNK N   1      29.962  21.369  -8.387  0.00  0.00    -0.166 F 
ENDBRANCH  14  18
ENDBRANCH   9  12
ENDBRANCH   1   8
BRANCH   7  22
HETATM   22  N   UNK N   1      29.268  27.344  -4.209  0.00  0.00    -0.355 N 
HETATM   23  H   UNK N   1      29.663  28.152  -3.809  0.00  0.00     0.166 HD
BRANCH  22  24
HETATM   24  C   UNK N   1      30.075  26.198  -4.382  0.00  0.00     0.049 A 
HETATM   25  C   UNK N   1      29.988  25.151  -3.467  0.00  0.00     0.049 A 
HETATM   26  C   UNK N   1      30.788  24.015  -3.627  0.00  0.00     0.049 A 
HETATM   27  C   UNK N   1      31.675  23.959  -4.711  0.00  0.00     0.104 A 
HETATM   28  N   UNK N   1      31.748  24.991  -5.593  0.00  0.00    -0.372 N 
HETATM   29  C   UNK N   1      30.971  26.096  -5.455  0.00  0.00     0.117 A 
ATOM     30  HN  UNK N   1      32.400  24.933  -6.375  1.00  0.00     0.164 HD
BRANCH  26  31
HETATM   31  C   UNK N   1      30.695  22.892  -2.673  0.00  0.00     0.250 C 
HETATM   32  O   UNK N   1      30.459  23.104  -1.494  0.00  0.00    -0.268 OA
HETATM   33  N   UNK N   1      30.861  21.622  -3.097  0.00  0.00    -0.366 N 
HETATM   34  H   UNK N   1      31.240  21.249  -3.926  0.00  0.00     0.159 HD
HETATM   35  H   UNK N   1      30.544  20.942  -2.461  0.00  0.00     0.159 HD
ENDBRANCH  26  31
ENDBRANCH  22  24
ENDBRANCH   7  22
TORSDOF 6
ENDMDL
MODEL 8
REMARK VINA RESULT:      -8.2      7.500     11.396
REMARK  6 active torsions:
REMARK  status: ('A' for Active; 'I' for Inactive)
REMARK    1  A    between atoms: C_2  and  C_5 
REMARK    2  A    between atoms: C_10  and  N_11 
REMARK       I    between atoms: N_11  and  C_12 
REMARK    3  A    between atoms: C_12  and  C_14 
REMARK    4  A    between atoms: C_20  and  N_21 
REMARK    5  A    between atoms: N_21  and  C_22 
REMARK    6  A    between atoms: C_28  and  C_29 
REMARK       I    between atoms: C_29  and  N_31 
ROOT
HETATM    1  C   UNK N   1      24.852  16.078   5.541  0.00  0.00     0.034 A 
HETATM    2  C   UNK N   1      23.788  16.971   5.388  0.00  0.00     0.047 A 
HETATM    3  C   UNK N   1      24.683  14.929   6.326  0.00  0.00     0.018 A 
HETATM    4  C   UNK N   1      23.457  14.672   6.941  0.00  0.00     0.010 A 
HETATM    5  C   UNK N   1      22.403  15.580   6.809  0.00  0.00    -0.035 A 
HETATM    6  C   UNK N   1      21.123  15.316   7.522  0.00  0.00     0.050 C 
HETATM    7  C   UNK N   1      22.568  16.730   6.019  0.00  0.00     0.039 A 
ENDROOT
BRANCH   1   8
HETATM    8  C   UNK N   1      26.196  16.498   5.126  0.00  0.00     0.256 C 
HETATM    9  N   UNK N   1      27.259  15.792   5.593  0.00  0.00    -0.323 N 
HETATM   10  H   UNK N   1      27.205  14.809   5.610  0.00  0.00     0.169 HD
HETATM   11  O   UNK N   1      26.354  17.597   4.611  0.00  0.00    -0.267 OA
BRANCH   9  12
HETATM   12  C   UNK N   1      28.444  16.419   6.057  0.00  0.00     0.035 A 
HETATM   13  C   UNK N   1      28.424  17.119   7.272  0.00  0.00     0.045 A 
HETATM   14  C   UNK N   1      29.600  17.525   7.893  0.00  0.00     0.050 A 
HETATM   15  C   UNK N   1      30.829  17.226   7.291  0.00  0.00     0.016 A 
HETATM   16  C   UNK N   1      30.864  16.530   6.075  0.00  0.00     0.003 A 
HETATM   17  C   UNK N   1      29.673  16.105   5.472  0.00  0.00     0.029 A 
BRANCH  14  18
HETATM   18  C   UNK N   1      29.511  18.222   9.218  0.00  0.00     0.417 C 
HETATM   19  F   UNK N   1      30.526  19.159   9.312  0.00  0.00    -0.166 F 
HETATM   20  F   UNK N   1      28.296  18.867   9.365  0.00  0.00    -0.166 F 
HETATM   21  F   UNK N   1      29.659  17.298  10.236  0.00  0.00    -0.166 F 
ENDBRANCH  14  18
ENDBRANCH   9  12
ENDBRANCH   1   8
BRANCH   7  22
HETATM   22  N   UNK N   1      21.530  17.681   5.894  0.00  0.00    -0.355 N 
HETATM   23  H   UNK N   1      21.223  18.161   6.697  0.00  0.00     0.166 HD
BRANCH  22  24
HETATM   24  C   UNK N   1      20.920  17.961   4.651  0.00  0.00     0.049 A 
HETATM   25  C   UNK N   1      21.247  19.134   3.974  0.00  0.00     0.049 A 
HETATM   26  C   UNK N   1      20.644  19.423   2.745  0.00  0.00     0.049 A 
HETATM   27  C   UNK N   1      19.707  18.521   2.222  0.00  0.00     0.104 A 
HETATM   28  N   UNK N   1      19.398  17.382   2.898  0.00  0.00    -0.372 N 
HETATM   29  C   UNK N   1      19.983  17.085   4.088  0.00  0.00     0.117 A 
ATOM     30  HN  UNK N   1      18.714  16.738   2.503  1.00  0.00     0.164 HD
BRANCH  26  31
HETATM   31  C   UNK N   1      20.993  20.655   2.010  0.00  0.00     0.250 C 
HETATM   32  O   UNK N   1      21.803  21.441   2.476  0.00  0.00    -0.268 OA
HETATM   33  N   UNK N   1      20.426  20.918   0.814  0.00  0.00    -0.366 N 
HETATM   34  H   UNK N   1      19.635  20.543   0.364  0.00  0.00     0.159 HD
HETATM   35  H   UNK N   1      20.889  21.614   0.297  0.00  0.00     0.159 HD
ENDBRANCH  26  31
ENDBRANCH  22  24
ENDBRANCH   7  22
TORSDOF 6
ENDMDL
MODEL 9
REMARK VINA RESULT:      -8.1      9.305     12.899
REMARK  6 active torsions:
REMARK  status: ('A' for Active; 'I' for Inactive)
REMARK    1  A    between atoms: C_2  and  C_5 
REMARK    2  A    between atoms: C_10  and  N_11 
REMARK       I    between atoms: N_11  and  C_12 
REMARK    3  A    between atoms: C_12  and  C_14 
REMARK    4  A    between atoms: C_20  and  N_21 
REMARK    5  A    between atoms: N_21  and  C_22 
REMARK    6  A    between atoms: C_28  and  C_29 
REMARK       I    between atoms: C_29  and  N_31 
ROOT
HETATM    1  C   UNK N   1      23.742  15.101   6.459  0.00  0.00     0.034 A 
HETATM    2  C   UNK N   1      22.961  16.186   6.049  0.00  0.00     0.047 A 
HETATM    3  C   UNK N   1      23.261  14.241   7.454  0.00  0.00     0.018 A 
HETATM    4  C   UNK N   1      22.006  14.458   8.025  0.00  0.00     0.010 A 
HETATM    5  C   UNK N   1      21.240  15.559   7.635  0.00  0.00    -0.035 A 
HETATM    6  C   UNK N   1      19.931  15.806   8.299  0.00  0.00     0.050 C 
HETATM    7  C   UNK N   1      21.718  16.421   6.633  0.00  0.00     0.039 A 
ENDROOT
BRANCH   1   8
HETATM    8  C   UNK N   1      25.153  15.050   6.056  0.00  0.00     0.256 C 
HETATM    9  N   UNK N   1      26.033  15.856   6.707  0.00  0.00    -0.323 N 
HETATM   10  H   UNK N   1      25.966  15.939   7.686  0.00  0.00     0.169 HD
HETATM   11  O   UNK N   1      25.462  14.511   5.002  0.00  0.00    -0.267 OA
BRANCH   9  12
HETATM   12  C   UNK N   1      27.044  16.583   6.027  0.00  0.00     0.035 A 
HETATM   13  C   UNK N   1      26.759  17.862   5.531  0.00  0.00     0.045 A 
HETATM   14  C   UNK N   1      27.770  18.711   5.095  0.00  0.00     0.050 A 
HETATM   15  C   UNK N   1      29.101  18.276   5.154  0.00  0.00     0.016 A 
HETATM   16  C   UNK N   1      29.400  16.998   5.645  0.00  0.00     0.003 A 
HETATM   17  C   UNK N   1      28.374  16.162   6.104  0.00  0.00     0.029 A 
BRANCH  14  18
HETATM   18  C   UNK N   1      27.402  20.088   4.625  0.00  0.00     0.417 C 
HETATM   19  F   UNK N   1      28.166  21.023   5.303  0.00  0.00    -0.166 F 
HETATM   20  F   UNK N   1      27.626  20.231   3.268  0.00  0.00    -0.166 F 
HETATM   21  F   UNK N   1      26.066  20.324   4.891  0.00  0.00    -0.166 F 
ENDBRANCH  14  18
ENDBRANCH   9  12
ENDBRANCH   1   8
BRANCH   7  22
HETATM   22  N   UNK N   1      20.978  17.560   6.240  0.00  0.00    -0.355 N 
HETATM   23  H   UNK N   1      20.712  18.216   6.925  0.00  0.00     0.166 HD
BRANCH  22  24
HETATM   24  C   UNK N   1      20.609  17.783   4.895  0.00  0.00     0.049 A 
HETATM   25  C   UNK N   1      21.024  18.948   4.253  0.00  0.00     0.049 A 
HETATM   26  C   UNK N   1      20.658  19.180   2.923  0.00  0.00     0.049 A 
HETATM   27  C   UNK N   1      19.865  18.230   2.263  0.00  0.00     0.104 A 
HETATM   28  N   UNK N   1      19.467  17.101   2.906  0.00  0.00    -0.372 N 
HETATM   29  C   UNK N   1      19.823  16.858   4.195  0.00  0.00     0.117 A 
ATOM     30  HN  UNK N   1      18.890  16.422   2.411  1.00  0.00     0.164 HD
BRANCH  26  31
HETATM   31  C   UNK N   1      21.104  20.402   2.225  0.00  0.00     0.250 C 
HETATM   32  O   UNK N   1      21.915  21.149   2.751  0.00  0.00    -0.268 OA
HETATM   33  N   UNK N   1      20.626  20.700   0.999  0.00  0.00    -0.366 N 
HETATM   34  H   UNK N   1      19.850  20.363   0.496  0.00  0.00     0.159 HD
HETATM   35  H   UNK N   1      21.150  21.380   0.520  0.00  0.00     0.159 HD
ENDBRANCH  26  31
ENDBRANCH  22  24
ENDBRANCH   7  22
TORSDOF 6
ENDMDL
