MODEL 1
REMARK VINA RESULT:      -7.5      0.000      0.000
REMARK  5 active torsions:
REMARK  status: ('A' for Active; 'I' for Inactive)
REMARK    1  A    between atoms: C_5  and  N_6 
REMARK    2  A    between atoms: N_10  and  C_13 
REMARK    3  A    between atoms: C_16  and  S_19 
REMARK    4  A    between atoms: S_19  and  C_20 
REMARK    5  A    between atoms: C_23  and  N_24 
ROOT
HETATM    1  C   UNK N   1      35.603  14.382  10.430  0.00  0.00     0.046 A 
HETATM    2  C   UNK N   1      36.933  13.923  10.464  0.00  0.00     0.031 A 
HETATM    3  C   UNK N   1      37.397  13.185  11.562  0.00  0.00     0.021 A 
HETATM    4  C   UNK N   1      36.549  12.931  12.648  0.00  0.00     0.005 A 
HETATM    5  C   UNK N   1      35.252  13.446  12.641  0.00  0.00     0.021 A 
HETATM    6  C   UNK N   1      34.779  14.143  11.538  0.00  0.00     0.031 A 
ENDROOT
BRANCH   1   7
HETATM    7  N   UNK N   1      35.067  15.020   9.263  0.00  0.00    -0.244 N 
HETATM    8  C   UNK N   1      34.663  14.377   8.134  0.00  0.00     0.266 A 
HETATM    9  O   UNK N   1      34.709  13.166   7.966  0.00  0.00    -0.267 OA
HETATM   10  C   UNK N   1      34.225  15.348   7.145  0.00  0.00     0.050 A 
HETATM   11  C   UNK N   1      33.758  15.186   5.845  0.00  0.00     0.047 A 
HETATM   12  C   UNK N   1      34.365  16.588   7.723  0.00  0.00     0.048 A 
HETATM   13  C   UNK N   1      33.417  16.343   5.124  0.00  0.00     0.026 A 
HETATM   14  C   UNK N   1      33.545  17.620   5.720  0.00  0.00     0.030 A 
HETATM   15  C   UNK N   1      34.028  17.752   7.037  0.00  0.00     0.020 A 
HETATM   16  C   UNK N   1      34.908  16.356   9.063  0.00  0.00     0.266 A 
HETATM   17  O   UNK N   1      35.170  17.220   9.888  0.00  0.00    -0.267 OA
BRANCH  13  18
HETATM   18  N   UNK N   1      32.948  16.227   3.802  0.00  0.00    -0.399 N 
HETATM   19  H   UNK N   1      33.587  16.208   3.053  0.00  0.00     0.156 HD
HETATM   20  H   UNK N   1      31.981  16.166   3.625  0.00  0.00     0.156 HD
ENDBRANCH  13  18
ENDBRANCH   1   7
BRANCH   4  21
HETATM   21  S   UNK N   1      37.112  11.877  14.000  0.00  0.00    -0.091 SA
BRANCH  21  22
HETATM   22  C   UNK N   1      36.528  12.916  15.361  0.00  0.00     0.005 A 
HETATM   23  C   UNK N   1      35.564  12.412  16.241  0.00  0.00     0.021 A 
HETATM   24  C   UNK N   1      35.139  13.177  17.332  0.00  0.00     0.030 A 
HETATM   25  C   UNK N   1      35.684  14.444  17.554  0.00  0.00     0.025 A 
HETATM   26  C   UNK N   1      36.639  14.959  16.672  0.00  0.00     0.030 A 
HETATM   27  C   UNK N   1      37.055  14.200  15.573  0.00  0.00     0.021 A 
BRANCH  25  28
HETATM   28  N   UNK N   1      35.274  15.203  18.668  0.00  0.00    -0.399 N 
HETATM   29  H   UNK N   1      35.732  15.095  19.533  0.00  0.00     0.156 HD
HETATM   30  H   UNK N   1      34.529  15.842  18.581  0.00  0.00     0.156 HD
ENDBRANCH  25  28
ENDBRANCH  21  22
ENDBRANCH   4  21
TORSDOF 5
ENDMDL
MODEL 2
REMARK VINA RESULT:      -7.2      3.039      9.125
REMARK  5 active torsions:
REMARK  status: ('A' for Active; 'I' for Inactive)
REMARK    1  A    between atoms: C_5  and  N_6 
REMARK    2  A    between atoms: N_10  and  C_13 
REMARK    3  A    between atoms: C_16  and  S_19 
REMARK    4  A    between atoms: S_19  and  C_20 
REMARK    5  A    between atoms: C_23  and  N_24 
ROOT
HETATM    1  C   UNK N   1      36.013  11.850  13.082  0.00  0.00     0.046 A 
HETATM    2  C   UNK N   1      37.201  12.306  12.482  0.00  0.00     0.031 A 
HETATM    3  C   UNK N   1      37.255  12.531  11.099  0.00  0.00     0.021 A 
HETATM    4  C   UNK N   1      36.134  12.269  10.301  0.00  0.00     0.005 A 
HETATM    5  C   UNK N   1      34.977  11.754  10.889  0.00  0.00     0.021 A 
HETATM    6  C   UNK N   1      34.911  11.567  12.263  0.00  0.00     0.031 A 
ENDROOT
BRANCH   1   7
HETATM    7  N   UNK N   1      35.892  11.742  14.506  0.00  0.00    -0.244 N 
HETATM    8  C   UNK N   1      35.417  12.716  15.329  0.00  0.00     0.266 A 
HETATM    9  O   UNK N   1      35.033  13.817  14.959  0.00  0.00    -0.267 OA
HETATM   10  C   UNK N   1      35.489  12.271  16.711  0.00  0.00     0.050 A 
HETATM   11  C   UNK N   1      35.153  12.910  17.899  0.00  0.00     0.047 A 
HETATM   12  C   UNK N   1      36.006  10.997  16.687  0.00  0.00     0.048 A 
HETATM   13  C   UNK N   1      35.351  12.207  19.099  0.00  0.00     0.026 A 
HETATM   14  C   UNK N   1      35.869  10.890  19.078  0.00  0.00     0.030 A 
HETATM   15  C   UNK N   1      36.205  10.271  17.858  0.00  0.00     0.020 A 
HETATM   16  C   UNK N   1      36.262  10.685  15.279  0.00  0.00     0.266 A 
HETATM   17  O   UNK N   1      36.723   9.637  14.851  0.00  0.00    -0.267 OA
BRANCH  13  18
HETATM   18  N   UNK N   1      35.034  12.818  20.327  0.00  0.00    -0.399 N 
HETATM   19  H   UNK N   1      35.019  13.800  20.399  0.00  0.00     0.156 HD
HETATM   20  H   UNK N   1      34.826  12.264  21.114  0.00  0.00     0.156 HD
ENDBRANCH  13  18
ENDBRANCH   1   7
BRANCH   4  21
HETATM   21  S   UNK N   1      36.168  12.678   8.544  0.00  0.00    -0.091 SA
BRANCH  21  22
HETATM   22  C   UNK N   1      35.064  14.110   8.619  0.00  0.00     0.005 A 
HETATM   23  C   UNK N   1      33.802  14.033   8.022  0.00  0.00     0.021 A 
HETATM   24  C   UNK N   1      32.912  15.108   8.116  0.00  0.00     0.030 A 
HETATM   25  C   UNK N   1      33.277  16.260   8.817  0.00  0.00     0.025 A 
HETATM   26  C   UNK N   1      34.542  16.349   9.406  0.00  0.00     0.030 A 
HETATM   27  C   UNK N   1      35.437  15.280   9.300  0.00  0.00     0.021 A 
BRANCH  25  28
HETATM   28  N   UNK N   1      32.370  17.332   8.932  0.00  0.00    -0.399 N 
HETATM   29  H   UNK N   1      31.964  17.540   9.804  0.00  0.00     0.156 HD
HETATM   30  H   UNK N   1      32.144  17.872   8.141  0.00  0.00     0.156 HD
ENDBRANCH  25  28
ENDBRANCH  21  22
ENDBRANCH   4  21
TORSDOF 5
ENDMDL
MODEL 3
REMARK VINA RESULT:      -7.1      2.448      3.880
REMARK  5 active torsions:
REMARK  status: ('A' for Active; 'I' for Inactive)
REMARK    1  A    between atoms: C_5  and  N_6 
REMARK    2  A    between atoms: N_10  and  C_13 
REMARK    3  A    between atoms: C_16  and  S_19 
REMARK    4  A    between atoms: S_19  and  C_20 
REMARK    5  A    between atoms: C_23  and  N_24 
ROOT
HETATM    1  C   UNK N   1      35.601  12.200  12.723  0.00  0.00     0.046 A 
HETATM    2  C   UNK N   1      34.521  11.548  13.346  0.00  0.00     0.031 A 
HETATM    3  C   UNK N   1      34.746  10.671  14.416  0.00  0.00     0.021 A 
HETATM    4  C   UNK N   1      36.053  10.411  14.848  0.00  0.00     0.005 A 
HETATM    5  C   UNK N   1      37.128  11.008  14.185  0.00  0.00     0.021 A 
HETATM    6  C   UNK N   1      36.902  11.906  13.151  0.00  0.00     0.031 A 
ENDROOT
BRANCH   1   7
HETATM    7  N   UNK N   1      35.386  13.201  11.719  0.00  0.00    -0.244 N 
HETATM    8  C   UNK N   1      35.565  14.539  11.896  0.00  0.00     0.266 A 
HETATM    9  O   UNK N   1      35.929  15.063  12.939  0.00  0.00    -0.267 OA
HETATM   10  C   UNK N   1      35.204  15.248  10.679  0.00  0.00     0.050 A 
HETATM   11  C   UNK N   1      35.189  16.605  10.379  0.00  0.00     0.047 A 
HETATM   12  C   UNK N   1      34.820  14.293   9.767  0.00  0.00     0.048 A 
HETATM   13  C   UNK N   1      34.773  16.986   9.092  0.00  0.00     0.026 A 
HETATM   14  C   UNK N   1      34.391  16.007   8.146  0.00  0.00     0.030 A 
HETATM   15  C   UNK N   1      34.411  14.638   8.482  0.00  0.00     0.020 A 
HETATM   16  C   UNK N   1      34.936  13.003  10.451  0.00  0.00     0.266 A 
HETATM   17  O   UNK N   1      34.683  11.910   9.965  0.00  0.00    -0.267 OA
BRANCH  13  18
HETATM   18  N   UNK N   1      34.733  18.350   8.747  0.00  0.00    -0.399 N 
HETATM   19  H   UNK N   1      35.258  18.681   7.983  0.00  0.00     0.156 HD
HETATM   20  H   UNK N   1      34.178  18.975   9.270  0.00  0.00     0.156 HD
ENDBRANCH  13  18
ENDBRANCH   1   7
BRANCH   4  21
HETATM   21  S   UNK N   1      36.330   9.380  16.303  0.00  0.00    -0.091 SA
BRANCH  21  22
HETATM   22  C   UNK N   1      35.922  10.626  17.550  0.00  0.00     0.005 A 
HETATM   23  C   UNK N   1      35.480  11.887  17.138  0.00  0.00     0.021 A 
HETATM   24  C   UNK N   1      35.107  12.847  18.085  0.00  0.00     0.030 A 
HETATM   25  C   UNK N   1      35.164  12.544  19.448  0.00  0.00     0.025 A 
HETATM   26  C   UNK N   1      35.615  11.289  19.867  0.00  0.00     0.030 A 
HETATM   27  C   UNK N   1      36.002  10.335  18.921  0.00  0.00     0.021 A 
BRANCH  25  28
HETATM   28  N   UNK N   1      34.763  13.502  20.400  0.00  0.00    -0.399 N 
HETATM   29  H   UNK N   1      35.232  13.563  21.264  0.00  0.00     0.156 HD
HETATM   30  H   UNK N   1      34.015  14.110  20.202  0.00  0.00     0.156 HD
ENDBRANCH  25  28
ENDBRANCH  21  22
ENDBRANCH   4  21
TORSDOF 5
ENDMDL
MODEL 4
REMARK VINA RESULT:      -7.0      8.945     12.394
REMARK  5 active torsions:
REMARK  status: ('A' for Active; 'I' for Inactive)
REMARK    1  A    between atoms: C_5  and  N_6 
REMARK    2  A    between atoms: N_10  and  C_13 
REMARK    3  A    between atoms: C_16  and  S_19 
REMARK    4  A    between atoms: S_19  and  C_20 
REMARK    5  A    between atoms: C_23  and  N_24 
ROOT
HETATM    1  C   UNK N   1      26.681  18.284   4.972  0.00  0.00     0.046 A 
HETATM    2  C   UNK N   1      27.384  17.179   4.460  0.00  0.00     0.031 A 
HETATM    3  C   UNK N   1      28.593  16.777   5.045  0.00  0.00     0.021 A 
HETATM    4  C   UNK N   1      29.125  17.495   6.123  0.00  0.00     0.005 A 
HETATM    5  C   UNK N   1      28.459  18.632   6.587  0.00  0.00     0.021 A 
HETATM    6  C   UNK N   1      27.243  19.008   6.033  0.00  0.00     0.031 A 
ENDROOT
BRANCH   1   7
HETATM    7  N   UNK N   1      25.380  18.632   4.479  0.00  0.00    -0.244 N 
HETATM    8  C   UNK N   1      25.109  19.681   3.655  0.00  0.00     0.266 A 
HETATM    9  O   UNK N   1      25.943  20.468   3.229  0.00  0.00    -0.267 OA
HETATM   10  C   UNK N   1      23.679  19.754   3.406  0.00  0.00     0.050 A 
HETATM   11  C   UNK N   1      22.922  20.652   2.662  0.00  0.00     0.047 A 
HETATM   12  C   UNK N   1      23.107  18.709   4.093  0.00  0.00     0.048 A 
HETATM   13  C   UNK N   1      21.531  20.459   2.622  0.00  0.00     0.026 A 
HETATM   14  C   UNK N   1      20.939  19.378   3.315  0.00  0.00     0.030 A 
HETATM   15  C   UNK N   1      21.733  18.487   4.066  0.00  0.00     0.020 A 
HETATM   16  C   UNK N   1      24.203  18.016   4.773  0.00  0.00     0.266 A 
HETATM   17  O   UNK N   1      24.093  17.029   5.486  0.00  0.00    -0.267 OA
BRANCH  13  18
HETATM   18  N   UNK N   1      20.724  21.351   1.889  0.00  0.00    -0.399 N 
HETATM   19  H   UNK N   1      19.746  21.331   1.996  0.00  0.00     0.156 HD
HETATM   20  H   UNK N   1      21.139  21.995   1.270  0.00  0.00     0.156 HD
ENDBRANCH  13  18
ENDBRANCH   1   7
BRANCH   4  21
HETATM   21  S   UNK N   1      30.614  16.901   6.951  0.00  0.00    -0.091 SA
BRANCH  21  22
HETATM   22  C   UNK N   1      31.542  16.453   5.464  0.00  0.00     0.005 A 
HETATM   23  C   UNK N   1      32.002  17.464   4.615  0.00  0.00     0.021 A 
HETATM   24  C   UNK N   1      32.769  17.144   3.489  0.00  0.00     0.030 A 
HETATM   25  C   UNK N   1      33.088  15.811   3.216  0.00  0.00     0.025 A 
HETATM   26  C   UNK N   1      32.622  14.794   4.055  0.00  0.00     0.030 A 
HETATM   27  C   UNK N   1      31.844  15.113   5.173  0.00  0.00     0.021 A 
BRANCH  25  28
HETATM   28  N   UNK N   1      33.882  15.491   2.097  0.00  0.00    -0.399 N 
HETATM   29  H   UNK N   1      33.469  15.089   1.300  0.00  0.00     0.156 HD
HETATM   30  H   UNK N   1      34.850  15.670   2.113  0.00  0.00     0.156 HD
ENDBRANCH  25  28
ENDBRANCH  21  22
ENDBRANCH   4  21
TORSDOF 5
ENDMDL
MODEL 5
REMARK VINA RESULT:      -7.0     12.988     14.844
REMARK  5 active torsions:
REMARK  status: ('A' for Active; 'I' for Inactive)
REMARK    1  A    between atoms: C_5  and  N_6 
REMARK    2  A    between atoms: N_10  and  C_13 
REMARK    3  A    between atoms: C_16  and  S_19 
REMARK    4  A    between atoms: S_19  and  C_20 
REMARK    5  A    between atoms: C_23  and  N_24 
ROOT
HETATM    1  C   UNK N   1      20.890  16.663   6.395  0.00  0.00     0.046 A 
HETATM    2  C   UNK N   1      20.918  15.270   6.201  0.00  0.00     0.031 A 
HETATM    3  C   UNK N   1      20.614  14.402   7.259  0.00  0.00     0.021 A 
HETATM    4  C   UNK N   1      20.314  14.918   8.526  0.00  0.00     0.005 A 
HETATM    5  C   UNK N   1      20.352  16.298   8.734  0.00  0.00     0.021 A 
HETATM    6  C   UNK N   1      20.615  17.159   7.677  0.00  0.00     0.031 A 
ENDROOT
BRANCH   1   7
HETATM    7  N   UNK N   1      21.064  17.571   5.299  0.00  0.00    -0.244 N 
HETATM    8  C   UNK N   1      20.161  17.779   4.303  0.00  0.00     0.266 A 
HETATM    9  O   UNK N   1      19.080  17.214   4.210  0.00  0.00    -0.267 OA
HETATM   10  C   UNK N   1      20.699  18.728   3.342  0.00  0.00     0.050 A 
HETATM   11  C   UNK N   1      20.174  19.231   2.156  0.00  0.00     0.047 A 
HETATM   12  C   UNK N   1      21.943  19.091   3.802  0.00  0.00     0.048 A 
HETATM   13  C   UNK N   1      20.956  20.144   1.430  0.00  0.00     0.026 A 
HETATM   14  C   UNK N   1      22.230  20.532   1.907  0.00  0.00     0.030 A 
HETATM   15  C   UNK N   1      22.738  19.999   3.109  0.00  0.00     0.020 A 
HETATM   16  C   UNK N   1      22.157  18.339   5.040  0.00  0.00     0.266 A 
HETATM   17  O   UNK N   1      23.153  18.393   5.748  0.00  0.00    -0.267 OA
BRANCH  13  18
HETATM   18  N   UNK N   1      20.469  20.672   0.219  0.00  0.00    -0.399 N 
HETATM   19  H   UNK N   1      20.870  21.486  -0.161  0.00  0.00     0.156 HD
HETATM   20  H   UNK N   1      19.725  20.225  -0.249  0.00  0.00     0.156 HD
ENDBRANCH  13  18
ENDBRANCH   1   7
BRANCH   4  21
HETATM   21  S   UNK N   1      19.802  13.804   9.851  0.00  0.00    -0.091 SA
BRANCH  21  22
HETATM   22  C   UNK N   1      21.438  13.133  10.233  0.00  0.00     0.005 A 
HETATM   23  C   UNK N   1      22.538  13.537   9.471  0.00  0.00     0.021 A 
HETATM   24  C   UNK N   1      23.821  13.074   9.785  0.00  0.00     0.030 A 
HETATM   25  C   UNK N   1      24.008  12.213  10.869  0.00  0.00     0.025 A 
HETATM   26  C   UNK N   1      22.911  11.795  11.628  0.00  0.00     0.030 A 
HETATM   27  C   UNK N   1      21.627  12.247  11.306  0.00  0.00     0.021 A 
BRANCH  25  28
HETATM   28  N   UNK N   1      25.303  11.767  11.199  0.00  0.00    -0.399 N 
HETATM   29  H   UNK N   1      25.431  11.134  11.943  0.00  0.00     0.156 HD
HETATM   30  H   UNK N   1      26.080  12.089  10.688  0.00  0.00     0.156 HD
ENDBRANCH  25  28
ENDBRANCH  21  22
ENDBRANCH   4  21
TORSDOF 5
ENDMDL
MODEL 6
REMARK VINA RESULT:      -6.8     16.716     20.577
REMARK  5 active torsions:
REMARK  status: ('A' for Active; 'I' for Inactive)
REMARK    1  A    between atoms: C_5  and  N_6 
REMARK    2  A    between atoms: N_10  and  C_13 
REMARK    3  A    between atoms: C_16  and  S_19 
REMARK    4  A    between atoms: S_19  and  C_20 
REMARK    5  A    between atoms: C_23  and  N_24 
ROOT
HETATM    1  C   UNK N   1      28.738  23.401  -4.858  0.00  0.00     0.046 A 
HETATM    2  C   UNK N   1      28.476  23.890  -6.151  0.00  0.00     0.031 A 
HETATM    3  C   UNK N   1      27.379  24.733  -6.379  0.00  0.00     0.021 A 
HETATM    4  C   UNK N   1      26.517  25.065  -5.326  0.00  0.00     0.005 A 
HETATM    5  C   UNK N   1      26.740  24.524  -4.058  0.00  0.00     0.021 A 
HETATM    6  C   UNK N   1      27.848  23.720  -3.824  0.00  0.00     0.031 A 
ENDROOT
BRANCH   1   7
HETATM    7  N   UNK N   1      29.926  22.650  -4.574  0.00  0.00    -0.244 N 
HETATM    8  C   UNK N   1      30.291  21.496  -5.196  0.00  0.00     0.266 A 
HETATM    9  O   UNK N   1      29.649  20.946  -6.080  0.00  0.00    -0.267 OA
HETATM   10  C   UNK N   1      31.524  20.992  -4.614  0.00  0.00     0.050 A 
HETATM   11  C   UNK N   1      32.268  19.849  -4.887  0.00  0.00     0.047 A 
HETATM   12  C   UNK N   1      31.891  21.887  -3.637  0.00  0.00     0.048 A 
HETATM   13  C   UNK N   1      33.431  19.630  -4.130  0.00  0.00     0.026 A 
HETATM   14  C   UNK N   1      33.821  20.555  -3.134  0.00  0.00     0.030 A 
HETATM   15  C   UNK N   1      33.043  21.702  -2.876  0.00  0.00     0.020 A 
HETATM   16  C   UNK N   1      30.859  22.926  -3.623  0.00  0.00     0.266 A 
HETATM   17  O   UNK N   1      30.835  23.901  -2.887  0.00  0.00    -0.267 OA
BRANCH  13  18
HETATM   18  N   UNK N   1      34.209  18.480  -4.366  0.00  0.00    -0.399 N 
HETATM   19  H   UNK N   1      35.158  18.570  -4.611  0.00  0.00     0.156 HD
HETATM   20  H   UNK N   1      33.804  17.586  -4.284  0.00  0.00     0.156 HD
ENDBRANCH  13  18
ENDBRANCH   1   7
BRANCH   4  21
HETATM   21  S   UNK N   1      25.181  26.247  -5.597  0.00  0.00    -0.091 SA
BRANCH  21  22
HETATM   22  C   UNK N   1      26.080  27.732  -5.085  0.00  0.00     0.005 A 
HETATM   23  C   UNK N   1      25.883  28.242  -3.798  0.00  0.00     0.021 A 
HETATM   24  C   UNK N   1      26.609  29.356  -3.363  0.00  0.00     0.030 A 
HETATM   25  C   UNK N   1      27.543  29.957  -4.210  0.00  0.00     0.025 A 
HETATM   26  C   UNK N   1      27.737  29.460  -5.502  0.00  0.00     0.030 A 
HETATM   27  C   UNK N   1      27.002  28.355  -5.943  0.00  0.00     0.021 A 
BRANCH  25  28
HETATM   28  N   UNK N   1      28.292  31.062  -3.762  0.00  0.00    -0.399 N 
HETATM   29  H   UNK N   1      28.905  30.964  -2.997  0.00  0.00     0.156 HD
HETATM   30  H   UNK N   1      28.203  31.933  -4.212  0.00  0.00     0.156 HD
ENDBRANCH  25  28
ENDBRANCH  21  22
ENDBRANCH   4  21
TORSDOF 5
ENDMDL
MODEL 7
REMARK VINA RESULT:      -6.7      8.236     11.944
REMARK  5 active torsions:
REMARK  status: ('A' for Active; 'I' for Inactive)
REMARK    1  A    between atoms: C_5  and  N_6 
REMARK    2  A    between atoms: N_10  and  C_13 
REMARK    3  A    between atoms: C_16  and  S_19 
REMARK    4  A    between atoms: S_19  and  C_20 
REMARK    5  A    between atoms: C_23  and  N_24 
ROOT
HETATM    1  C   UNK N   1      27.965  17.052   5.716  0.00  0.00     0.046 A 
HETATM    2  C   UNK N   1      27.329  15.818   5.486  0.00  0.00     0.031 A 
HETATM    3  C   UNK N   1      26.042  15.778   4.931  0.00  0.00     0.021 A 
HETATM    4  C   UNK N   1      25.367  16.969   4.636  0.00  0.00     0.005 A 
HETATM    5  C   UNK N   1      25.972  18.193   4.927  0.00  0.00     0.021 A 
HETATM    6  C   UNK N   1      27.262  18.233   5.440  0.00  0.00     0.031 A 
ENDROOT
BRANCH   1   7
HETATM    7  N   UNK N   1      29.328  17.117   6.154  0.00  0.00    -0.244 N 
HETATM    8  C   UNK N   1      29.732  17.174   7.452  0.00  0.00     0.266 A 
HETATM    9  O   UNK N   1      28.981  17.181   8.418  0.00  0.00    -0.267 OA
HETATM   10  C   UNK N   1      31.181  17.280   7.512  0.00  0.00     0.050 A 
HETATM   11  C   UNK N   1      32.048  17.394   8.593  0.00  0.00     0.047 A 
HETATM   12  C   UNK N   1      31.629  17.270   6.212  0.00  0.00     0.048 A 
HETATM   13  C   UNK N   1      33.423  17.490   8.321  0.00  0.00     0.026 A 
HETATM   14  C   UNK N   1      33.891  17.465   6.986  0.00  0.00     0.030 A 
HETATM   15  C   UNK N   1      32.986  17.355   5.911  0.00  0.00     0.020 A 
HETATM   16  C   UNK N   1      30.437  17.173   5.368  0.00  0.00     0.266 A 
HETATM   17  O   UNK N   1      30.427  17.135   4.146  0.00  0.00    -0.267 OA
BRANCH  13  18
HETATM   18  N   UNK N   1      34.337  17.617   9.384  0.00  0.00    -0.399 N 
HETATM   19  H   UNK N   1      34.356  18.440   9.922  0.00  0.00     0.156 HD
HETATM   20  H   UNK N   1      34.958  16.880   9.590  0.00  0.00     0.156 HD
ENDBRANCH  13  18
ENDBRANCH   1   7
BRANCH   4  21
HETATM   21  S   UNK N   1      23.764  16.912   3.809  0.00  0.00    -0.091 SA
BRANCH  21  22
HETATM   22  C   UNK N   1      22.740  16.808   5.297  0.00  0.00     0.005 A 
HETATM   23  C   UNK N   1      21.925  17.889   5.643  0.00  0.00     0.021 A 
HETATM   24  C   UNK N   1      21.084  17.809   6.758  0.00  0.00     0.030 A 
HETATM   25  C   UNK N   1      21.047  16.641   7.524  0.00  0.00     0.025 A 
HETATM   26  C   UNK N   1      21.868  15.560   7.191  0.00  0.00     0.030 A 
HETATM   27  C   UNK N   1      22.719  15.645   6.084  0.00  0.00     0.021 A 
BRANCH  25  28
HETATM   28  N   UNK N   1      20.181  16.551   8.632  0.00  0.00    -0.399 N 
HETATM   29  H   UNK N   1      19.293  16.975   8.598  0.00  0.00     0.156 HD
HETATM   30  H   UNK N   1      20.464  16.065   9.440  0.00  0.00     0.156 HD
ENDBRANCH  25  28
ENDBRANCH  21  22
ENDBRANCH   4  21
TORSDOF 5
ENDMDL
MODEL 8
REMARK VINA RESULT:      -6.7      3.290      4.923
REMARK  5 active torsions:
REMARK  status: ('A' for Active; 'I' for Inactive)
REMARK    1  A    between atoms: C_5  and  N_6 
REMARK    2  A    between atoms: N_10  and  C_13 
REMARK    3  A    between atoms: C_16  and  S_19 
REMARK    4  A    between atoms: S_19  and  C_20 
REMARK    5  A    between atoms: C_23  and  N_24 
ROOT
HETATM    1  C   UNK N   1      35.611  11.815  14.163  0.00  0.00     0.046 A 
HETATM    2  C   UNK N   1      36.863  11.249  14.468  0.00  0.00     0.031 A 
HETATM    3  C   UNK N   1      36.957  10.189  15.380  0.00  0.00     0.021 A 
HETATM    4  C   UNK N   1      35.808   9.709  16.020  0.00  0.00     0.005 A 
HETATM    5  C   UNK N   1      34.576  10.315  15.767  0.00  0.00     0.021 A 
HETATM    6  C   UNK N   1      34.477  11.340  14.835  0.00  0.00     0.031 A 
ENDROOT
BRANCH   1   7
HETATM    7  N   UNK N   1      35.472  12.805  13.137  0.00  0.00    -0.244 N 
HETATM    8  C   UNK N   1      34.978  12.578  11.889  0.00  0.00     0.266 A 
HETATM    9  O   UNK N   1      34.590  11.493  11.479  0.00  0.00    -0.267 OA
HETATM   10  C   UNK N   1      35.035  13.802  11.107  0.00  0.00     0.050 A 
HETATM   11  C   UNK N   1      34.678  14.066   9.789  0.00  0.00     0.047 A 
HETATM   12  C   UNK N   1      35.563  14.769  11.929  0.00  0.00     0.048 A 
HETATM   13  C   UNK N   1      34.865  15.373   9.310  0.00  0.00     0.026 A 
HETATM   14  C   UNK N   1      35.394  16.376  10.157  0.00  0.00     0.030 A 
HETATM   15  C   UNK N   1      35.753  16.076  11.486  0.00  0.00     0.020 A 
HETATM   16  C   UNK N   1      35.840  14.113  13.209  0.00  0.00     0.266 A 
HETATM   17  O   UNK N   1      36.316  14.649  14.199  0.00  0.00    -0.267 OA
BRANCH  13  18
HETATM   18  N   UNK N   1      34.526  15.684   7.979  0.00  0.00    -0.399 N 
HETATM   19  H   UNK N   1      35.129  15.427   7.245  0.00  0.00     0.156 HD
HETATM   20  H   UNK N   1      33.685  16.157   7.783  0.00  0.00     0.156 HD
ENDBRANCH  13  18
ENDBRANCH   1   7
BRANCH   4  21
HETATM   21  S   UNK N   1      35.916   8.265  17.097  0.00  0.00    -0.091 SA
BRANCH  21  22
HETATM   22  C   UNK N   1      35.238   9.036  18.586  0.00  0.00     0.005 A 
HETATM   23  C   UNK N   1      35.899  10.131  19.152  0.00  0.00     0.021 A 
HETATM   24  C   UNK N   1      35.362  10.777  20.271  0.00  0.00     0.030 A 
HETATM   25  C   UNK N   1      34.155  10.337  20.821  0.00  0.00     0.025 A 
HETATM   26  C   UNK N   1      33.494   9.237  20.267  0.00  0.00     0.030 A 
HETATM   27  C   UNK N   1      34.038   8.582  19.157  0.00  0.00     0.021 A 
BRANCH  25  28
HETATM   28  N   UNK N   1      33.602  11.005  21.931  0.00  0.00    -0.399 N 
HETATM   29  H   UNK N   1      33.403  11.967  21.878  0.00  0.00     0.156 HD
HETATM   30  H   UNK N   1      33.415  10.509  22.761  0.00  0.00     0.156 HD
ENDBRANCH  25  28
ENDBRANCH  21  22
ENDBRANCH   4  21
TORSDOF 5
ENDMDL
MODEL 9
REMARK VINA RESULT:      -6.6     12.585     14.635
REMARK  5 active torsions:
REMARK  status: ('A' for Active; 'I' for Inactive)
REMARK    1  A    between atoms: C_5  and  N_6 
REMARK    2  A    between atoms: N_10  and  C_13 
REMARK    3  A    between atoms: C_16  and  S_19 
REMARK    4  A    between atoms: S_19  and  C_20 
REMARK    5  A    between atoms: C_23  and  N_24 
ROOT
HETATM    1  C   UNK N   1      21.788  15.593   4.875  0.00  0.00     0.046 A 
HETATM    2  C   UNK N   1      22.695  14.598   4.466  0.00  0.00     0.031 A 
HETATM    3  C   UNK N   1      22.676  13.332   5.069  0.00  0.00     0.021 A 
HETATM    4  C   UNK N   1      21.775  13.062   6.108  0.00  0.00     0.005 A 
HETATM    5  C   UNK N   1      20.922  14.072   6.557  0.00  0.00     0.021 A 
HETATM    6  C   UNK N   1      20.915  15.313   5.935  0.00  0.00     0.031 A 
ENDROOT
BRANCH   1   7
HETATM    7  N   UNK N   1      21.698  16.846   4.185  0.00  0.00    -0.244 N 
HETATM    8  C   UNK N   1      20.788  17.145   3.219  0.00  0.00     0.266 A 
HETATM    9  O   UNK N   1      19.927  16.378   2.809  0.00  0.00    -0.267 OA
HETATM   10  C   UNK N   1      21.030  18.485   2.712  0.00  0.00     0.050 A 
HETATM   11  C   UNK N   1      20.395  19.219   1.716  0.00  0.00     0.047 A 
HETATM   12  C   UNK N   1      22.102  18.983   3.415  0.00  0.00     0.048 A 
HETATM   13  C   UNK N   1      20.877  20.510   1.445  0.00  0.00     0.026 A 
HETATM   14  C   UNK N   1      21.970  21.032   2.176  0.00  0.00     0.030 A 
HETATM   15  C   UNK N   1      22.598  20.262   3.176  0.00  0.00     0.020 A 
HETATM   16  C   UNK N   1      22.514  17.924   4.338  0.00  0.00     0.266 A 
HETATM   17  O   UNK N   1      23.438  17.989   5.136  0.00  0.00    -0.267 OA
BRANCH  13  18
HETATM   18  N   UNK N   1      20.271  21.285   0.438  0.00  0.00    -0.399 N 
HETATM   19  H   UNK N   1      20.804  21.609  -0.322  0.00  0.00     0.156 HD
HETATM   20  H   UNK N   1      19.311  21.501   0.494  0.00  0.00     0.156 HD
ENDBRANCH  13  18
ENDBRANCH   1   7
BRANCH   4  21
HETATM   21  S   UNK N   1      21.669  11.397   6.794  0.00  0.00    -0.091 SA
BRANCH  21  22
HETATM   22  C   UNK N   1      22.411  11.763   8.403  0.00  0.00     0.005 A 
HETATM   23  C   UNK N   1      21.598  12.231   9.441  0.00  0.00     0.021 A 
HETATM   24  C   UNK N   1      22.140  12.467  10.709  0.00  0.00     0.030 A 
HETATM   25  C   UNK N   1      23.496  12.226  10.946  0.00  0.00     0.025 A 
HETATM   26  C   UNK N   1      24.317  11.770   9.911  0.00  0.00     0.030 A 
HETATM   27  C   UNK N   1      23.778  11.546   8.639  0.00  0.00     0.021 A 
BRANCH  25  28
HETATM   28  N   UNK N   1      24.035  12.440  12.230  0.00  0.00    -0.399 N 
HETATM   29  H   UNK N   1      23.745  13.215  12.762  0.00  0.00     0.156 HD
HETATM   30  H   UNK N   1      24.703  11.814  12.594  0.00  0.00     0.156 HD
ENDBRANCH  25  28
ENDBRANCH  21  22
ENDBRANCH   4  21
TORSDOF 5
ENDMDL
