MODEL 1
REMARK VINA RESULT:      -6.3      0.000      0.000
REMARK  2 active torsions:
REMARK  status: ('A' for Active; 'I' for Inactive)
REMARK    1  A    between atoms: C_1  and  N_11 
REMARK    2  A    between atoms: N_7  and  C_16 
ROOT
HETATM    1  C   UNK N   1      36.024  14.486  12.095  0.00  0.00     0.028 A 
HETATM    2  C   UNK N   1      35.235  13.330  11.923  0.00  0.00     0.060 A 
HETATM    3  C   UNK N   1      34.917  12.594  13.062  0.00  0.00     0.062 A 
HETATM    4  C   UNK N   1      35.342  12.959  14.298  0.00  0.00     0.067 A 
HETATM    5  C   UNK N   1      36.123  14.096  14.505  0.00  0.00     0.035 A 
HETATM    6  N   UNK N   1      34.885  12.067  15.195  0.00  0.00    -0.306 N 
HETATM    7  C   UNK N   1      34.179  11.160  14.472  0.00  0.00     0.189 A 
HETATM    8  N   UNK N   1      34.185  11.468  13.145  0.00  0.00    -0.350 N 
ATOM      9  HN  UNK N   1      33.736  10.958  12.384  1.00  0.00     0.166 HD
HETATM   10  C   UNK N   1      36.466  14.866  13.383  0.00  0.00     0.031 A 
ENDROOT
BRANCH   6  11
HETATM   11  C   UNK N   1      35.093  12.062  16.622  0.00  0.00     0.041 A 
HETATM   12  C   UNK N   1      35.463  10.879  17.278  0.00  0.00     0.036 A 
HETATM   13  C   UNK N   1      35.667  10.860  18.656  0.00  0.00    -0.060 A 
HETATM   14  C   UNK N   1      36.059   9.592  19.324  0.00  0.00     0.048 C 
HETATM   15  C   UNK N   1      35.502  12.030  19.400  0.00  0.00     0.007 A 
HETATM   16  C   UNK N   1      35.133  13.218  18.759  0.00  0.00     0.003 A 
HETATM   17  C   UNK N   1      34.929  13.236  17.375  0.00  0.00     0.030 A 
ENDBRANCH   6  11
BRANCH   1  18
HETATM   18  N   UNK N   1      36.377  15.270  10.979  0.00  0.00    -0.399 N 
HETATM   19  H   UNK N   1      37.275  15.668  10.922  0.00  0.00     0.156 HD
HETATM   20  H   UNK N   1      35.725  15.419  10.257  0.00  0.00     0.156 HD
ENDBRANCH   1  18
TORSDOF 2
ENDMDL
MODEL 2
REMARK VINA RESULT:      -6.3      9.704     11.872
REMARK  2 active torsions:
REMARK  status: ('A' for Active; 'I' for Inactive)
REMARK    1  A    between atoms: C_1  and  N_11 
REMARK    2  A    between atoms: N_7  and  C_16 
ROOT
HETATM    1  C   UNK N   1      28.767  18.084   8.506  0.00  0.00     0.028 A 
HETATM    2  C   UNK N   1      30.017  18.190   9.151  0.00  0.00     0.060 A 
HETATM    3  C   UNK N   1      31.146  17.802   8.433  0.00  0.00     0.062 A 
HETATM    4  C   UNK N   1      31.066  17.338   7.160  0.00  0.00     0.067 A 
HETATM    5  C   UNK N   1      29.847  17.220   6.491  0.00  0.00     0.035 A 
HETATM    6  N   UNK N   1      32.305  17.044   6.726  0.00  0.00    -0.306 N 
HETATM    7  C   UNK N   1      33.128  17.342   7.765  0.00  0.00     0.189 A 
HETATM    8  N   UNK N   1      32.430  17.814   8.835  0.00  0.00    -0.350 N 
ATOM      9  HN  UNK N   1      32.799  18.110   9.739  1.00  0.00     0.166 HD
HETATM   10  C   UNK N   1      28.685  17.601   7.181  0.00  0.00     0.031 A 
ENDROOT
BRANCH   6  11
HETATM   11  C   UNK N   1      32.691  16.525   5.438  0.00  0.00     0.041 A 
HETATM   12  C   UNK N   1      33.167  15.210   5.319  0.00  0.00     0.036 A 
HETATM   13  C   UNK N   1      33.544  14.696   4.080  0.00  0.00    -0.060 A 
HETATM   14  C   UNK N   1      34.045  13.301   3.985  0.00  0.00     0.048 C 
HETATM   15  C   UNK N   1      33.448  15.493   2.939  0.00  0.00     0.007 A 
HETATM   16  C   UNK N   1      32.975  16.806   3.041  0.00  0.00     0.003 A 
HETATM   17  C   UNK N   1      32.597  17.322   4.286  0.00  0.00     0.030 A 
ENDBRANCH   6  11
BRANCH   1  18
HETATM   18  N   UNK N   1      27.592  18.462   9.183  0.00  0.00    -0.399 N 
HETATM   19  H   UNK N   1      26.720  18.400   8.729  0.00  0.00     0.156 HD
HETATM   20  H   UNK N   1      27.641  18.787  10.111  0.00  0.00     0.156 HD
ENDBRANCH   1  18
TORSDOF 2
ENDMDL
MODEL 3
REMARK VINA RESULT:      -6.2     10.833     13.324
REMARK  2 active torsions:
REMARK  status: ('A' for Active; 'I' for Inactive)
REMARK    1  A    between atoms: C_1  and  N_11 
REMARK    2  A    between atoms: N_7  and  C_16 
ROOT
HETATM    1  C   UNK N   1      25.873  19.786   3.502  0.00  0.00     0.028 A 
HETATM    2  C   UNK N   1      25.355  18.578   4.015  0.00  0.00     0.060 A 
HETATM    3  C   UNK N   1      26.100  17.923   4.994  0.00  0.00     0.062 A 
HETATM    4  C   UNK N   1      27.281  18.413   5.449  0.00  0.00     0.067 A 
HETATM    5  C   UNK N   1      27.824  19.603   4.964  0.00  0.00     0.035 A 
HETATM    6  N   UNK N   1      27.768  17.575   6.382  0.00  0.00    -0.306 N 
HETATM    7  C   UNK N   1      26.854  16.575   6.477  0.00  0.00     0.189 A 
HETATM    8  N   UNK N   1      25.810  16.770   5.624  0.00  0.00    -0.350 N 
ATOM      9  HN  UNK N   1      24.992  16.175   5.493  1.00  0.00     0.166 HD
HETATM   10  C   UNK N   1      27.104  20.294   3.977  0.00  0.00     0.031 A 
ENDROOT
BRANCH   6  11
HETATM   11  C   UNK N   1      28.994  17.700   7.129  0.00  0.00     0.041 A 
HETATM   12  C   UNK N   1      30.174  17.106   6.656  0.00  0.00     0.036 A 
HETATM   13  C   UNK N   1      31.366  17.219   7.369  0.00  0.00    -0.060 A 
HETATM   14  C   UNK N   1      32.600  16.580   6.843  0.00  0.00     0.048 C 
HETATM   15  C   UNK N   1      31.393  17.931   8.569  0.00  0.00     0.007 A 
HETATM   16  C   UNK N   1      30.225  18.528   9.054  0.00  0.00     0.003 A 
HETATM   17  C   UNK N   1      29.028  18.414   8.338  0.00  0.00     0.030 A 
ENDBRANCH   6  11
BRANCH   1  18
HETATM   18  N   UNK N   1      25.164  20.491   2.512  0.00  0.00    -0.399 N 
HETATM   19  H   UNK N   1      24.824  21.396   2.700  0.00  0.00     0.156 HD
HETATM   20  H   UNK N   1      25.009  20.080   1.631  0.00  0.00     0.156 HD
ENDBRANCH   1  18
TORSDOF 2
ENDMDL
MODEL 4
REMARK VINA RESULT:      -6.2      6.263     10.638
REMARK  2 active torsions:
REMARK  status: ('A' for Active; 'I' for Inactive)
REMARK    1  A    between atoms: C_1  and  N_11 
REMARK    2  A    between atoms: N_7  and  C_16 
ROOT
HETATM    1  C   UNK N   1      34.615  14.890  10.807  0.00  0.00     0.028 A 
HETATM    2  C   UNK N   1      35.150  16.178  10.597  0.00  0.00     0.060 A 
HETATM    3  C   UNK N   1      34.638  16.922   9.536  0.00  0.00     0.062 A 
HETATM    4  C   UNK N   1      33.662  16.442   8.724  0.00  0.00     0.067 A 
HETATM    5  C   UNK N   1      33.110  15.173   8.902  0.00  0.00     0.035 A 
HETATM    6  N   UNK N   1      33.371  17.372   7.797  0.00  0.00    -0.306 N 
HETATM    7  C   UNK N   1      34.193  18.419   8.070  0.00  0.00     0.189 A 
HETATM    8  N   UNK N   1      34.988  18.161   9.145  0.00  0.00    -0.350 N 
ATOM      9  HN  UNK N   1      35.692  18.771   9.562  1.00  0.00     0.166 HD
HETATM   10  C   UNK N   1      33.598  14.392   9.961  0.00  0.00     0.031 A 
ENDROOT
BRANCH   6  11
HETATM   11  C   UNK N   1      32.399  17.290   6.736  0.00  0.00     0.041 A 
HETATM   12  C   UNK N   1      32.816  17.207   5.399  0.00  0.00     0.036 A 
HETATM   13  C   UNK N   1      31.887  17.128   4.364  0.00  0.00    -0.060 A 
HETATM   14  C   UNK N   1      32.359  17.040   2.958  0.00  0.00     0.048 C 
HETATM   15  C   UNK N   1      30.522  17.130   4.654  0.00  0.00     0.007 A 
HETATM   16  C   UNK N   1      30.090  17.213   5.982  0.00  0.00     0.003 A 
HETATM   17  C   UNK N   1      31.024  17.292   7.021  0.00  0.00     0.030 A 
ENDBRANCH   6  11
BRANCH   1  18
HETATM   18  N   UNK N   1      35.093  14.093  11.864  0.00  0.00    -0.399 N 
HETATM   19  H   UNK N   1      35.363  14.512  12.713  0.00  0.00     0.156 HD
HETATM   20  H   UNK N   1      35.158  13.117  11.754  0.00  0.00     0.156 HD
ENDBRANCH   1  18
TORSDOF 2
ENDMDL
MODEL 5
REMARK VINA RESULT:      -6.1      1.282      2.585
REMARK  2 active torsions:
REMARK  status: ('A' for Active; 'I' for Inactive)
REMARK    1  A    between atoms: C_1  and  N_11 
REMARK    2  A    between atoms: N_7  and  C_16 
ROOT
HETATM    1  C   UNK N   1      34.220  10.912  11.884  0.00  0.00     0.028 A 
HETATM    2  C   UNK N   1      35.000  12.087  11.851  0.00  0.00     0.060 A 
HETATM    3  C   UNK N   1      35.412  12.620  13.071  0.00  0.00     0.062 A 
HETATM    4  C   UNK N   1      35.084  12.045  14.256  0.00  0.00     0.067 A 
HETATM    5  C   UNK N   1      34.315  10.884  14.326  0.00  0.00     0.035 A 
HETATM    6  N   UNK N   1      35.616  12.774  15.253  0.00  0.00    -0.306 N 
HETATM    7  C   UNK N   1      36.268  13.796  14.642  0.00  0.00     0.189 A 
HETATM    8  N   UNK N   1      36.155  13.720  13.287  0.00  0.00    -0.350 N 
ATOM      9  HN  UNK N   1      36.546  14.357  12.591  1.00  0.00     0.166 HD
HETATM   10  C   UNK N   1      33.880  10.315  13.119  0.00  0.00     0.031 A 
ENDROOT
BRANCH   6  11
HETATM   11  C   UNK N   1      35.522  12.533  16.672  0.00  0.00     0.041 A 
HETATM   12  C   UNK N   1      35.786  11.258  17.192  0.00  0.00     0.036 A 
HETATM   13  C   UNK N   1      35.699  11.012  18.560  0.00  0.00    -0.060 A 
HETATM   14  C   UNK N   1      35.984   9.651  19.083  0.00  0.00     0.048 C 
HETATM   15  C   UNK N   1      35.344  12.044  19.431  0.00  0.00     0.007 A 
HETATM   16  C   UNK N   1      35.078  13.322  18.927  0.00  0.00     0.003 A 
HETATM   17  C   UNK N   1      35.166  13.568  17.552  0.00  0.00     0.030 A 
ENDBRANCH   6  11
BRANCH   1  18
HETATM   18  N   UNK N   1      33.775  10.328  10.683  0.00  0.00    -0.399 N 
HETATM   19  H   UNK N   1      33.216  10.848  10.061  0.00  0.00     0.156 HD
HETATM   20  H   UNK N   1      34.024   9.401  10.465  0.00  0.00     0.156 HD
ENDBRANCH   1  18
TORSDOF 2
ENDMDL
MODEL 6
REMARK VINA RESULT:      -6.1     15.397     17.991
REMARK  2 active torsions:
REMARK  status: ('A' for Active; 'I' for Inactive)
REMARK    1  A    between atoms: C_1  and  N_11 
REMARK    2  A    between atoms: N_7  and  C_16 
ROOT
HETATM    1  C   UNK N   1      20.430  17.504   3.846  0.00  0.00     0.028 A 
HETATM    2  C   UNK N   1      20.507  18.728   3.149  0.00  0.00     0.060 A 
HETATM    3  C   UNK N   1      21.743  19.372   3.115  0.00  0.00     0.062 A 
HETATM    4  C   UNK N   1      22.841  18.856   3.724  0.00  0.00     0.067 A 
HETATM    5  C   UNK N   1      22.801  17.649   4.421  0.00  0.00     0.035 A 
HETATM    6  N   UNK N   1      23.879  19.688   3.524  0.00  0.00    -0.306 N 
HETATM    7  C   UNK N   1      23.380  20.712   2.785  0.00  0.00     0.189 A 
HETATM    8  N   UNK N   1      22.056  20.536   2.519  0.00  0.00    -0.350 N 
ATOM      9  HN  UNK N   1      21.439  21.151   1.987  1.00  0.00     0.166 HD
HETATM   10  C   UNK N   1      21.574  16.968   4.479  0.00  0.00     0.031 A 
ENDROOT
BRANCH   6  11
HETATM   11  C   UNK N   1      25.235  19.538   3.990  0.00  0.00     0.041 A 
HETATM   12  C   UNK N   1      25.771  20.449   4.912  0.00  0.00     0.036 A 
HETATM   13  C   UNK N   1      27.080  20.315   5.369  0.00  0.00    -0.060 A 
HETATM   14  C   UNK N   1      27.621  21.296   6.345  0.00  0.00     0.048 C 
HETATM   15  C   UNK N   1      27.874  19.263   4.909  0.00  0.00     0.007 A 
HETATM   16  C   UNK N   1      27.353  18.346   3.990  0.00  0.00     0.003 A 
HETATM   17  C   UNK N   1      26.038  18.481   3.531  0.00  0.00     0.030 A 
ENDBRANCH   6  11
BRANCH   1  18
HETATM   18  N   UNK N   1      19.207  16.809   3.913  0.00  0.00    -0.399 N 
HETATM   19  H   UNK N   1      18.357  17.306   3.897  0.00  0.00     0.156 HD
HETATM   20  H   UNK N   1      19.203  15.827   3.977  0.00  0.00     0.156 HD
ENDBRANCH   1  18
TORSDOF 2
ENDMDL
MODEL 7
REMARK VINA RESULT:      -6.1     16.448     18.442
REMARK  2 active torsions:
REMARK  status: ('A' for Active; 'I' for Inactive)
REMARK    1  A    between atoms: C_1  and  N_11 
REMARK    2  A    between atoms: N_7  and  C_16 
ROOT
HETATM    1  C   UNK N   1      20.837  20.273   1.810  0.00  0.00     0.028 A 
HETATM    2  C   UNK N   1      22.203  20.353   2.153  0.00  0.00     0.060 A 
HETATM    3  C   UNK N   1      22.631  19.626   3.262  0.00  0.00     0.062 A 
HETATM    4  C   UNK N   1      21.781  18.865   3.997  0.00  0.00     0.067 A 
HETATM    5  C   UNK N   1      20.425  18.763   3.687  0.00  0.00     0.035 A 
HETATM    6  N   UNK N   1      22.470  18.286   4.996  0.00  0.00    -0.306 N 
HETATM    7  C   UNK N   1      23.749  18.715   4.844  0.00  0.00     0.189 A 
HETATM    8  N   UNK N   1      23.873  19.548   3.774  0.00  0.00    -0.350 N 
ATOM      9  HN  UNK N   1      24.718  20.010   3.437  1.00  0.00     0.166 HD
HETATM   10  C   UNK N   1      19.953  19.480   2.576  0.00  0.00     0.031 A 
ENDROOT
BRANCH   6  11
HETATM   11  C   UNK N   1      21.970  17.397   6.016  0.00  0.00     0.041 A 
HETATM   12  C   UNK N   1      20.950  17.817   6.882  0.00  0.00     0.036 A 
HETATM   13  C   UNK N   1      20.459  16.969   7.871  0.00  0.00    -0.060 A 
HETATM   14  C   UNK N   1      19.377  17.441   8.774  0.00  0.00     0.048 C 
HETATM   15  C   UNK N   1      20.984  15.683   8.008  0.00  0.00     0.007 A 
HETATM   16  C   UNK N   1      22.002  15.250   7.152  0.00  0.00     0.003 A 
HETATM   17  C   UNK N   1      22.495  16.102   6.158  0.00  0.00     0.030 A 
ENDBRANCH   6  11
BRANCH   1  18
HETATM   18  N   UNK N   1      20.348  20.986   0.699  0.00  0.00    -0.399 N 
HETATM   19  H   UNK N   1      19.800  21.793   0.834  0.00  0.00     0.156 HD
HETATM   20  H   UNK N   1      20.553  20.678  -0.213  0.00  0.00     0.156 HD
ENDBRANCH   1  18
TORSDOF 2
ENDMDL
MODEL 8
REMARK VINA RESULT:      -6.0     11.540     14.803
REMARK  2 active torsions:
REMARK  status: ('A' for Active; 'I' for Inactive)
REMARK    1  A    between atoms: C_1  and  N_11 
REMARK    2  A    between atoms: N_7  and  C_16 
ROOT
HETATM    1  C   UNK N   1      30.046  17.811   8.248  0.00  0.00     0.028 A 
HETATM    2  C   UNK N   1      30.411  17.074   7.103  0.00  0.00     0.060 A 
HETATM    3  C   UNK N   1      29.641  17.247   5.955  0.00  0.00     0.062 A 
HETATM    4  C   UNK N   1      28.576  18.088   5.921  0.00  0.00     0.067 A 
HETATM    5  C   UNK N   1      28.186  18.832   7.034  0.00  0.00     0.035 A 
HETATM    6  N   UNK N   1      28.030  18.049   4.692  0.00  0.00    -0.306 N 
HETATM    7  C   UNK N   1      28.790  17.167   3.991  0.00  0.00     0.189 A 
HETATM    8  N   UNK N   1      29.795  16.657   4.755  0.00  0.00    -0.350 N 
ATOM      9  HN  UNK N   1      30.506  15.980   4.479  1.00  0.00     0.166 HD
HETATM   10  C   UNK N   1      28.937  18.687   8.212  0.00  0.00     0.031 A 
ENDROOT
BRANCH   6  11
HETATM   11  C   UNK N   1      26.885  18.780   4.209  0.00  0.00     0.041 A 
HETATM   12  C   UNK N   1      25.590  18.283   4.416  0.00  0.00     0.036 A 
HETATM   13  C   UNK N   1      24.475  18.979   3.954  0.00  0.00    -0.060 A 
HETATM   14  C   UNK N   1      23.116  18.428   4.188  0.00  0.00     0.048 C 
HETATM   15  C   UNK N   1      24.642  20.188   3.276  0.00  0.00     0.007 A 
HETATM   16  C   UNK N   1      25.928  20.696   3.062  0.00  0.00     0.003 A 
HETATM   17  C   UNK N   1      27.047  19.996   3.526  0.00  0.00     0.030 A 
ENDBRANCH   6  11
BRANCH   1  18
HETATM   18  N   UNK N   1      30.788  17.678   9.437  0.00  0.00    -0.399 N 
HETATM   19  H   UNK N   1      30.350  17.351  10.257  0.00  0.00     0.156 HD
HETATM   20  H   UNK N   1      31.744  17.910   9.449  0.00  0.00     0.156 HD
ENDBRANCH   1  18
TORSDOF 2
ENDMDL
MODEL 9
REMARK VINA RESULT:      -6.0     21.903     25.109
REMARK  2 active torsions:
REMARK  status: ('A' for Active; 'I' for Inactive)
REMARK    1  A    between atoms: C_1  and  N_11 
REMARK    2  A    between atoms: N_7  and  C_16 
ROOT
HETATM    1  C   UNK N   1      26.367  28.766  -4.003  0.00  0.00     0.028 A 
HETATM    2  C   UNK N   1      25.387  27.987  -4.652  0.00  0.00     0.060 A 
HETATM    3  C   UNK N   1      25.711  26.667  -4.956  0.00  0.00     0.062 A 
HETATM    4  C   UNK N   1      26.920  26.132  -4.648  0.00  0.00     0.067 A 
HETATM    5  C   UNK N   1      27.913  26.872  -4.006  0.00  0.00     0.035 A 
HETATM    6  N   UNK N   1      26.946  24.852  -5.058  0.00  0.00    -0.306 N 
HETATM    7  C   UNK N   1      25.729  24.631  -5.619  0.00  0.00     0.189 A 
HETATM    8  N   UNK N   1      24.946  25.744  -5.567  0.00  0.00    -0.350 N 
ATOM      9  HN  UNK N   1      23.992  25.853  -5.913  1.00  0.00     0.166 HD
HETATM   10  C   UNK N   1      27.626  28.208  -3.682  0.00  0.00     0.031 A 
ENDROOT
BRANCH   6  11
HETATM   11  C   UNK N   1      28.027  23.906  -4.936  0.00  0.00     0.041 A 
HETATM   12  C   UNK N   1      28.717  23.773  -3.722  0.00  0.00     0.036 A 
HETATM   13  C   UNK N   1      29.764  22.863  -3.591  0.00  0.00    -0.060 A 
HETATM   14  C   UNK N   1      30.476  22.744  -2.293  0.00  0.00     0.048 C 
HETATM   15  C   UNK N   1      30.135  22.069  -4.678  0.00  0.00     0.007 A 
HETATM   16  C   UNK N   1      29.456  22.190  -5.895  0.00  0.00     0.003 A 
HETATM   17  C   UNK N   1      28.405  23.105  -6.026  0.00  0.00     0.030 A 
ENDBRANCH   6  11
BRANCH   1  18
HETATM   18  N   UNK N   1      26.095  30.106  -3.670  0.00  0.00    -0.399 N 
HETATM   19  H   UNK N   1      26.366  30.830  -4.281  0.00  0.00     0.156 HD
HETATM   20  H   UNK N   1      25.635  30.321  -2.827  0.00  0.00     0.156 HD
ENDBRANCH   1  18
TORSDOF 2
ENDMDL
