REMARK  6 active torsions:
REMARK  status: ('A' for Active; 'I' for Inactive)
REMARK    1  A    between atoms: N_7  and  C_14 
REMARK    2  A    between atoms: C_8  and  C_10 
REMARK       I    between atoms: C_10  and  N_11 
REMARK    3  A    between atoms: N_11  and  C_12 
REMARK    4  A    between atoms: C_14  and  C_15 
REMARK    5  A    between atoms: C_19  and  O_22 
REMARK    6  A    between atoms: N_27  and  C_28 
ROOT
HETATM    1  C   UNK N   1       4.972   2.358   1.039  0.00  0.00     0.002 A 
HETATM    2  C   UNK N   1       3.792   1.595   1.120  0.00  0.00     0.030 A 
HETATM    3  C   UNK N   1       2.682   2.022   0.384  0.00  0.00     0.045 A 
HETATM    4  C   UNK N   1       2.735   3.151  -0.378  0.00  0.00    -0.007 A 
HETATM    5  C   UNK N   1       3.881   3.932  -0.477  0.00  0.00     0.014 A 
HETATM    6  C   UNK N   1       5.016   3.523   0.243  0.00  0.00     0.001 A 
HETATM    7  N   UNK N   1       1.460   1.449   0.307  0.00  0.00    -0.337 N 
HETATM    8  C   UNK N   1       0.719   2.260  -0.518  0.00  0.00     0.104 A 
HETATM    9  C   UNK N   1       1.510   3.324  -0.966  0.00  0.00     0.049 A 
ENDROOT
BRANCH   8  10
HETATM   10  C   UNK N   1      -0.708   2.171  -0.983  0.00  0.00     0.268 C 
HETATM   11  N   UNK N   1      -1.677   1.349  -0.510  0.00  0.00    -0.351 N 
HETATM   12  H   UNK N   1      -2.539   1.420  -0.981  0.00  0.00     0.163 HD
HETATM   13  O   UNK N   1      -1.042   2.959  -1.857  0.00  0.00    -0.266 OA
BRANCH  11  14
HETATM   14  C   UNK N   1      -1.660   0.390   0.564  0.00  0.00     0.088 C 
HETATM   15  C   UNK N   1      -2.256  -0.923   0.065  0.00  0.00     0.055 C 
HETATM   16  C   UNK N   1      -3.684  -0.692  -0.452  0.00  0.00     0.275 C 
HETATM   17  N   UNK N   1      -4.571  -0.088   0.560  0.00  0.00     0.092 N 
HETATM   18  C   UNK N   1      -3.967   1.143   1.100  0.00  0.00     0.275 C 
HETATM   19  C   UNK N   1      -2.571   0.892   1.675  0.00  0.00     0.055 C 
BRANCH  17  20
HETATM   20  C   UNK N   1      -5.821   0.247  -0.147  0.00  0.00     0.215 C 
HETATM   21  C   UNK N   1      -6.636  -1.010  -0.406  0.00  0.00     0.042 C 
HETATM   22  C   UNK N   1      -6.711   1.229   0.612  0.00  0.00     0.042 C 
ENDBRANCH  17  20
ENDBRANCH  11  14
ENDBRANCH   8  10
BRANCH   7  23
HETATM   23  C   UNK N   1       1.083   0.228   1.018  0.00  0.00     0.168 C 
BRANCH  23  24
HETATM   24  C   UNK N   1       1.685  -1.032   0.448  0.00  0.00    -0.037 A 
HETATM   25  C   UNK N   1       3.057  -1.134   0.182  0.00  0.00     0.009 A 
HETATM   26  C   UNK N   1       3.604  -2.334  -0.278  0.00  0.00     0.003 A 
HETATM   27  C   UNK N   1       2.786  -3.452  -0.448  0.00  0.00     0.037 A 
HETATM   28  C   UNK N   1       1.411  -3.371  -0.168  0.00  0.00     0.068 A 
HETATM   29  C   UNK N   1       0.870  -2.157   0.274  0.00  0.00     0.045 A 
BRANCH  28  30
HETATM   30  O   UNK N   1       0.597  -4.446  -0.298  0.00  0.00    -0.356 OA
HETATM   31  C   UNK N   1       1.049  -5.694  -0.665  0.00  0.00     0.210 C 
ENDBRANCH  28  30
ENDBRANCH  23  24
ENDBRANCH   7  23
TORSDOF 6
