MODEL 1
REMARK VINA RESULT:      -7.5      0.000      0.000
REMARK  6 active torsions:
REMARK  status: ('A' for Active; 'I' for Inactive)
REMARK    1  A    between atoms: N_7  and  C_14 
REMARK    2  A    between atoms: C_8  and  C_10 
REMARK       I    between atoms: C_10  and  N_11 
REMARK    3  A    between atoms: N_11  and  C_12 
REMARK    4  A    between atoms: C_14  and  C_15 
REMARK    5  A    between atoms: C_19  and  O_22 
REMARK    6  A    between atoms: N_27  and  C_28 
ROOT
HETATM    1  C   UNK N   1      27.125  21.295  -8.804  0.00  0.00     0.002 A 
HETATM    2  C   UNK N   1      27.868  22.126  -7.945  0.00  0.00     0.030 A 
HETATM    3  C   UNK N   1      27.194  22.748  -6.889  0.00  0.00     0.045 A 
HETATM    4  C   UNK N   1      25.855  22.569  -6.705  0.00  0.00    -0.007 A 
HETATM    5  C   UNK N   1      25.089  21.760  -7.537  0.00  0.00     0.014 A 
HETATM    6  C   UNK N   1      25.740  21.113  -8.601  0.00  0.00     0.001 A 
HETATM    7  N   UNK N   1      27.700  23.575  -5.947  0.00  0.00    -0.337 N 
HETATM    8  C   UNK N   1      26.636  23.938  -5.158  0.00  0.00     0.104 A 
HETATM    9  C   UNK N   1      25.475  23.304  -5.614  0.00  0.00     0.049 A 
ENDROOT
BRANCH   8  10
HETATM   10  C   UNK N   1      26.546  24.842  -3.960  0.00  0.00     0.268 C 
HETATM   11  N   UNK N   1      26.292  26.174  -3.953  0.00  0.00    -0.351 N 
HETATM   12  H   UNK N   1      26.316  26.590  -3.060  0.00  0.00     0.163 HD
HETATM   13  O   UNK N   1      26.675  24.307  -2.868  0.00  0.00    -0.266 OA
BRANCH  11  14
HETATM   14  C   UNK N   1      25.993  27.084  -5.028  0.00  0.00     0.088 C 
HETATM   15  C   UNK N   1      27.286  27.425  -5.763  0.00  0.00     0.055 C 
HETATM   16  C   UNK N   1      28.304  28.033  -4.786  0.00  0.00     0.275 C 
HETATM   17  N   UNK N   1      27.790  29.227  -4.090  0.00  0.00     0.092 N 
HETATM   18  C   UNK N   1      26.503  28.926  -3.438  0.00  0.00     0.275 C 
HETATM   19  C   UNK N   1      25.471  28.384  -4.430  0.00  0.00     0.055 C 
BRANCH  17  20
HETATM   20  C   UNK N   1      28.795  29.560  -3.064  0.00  0.00     0.215 C 
HETATM   21  C   UNK N   1      28.142  29.652  -1.694  0.00  0.00     0.042 C 
HETATM   22  C   UNK N   1      29.933  28.546  -2.968  0.00  0.00     0.042 C 
ENDBRANCH  17  20
ENDBRANCH  11  14
ENDBRANCH   8  10
BRANCH   7  23
HETATM   23  C   UNK N   1      29.106  23.972  -5.877  0.00  0.00     0.168 C 
BRANCH  23  24
HETATM   24  C   UNK N   1      29.908  23.232  -4.836  0.00  0.00    -0.037 A 
HETATM   25  C   UNK N   1      30.103  23.755  -3.551  0.00  0.00     0.009 A 
HETATM   26  C   UNK N   1      30.788  23.020  -2.581  0.00  0.00     0.003 A 
HETATM   27  C   UNK N   1      31.259  21.741  -2.880  0.00  0.00     0.037 A 
HETATM   28  C   UNK N   1      31.056  21.194  -4.159  0.00  0.00     0.068 A 
HETATM   29  C   UNK N   1      30.385  21.948  -5.130  0.00  0.00     0.045 A 
BRANCH  28  30
HETATM   30  O   UNK N   1      31.478  19.946  -4.471  0.00  0.00    -0.356 OA
HETATM   31  C   UNK N   1      32.794  19.640  -4.739  0.00  0.00     0.210 C 
ENDBRANCH  28  30
ENDBRANCH  23  24
ENDBRANCH   7  23
TORSDOF 6
ENDMDL
MODEL 2
REMARK VINA RESULT:      -7.3     10.483     13.442
REMARK  6 active torsions:
REMARK  status: ('A' for Active; 'I' for Inactive)
REMARK    1  A    between atoms: N_7  and  C_14 
REMARK    2  A    between atoms: C_8  and  C_10 
REMARK       I    between atoms: C_10  and  N_11 
REMARK    3  A    between atoms: N_11  and  C_12 
REMARK    4  A    between atoms: C_14  and  C_15 
REMARK    5  A    between atoms: C_19  and  O_22 
REMARK    6  A    between atoms: N_27  and  C_28 
ROOT
HETATM    1  C   UNK N   1      34.146  17.124   6.725  0.00  0.00     0.002 A 
HETATM    2  C   UNK N   1      33.025  17.109   5.874  0.00  0.00     0.030 A 
HETATM    3  C   UNK N   1      31.762  17.278   6.449  0.00  0.00     0.045 A 
HETATM    4  C   UNK N   1      31.617  17.438   7.795  0.00  0.00    -0.007 A 
HETATM    5  C   UNK N   1      32.700  17.453   8.666  0.00  0.00     0.014 A 
HETATM    6  C   UNK N   1      33.984  17.296   8.117  0.00  0.00     0.001 A 
HETATM    7  N   UNK N   1      30.559  17.303   5.832  0.00  0.00    -0.337 N 
HETATM    8  C   UNK N   1      29.630  17.466   6.831  0.00  0.00     0.104 A 
HETATM    9  C   UNK N   1      30.280  17.566   8.066  0.00  0.00     0.049 A 
ENDROOT
BRANCH   8  10
HETATM   10  C   UNK N   1      28.130  17.556   6.791  0.00  0.00     0.268 C 
HETATM   11  N   UNK N   1      27.378  18.669   6.609  0.00  0.00    -0.351 N 
HETATM   12  H   UNK N   1      26.406  18.518   6.656  0.00  0.00     0.163 HD
HETATM   13  O   UNK N   1      27.522  16.499   6.892  0.00  0.00    -0.266 OA
BRANCH  11  14
HETATM   14  C   UNK N   1      27.759  20.035   6.358  0.00  0.00     0.088 C 
HETATM   15  C   UNK N   1      26.511  20.913   6.396  0.00  0.00     0.055 C 
HETATM   16  C   UNK N   1      25.488  20.421   5.361  0.00  0.00     0.275 C 
HETATM   17  N   UNK N   1      26.032  20.378   3.990  0.00  0.00     0.092 N 
HETATM   18  C   UNK N   1      27.279  19.592   3.960  0.00  0.00     0.275 C 
HETATM   19  C   UNK N   1      28.319  20.129   4.946  0.00  0.00     0.055 C 
BRANCH  17  20
HETATM   20  C   UNK N   1      25.007  19.706   3.170  0.00  0.00     0.215 C 
HETATM   21  C   UNK N   1      24.648  18.357   3.772  0.00  0.00     0.042 C 
HETATM   22  C   UNK N   1      23.716  20.508   3.024  0.00  0.00     0.042 C 
ENDBRANCH  17  20
ENDBRANCH  11  14
ENDBRANCH   8  10
BRANCH   7  23
HETATM   23  C   UNK N   1      30.377  17.148   4.389  0.00  0.00     0.168 C 
BRANCH  23  24
HETATM   24  C   UNK N   1      29.453  16.022   3.998  0.00  0.00    -0.037 A 
HETATM   25  C   UNK N   1      29.639  14.720   4.480  0.00  0.00     0.009 A 
HETATM   26  C   UNK N   1      28.729  13.709   4.162  0.00  0.00     0.003 A 
HETATM   27  C   UNK N   1      27.609  13.999   3.383  0.00  0.00     0.037 A 
HETATM   28  C   UNK N   1      27.399  15.305   2.907  0.00  0.00     0.068 A 
HETATM   29  C   UNK N   1      28.328  16.307   3.215  0.00  0.00     0.045 A 
BRANCH  28  30
HETATM   30  O   UNK N   1      26.307  15.624   2.170  0.00  0.00    -0.356 OA
HETATM   31  C   UNK N   1      25.358  14.701   1.791  0.00  0.00     0.210 C 
ENDBRANCH  28  30
ENDBRANCH  23  24
ENDBRANCH   7  23
TORSDOF 6
ENDMDL
MODEL 3
REMARK VINA RESULT:      -7.2     11.733     15.035
REMARK  6 active torsions:
REMARK  status: ('A' for Active; 'I' for Inactive)
REMARK    1  A    between atoms: N_7  and  C_14 
REMARK    2  A    between atoms: C_8  and  C_10 
REMARK       I    between atoms: C_10  and  N_11 
REMARK    3  A    between atoms: N_11  and  C_12 
REMARK    4  A    between atoms: C_14  and  C_15 
REMARK    5  A    between atoms: C_19  and  O_22 
REMARK    6  A    between atoms: N_27  and  C_28 
ROOT
HETATM    1  C   UNK N   1      27.412  20.558   6.528  0.00  0.00     0.002 A 
HETATM    2  C   UNK N   1      28.133  19.519   7.147  0.00  0.00     0.030 A 
HETATM    3  C   UNK N   1      28.639  18.498   6.337  0.00  0.00     0.045 A 
HETATM    4  C   UNK N   1      28.429  18.499   4.990  0.00  0.00    -0.007 A 
HETATM    5  C   UNK N   1      27.717  19.505   4.346  0.00  0.00     0.014 A 
HETATM    6  C   UNK N   1      27.205  20.550   5.132  0.00  0.00     0.001 A 
HETATM    7  N   UNK N   1      29.358  17.415   6.708  0.00  0.00    -0.337 N 
HETATM    8  C   UNK N   1      29.589  16.706   5.554  0.00  0.00     0.104 A 
HETATM    9  C   UNK N   1      29.024  17.381   4.467  0.00  0.00     0.049 A 
ENDROOT
BRANCH   8  10
HETATM   10  C   UNK N   1      30.315  15.413   5.308  0.00  0.00     0.268 C 
HETATM   11  N   UNK N   1      31.644  15.243   5.102  0.00  0.00    -0.351 N 
HETATM   12  H   UNK N   1      31.914  14.314   4.919  0.00  0.00     0.163 HD
HETATM   13  O   UNK N   1      29.635  14.397   5.339  0.00  0.00    -0.266 OA
BRANCH  11  14
HETATM   14  C   UNK N   1      32.729  16.190   5.107  0.00  0.00     0.088 C 
HETATM   15  C   UNK N   1      32.978  16.665   3.678  0.00  0.00     0.055 C 
HETATM   16  C   UNK N   1      33.290  15.466   2.770  0.00  0.00     0.275 C 
HETATM   17  N   UNK N   1      34.438  14.670   3.244  0.00  0.00     0.092 N 
HETATM   18  C   UNK N   1      34.237  14.269   4.648  0.00  0.00     0.275 C 
HETATM   19  C   UNK N   1      33.994  15.475   5.559  0.00  0.00     0.055 C 
BRANCH  17  20
HETATM   20  C   UNK N   1      34.475  13.468   2.390  0.00  0.00     0.215 C 
HETATM   21  C   UNK N   1      33.064  12.986   2.092  0.00  0.00     0.042 C 
HETATM   22  C   UNK N   1      35.183  13.686   1.054  0.00  0.00     0.042 C 
ENDBRANCH  17  20
ENDBRANCH  11  14
ENDBRANCH   8  10
BRANCH   7  23
HETATM   23  C   UNK N   1      29.741  17.122   8.089  0.00  0.00     0.168 C 
BRANCH  23  24
HETATM   24  C   UNK N   1      31.230  17.051   8.317  0.00  0.00    -0.037 A 
HETATM   25  C   UNK N   1      32.056  18.165   8.121  0.00  0.00     0.009 A 
HETATM   26  C   UNK N   1      33.422  18.096   8.408  0.00  0.00     0.003 A 
HETATM   27  C   UNK N   1      33.967  16.919   8.921  0.00  0.00     0.037 A 
HETATM   28  C   UNK N   1      33.148  15.798   9.141  0.00  0.00     0.068 A 
HETATM   29  C   UNK N   1      31.784  15.872   8.832  0.00  0.00     0.045 A 
BRANCH  28  30
HETATM   30  O   UNK N   1      33.643  14.650   9.663  0.00  0.00    -0.356 OA
HETATM   31  C   UNK N   1      34.886  14.151   9.343  0.00  0.00     0.210 C 
ENDBRANCH  28  30
ENDBRANCH  23  24
ENDBRANCH   7  23
TORSDOF 6
ENDMDL
MODEL 4
REMARK VINA RESULT:      -7.1     15.247     17.618
REMARK  6 active torsions:
REMARK  status: ('A' for Active; 'I' for Inactive)
REMARK    1  A    between atoms: N_7  and  C_14 
REMARK    2  A    between atoms: C_8  and  C_10 
REMARK       I    between atoms: C_10  and  N_11 
REMARK    3  A    between atoms: N_11  and  C_12 
REMARK    4  A    between atoms: C_14  and  C_15 
REMARK    5  A    between atoms: C_19  and  O_22 
REMARK    6  A    between atoms: N_27  and  C_28 
ROOT
HETATM    1  C   UNK N   1      21.715  12.123  11.899  0.00  0.00     0.002 A 
HETATM    2  C   UNK N   1      21.385  12.378  10.555  0.00  0.00     0.030 A 
HETATM    3  C   UNK N   1      22.425  12.423   9.620  0.00  0.00     0.045 A 
HETATM    4  C   UNK N   1      23.721  12.240  10.000  0.00  0.00    -0.007 A 
HETATM    5  C   UNK N   1      24.084  11.992  11.319  0.00  0.00     0.014 A 
HETATM    6  C   UNK N   1      23.061  11.931  12.280  0.00  0.00     0.001 A 
HETATM    7  N   UNK N   1      22.343  12.644   8.289  0.00  0.00    -0.337 N 
HETATM    8  C   UNK N   1      23.636  12.617   7.826  0.00  0.00     0.104 A 
HETATM    9  C   UNK N   1      24.510  12.350   8.886  0.00  0.00     0.049 A 
ENDROOT
BRANCH   8  10
HETATM   10  C   UNK N   1      24.204  12.806   6.447  0.00  0.00     0.268 C 
HETATM   11  N   UNK N   1      24.695  13.950   5.910  0.00  0.00    -0.351 N 
HETATM   12  H   UNK N   1      24.984  13.870   4.972  0.00  0.00     0.163 HD
HETATM   13  O   UNK N   1      24.271  11.805   5.747  0.00  0.00    -0.266 OA
BRANCH  11  14
HETATM   14  C   UNK N   1      24.864  15.263   6.478  0.00  0.00     0.088 C 
HETATM   15  C   UNK N   1      24.203  16.288   5.561  0.00  0.00     0.055 C 
HETATM   16  C   UNK N   1      24.813  16.208   4.153  0.00  0.00     0.275 C 
HETATM   17  N   UNK N   1      26.276  16.396   4.149  0.00  0.00     0.092 N 
HETATM   18  C   UNK N   1      26.915  15.458   5.089  0.00  0.00     0.275 C 
HETATM   19  C   UNK N   1      26.350  15.590   6.505  0.00  0.00     0.055 C 
BRANCH  17  20
HETATM   20  C   UNK N   1      26.719  16.094   2.775  0.00  0.00     0.215 C 
HETATM   21  C   UNK N   1      28.079  15.416   2.794  0.00  0.00     0.042 C 
HETATM   22  C   UNK N   1      25.759  15.188   2.007  0.00  0.00     0.042 C 
ENDBRANCH  17  20
ENDBRANCH  11  14
ENDBRANCH   8  10
BRANCH   7  23
HETATM   23  C   UNK N   1      21.089  12.885   7.576  0.00  0.00     0.168 C 
BRANCH  23  24
HETATM   24  C   UNK N   1      20.957  14.276   7.007  0.00  0.00    -0.037 A 
HETATM   25  C   UNK N   1      20.839  14.497   5.628  0.00  0.00     0.009 A 
HETATM   26  C   UNK N   1      20.646  15.787   5.129  0.00  0.00     0.003 A 
HETATM   27  C   UNK N   1      20.540  16.865   6.009  0.00  0.00     0.037 A 
HETATM   28  C   UNK N   1      20.637  16.658   7.396  0.00  0.00     0.068 A 
HETATM   29  C   UNK N   1      20.851  15.362   7.884  0.00  0.00     0.045 A 
BRANCH  28  30
HETATM   30  O   UNK N   1      20.512  17.680   8.276  0.00  0.00    -0.356 OA
HETATM   31  C   UNK N   1      19.379  17.891   9.030  0.00  0.00     0.210 C 
ENDBRANCH  28  30
ENDBRANCH  23  24
ENDBRANCH   7  23
TORSDOF 6
ENDMDL
MODEL 5
REMARK VINA RESULT:      -7.1      2.221      6.908
REMARK  6 active torsions:
REMARK  status: ('A' for Active; 'I' for Inactive)
REMARK    1  A    between atoms: N_7  and  C_14 
REMARK    2  A    between atoms: C_8  and  C_10 
REMARK       I    between atoms: C_10  and  N_11 
REMARK    3  A    between atoms: N_11  and  C_12 
REMARK    4  A    between atoms: C_14  and  C_15 
REMARK    5  A    between atoms: C_19  and  O_22 
REMARK    6  A    between atoms: N_27  and  C_28 
ROOT
HETATM    1  C   UNK N   1      27.442  30.351  -5.230  0.00  0.00     0.002 A 
HETATM    2  C   UNK N   1      27.717  29.062  -5.724  0.00  0.00     0.030 A 
HETATM    3  C   UNK N   1      27.441  27.969  -4.896  0.00  0.00     0.045 A 
HETATM    4  C   UNK N   1      26.936  28.146  -3.642  0.00  0.00    -0.007 A 
HETATM    5  C   UNK N   1      26.658  29.404  -3.120  0.00  0.00     0.014 A 
HETATM    6  C   UNK N   1      26.914  30.521  -3.932  0.00  0.00     0.001 A 
HETATM    7  N   UNK N   1      27.619  26.655  -5.160  0.00  0.00    -0.337 N 
HETATM    8  C   UNK N   1      27.227  25.990  -4.024  0.00  0.00     0.104 A 
HETATM    9  C   UNK N   1      26.783  26.911  -3.069  0.00  0.00     0.049 A 
ENDROOT
BRANCH   8  10
HETATM   10  C   UNK N   1      27.197  24.525  -3.688  0.00  0.00     0.268 C 
HETATM   11  N   UNK N   1      28.230  23.759  -3.258  0.00  0.00    -0.351 N 
HETATM   12  H   UNK N   1      28.009  22.808  -3.132  0.00  0.00     0.163 HD
HETATM   13  O   UNK N   1      26.108  23.973  -3.770  0.00  0.00    -0.266 OA
BRANCH  11  14
HETATM   14  C   UNK N   1      29.596  24.100  -2.955  0.00  0.00     0.088 C 
HETATM   15  C   UNK N   1      30.326  24.423  -4.255  0.00  0.00     0.055 C 
HETATM   16  C   UNK N   1      30.251  23.226  -5.215  0.00  0.00     0.275 C 
HETATM   17  N   UNK N   1      30.792  21.985  -4.628  0.00  0.00     0.092 N 
HETATM   18  C   UNK N   1      30.142  21.706  -3.335  0.00  0.00     0.275 C 
HETATM   19  C   UNK N   1      30.279  22.878  -2.360  0.00  0.00     0.055 C 
BRANCH  17  20
HETATM   20  C   UNK N   1      30.465  20.911  -5.584  0.00  0.00     0.215 C 
HETATM   21  C   UNK N   1      29.355  21.356  -6.522  0.00  0.00     0.042 C 
HETATM   22  C   UNK N   1      31.650  20.473  -6.442  0.00  0.00     0.042 C 
ENDBRANCH  17  20
ENDBRANCH  11  14
ENDBRANCH   8  10
BRANCH   7  23
HETATM   23  C   UNK N   1      28.154  26.140  -6.420  0.00  0.00     0.168 C 
BRANCH  23  24
HETATM   24  C   UNK N   1      27.102  25.740  -7.423  0.00  0.00    -0.037 A 
HETATM   25  C   UNK N   1      26.807  26.541  -8.535  0.00  0.00     0.009 A 
HETATM   26  C   UNK N   1      25.880  26.117  -9.490  0.00  0.00     0.003 A 
HETATM   27  C   UNK N   1      25.261  24.873  -9.355  0.00  0.00     0.037 A 
HETATM   28  C   UNK N   1      25.560  24.050  -8.255  0.00  0.00     0.068 A 
HETATM   29  C   UNK N   1      26.477  24.494  -7.294  0.00  0.00     0.045 A 
BRANCH  28  30
HETATM   30  O   UNK N   1      24.996  22.827  -8.112  0.00  0.00    -0.356 OA
HETATM   31  C   UNK N   1      25.197  22.029  -7.008  0.00  0.00     0.210 C 
ENDBRANCH  28  30
ENDBRANCH  23  24
ENDBRANCH   7  23
TORSDOF 6
ENDMDL
MODEL 6
REMARK VINA RESULT:      -7.1     15.632     18.072
REMARK  6 active torsions:
REMARK  status: ('A' for Active; 'I' for Inactive)
REMARK    1  A    between atoms: N_7  and  C_14 
REMARK    2  A    between atoms: C_8  and  C_10 
REMARK       I    between atoms: C_10  and  N_11 
REMARK    3  A    between atoms: N_11  and  C_12 
REMARK    4  A    between atoms: C_14  and  C_15 
REMARK    5  A    between atoms: C_19  and  O_22 
REMARK    6  A    between atoms: N_27  and  C_28 
ROOT
HETATM    1  C   UNK N   1      21.393  12.070  11.701  0.00  0.00     0.002 A 
HETATM    2  C   UNK N   1      21.125  12.617  10.432  0.00  0.00     0.030 A 
HETATM    3  C   UNK N   1      22.211  12.918   9.604  0.00  0.00     0.045 A 
HETATM    4  C   UNK N   1      23.492  12.702  10.017  0.00  0.00    -0.007 A 
HETATM    5  C   UNK N   1      23.794  12.169  11.265  0.00  0.00     0.014 A 
HETATM    6  C   UNK N   1      22.723  11.847  12.116  0.00  0.00     0.001 A 
HETATM    7  N   UNK N   1      22.192  13.439   8.357  0.00  0.00    -0.337 N 
HETATM    8  C   UNK N   1      23.508  13.570   7.987  0.00  0.00     0.104 A 
HETATM    9  C   UNK N   1      24.335  13.099   9.013  0.00  0.00     0.049 A 
ENDROOT
BRANCH   8  10
HETATM   10  C   UNK N   1      24.142  14.096   6.729  0.00  0.00     0.268 C 
HETATM   11  N   UNK N   1      24.349  13.425   5.570  0.00  0.00    -0.351 N 
HETATM   12  H   UNK N   1      24.818  13.942   4.876  0.00  0.00     0.163 HD
HETATM   13  O   UNK N   1      24.468  15.275   6.740  0.00  0.00    -0.266 OA
BRANCH  11  14
HETATM   14  C   UNK N   1      23.999  12.083   5.180  0.00  0.00     0.088 C 
HETATM   15  C   UNK N   1      24.864  11.671   3.992  0.00  0.00     0.055 C 
HETATM   16  C   UNK N   1      24.668  12.656   2.830  0.00  0.00     0.275 C 
HETATM   17  N   UNK N   1      23.259  12.778   2.411  0.00  0.00     0.092 N 
HETATM   18  C   UNK N   1      22.407  13.104   3.568  0.00  0.00     0.275 C 
HETATM   19  C   UNK N   1      22.557  12.081   4.696  0.00  0.00     0.055 C 
BRANCH  17  20
HETATM   20  C   UNK N   1      23.221  13.890   1.443  0.00  0.00     0.215 C 
HETATM   21  C   UNK N   1      23.591  13.396   0.054  0.00  0.00     0.042 C 
HETATM   22  C   UNK N   1      21.857  14.572   1.345  0.00  0.00     0.042 C 
ENDBRANCH  17  20
ENDBRANCH  11  14
ENDBRANCH   8  10
BRANCH   7  23
HETATM   23  C   UNK N   1      20.969  13.791   7.637  0.00  0.00     0.168 C 
BRANCH  23  24
HETATM   24  C   UNK N   1      20.496  15.204   7.871  0.00  0.00    -0.037 A 
HETATM   25  C   UNK N   1      19.560  15.509   8.867  0.00  0.00     0.009 A 
HETATM   26  C   UNK N   1      19.191  16.833   9.114  0.00  0.00     0.003 A 
HETATM   27  C   UNK N   1      19.778  17.867   8.384  0.00  0.00     0.037 A 
HETATM   28  C   UNK N   1      20.733  17.579   7.394  0.00  0.00     0.068 A 
HETATM   29  C   UNK N   1      21.081  16.246   7.141  0.00  0.00     0.045 A 
BRANCH  28  30
HETATM   30  O   UNK N   1      21.340  18.563   6.687  0.00  0.00    -0.356 OA
HETATM   31  C   UNK N   1      22.010  18.340   5.506  0.00  0.00     0.210 C 
ENDBRANCH  28  30
ENDBRANCH  23  24
ENDBRANCH   7  23
TORSDOF 6
ENDMDL
MODEL 7
REMARK VINA RESULT:      -7.1     11.155     13.315
REMARK  6 active torsions:
REMARK  status: ('A' for Active; 'I' for Inactive)
REMARK    1  A    between atoms: N_7  and  C_14 
REMARK    2  A    between atoms: C_8  and  C_10 
REMARK       I    between atoms: C_10  and  N_11 
REMARK    3  A    between atoms: N_11  and  C_12 
REMARK    4  A    between atoms: C_14  and  C_15 
REMARK    5  A    between atoms: C_19  and  O_22 
REMARK    6  A    between atoms: N_27  and  C_28 
ROOT
HETATM    1  C   UNK N   1      21.460  14.238   0.803  0.00  0.00     0.002 A 
HETATM    2  C   UNK N   1      21.388  15.056   1.946  0.00  0.00     0.030 A 
HETATM    3  C   UNK N   1      22.513  15.128   2.774  0.00  0.00     0.045 A 
HETATM    4  C   UNK N   1      23.640  14.416   2.492  0.00  0.00    -0.007 A 
HETATM    5  C   UNK N   1      23.745  13.594   1.376  0.00  0.00     0.014 A 
HETATM    6  C   UNK N   1      22.635  13.509   0.519  0.00  0.00     0.001 A 
HETATM    7  N   UNK N   1      22.670  15.845   3.909  0.00  0.00    -0.337 N 
HETATM    8  C   UNK N   1      23.935  15.556   4.361  0.00  0.00     0.104 A 
HETATM    9  C   UNK N   1      24.560  14.671   3.474  0.00  0.00     0.049 A 
ENDROOT
BRANCH   8  10
HETATM   10  C   UNK N   1      24.692  16.025   5.572  0.00  0.00     0.268 C 
HETATM   11  N   UNK N   1      25.640  16.993   5.625  0.00  0.00    -0.351 N 
HETATM   12  H   UNK N   1      26.044  17.121   6.514  0.00  0.00     0.163 HD
HETATM   13  O   UNK N   1      24.387  15.503   6.635  0.00  0.00    -0.266 OA
BRANCH  11  14
HETATM   14  C   UNK N   1      26.155  17.867   4.603  0.00  0.00     0.088 C 
HETATM   15  C   UNK N   1      27.216  17.118   3.800  0.00  0.00     0.055 C 
HETATM   16  C   UNK N   1      28.336  16.630   4.732  0.00  0.00     0.275 C 
HETATM   17  N   UNK N   1      28.962  17.722   5.499  0.00  0.00     0.092 N 
HETATM   18  C   UNK N   1      27.935  18.496   6.219  0.00  0.00     0.275 C 
HETATM   19  C   UNK N   1      26.858  19.037   5.276  0.00  0.00     0.055 C 
BRANCH  17  20
HETATM   20  C   UNK N   1      29.858  17.070   6.472  0.00  0.00     0.215 C 
HETATM   21  C   UNK N   1      31.296  17.115   5.980  0.00  0.00     0.042 C 
HETATM   22  C   UNK N   1      29.823  17.705   7.860  0.00  0.00     0.042 C 
ENDBRANCH  17  20
ENDBRANCH  11  14
ENDBRANCH   8  10
BRANCH   7  23
HETATM   23  C   UNK N   1      21.637  16.706   4.483  0.00  0.00     0.168 C 
BRANCH  23  24
HETATM   24  C   UNK N   1      21.416  17.995   3.732  0.00  0.00    -0.037 A 
HETATM   25  C   UNK N   1      20.158  18.341   3.221  0.00  0.00     0.009 A 
HETATM   26  C   UNK N   1      19.961  19.572   2.592  0.00  0.00     0.003 A 
HETATM   27  C   UNK N   1      21.015  20.481   2.494  0.00  0.00     0.037 A 
HETATM   28  C   UNK N   1      22.279  20.157   3.018  0.00  0.00     0.068 A 
HETATM   29  C   UNK N   1      22.470  18.911   3.629  0.00  0.00     0.045 A 
BRANCH  28  30
HETATM   30  O   UNK N   1      23.314  21.029   2.961  0.00  0.00    -0.356 OA
HETATM   31  C   UNK N   1      24.610  20.644   2.700  0.00  0.00     0.210 C 
ENDBRANCH  28  30
ENDBRANCH  23  24
ENDBRANCH   7  23
TORSDOF 6
ENDMDL
MODEL 8
REMARK VINA RESULT:      -7.1     13.547     16.730
REMARK  6 active torsions:
REMARK  status: ('A' for Active; 'I' for Inactive)
REMARK    1  A    between atoms: N_7  and  C_14 
REMARK    2  A    between atoms: C_8  and  C_10 
REMARK       I    between atoms: C_10  and  N_11 
REMARK    3  A    between atoms: N_11  and  C_12 
REMARK    4  A    between atoms: C_14  and  C_15 
REMARK    5  A    between atoms: C_19  and  O_22 
REMARK    6  A    between atoms: N_27  and  C_28 
ROOT
HETATM    1  C   UNK N   1      27.936  17.817   7.613  0.00  0.00     0.002 A 
HETATM    2  C   UNK N   1      28.980  17.652   6.683  0.00  0.00     0.030 A 
HETATM    3  C   UNK N   1      30.287  17.560   7.172  0.00  0.00     0.045 A 
HETATM    4  C   UNK N   1      30.546  17.642   8.508  0.00  0.00    -0.007 A 
HETATM    5  C   UNK N   1      29.542  17.810   9.454  0.00  0.00     0.014 A 
HETATM    6  C   UNK N   1      28.217  17.896   8.994  0.00  0.00     0.001 A 
HETATM    7  N   UNK N   1      31.432  17.397   6.471  0.00  0.00    -0.337 N 
HETATM    8  C   UNK N   1      32.442  17.395   7.402  0.00  0.00     0.104 A 
HETATM    9  C   UNK N   1      31.900  17.534   8.685  0.00  0.00     0.049 A 
ENDROOT
BRANCH   8  10
HETATM   10  C   UNK N   1      33.932  17.263   7.255  0.00  0.00     0.268 C 
HETATM   11  N   UNK N   1      34.650  16.118   7.141  0.00  0.00    -0.351 N 
HETATM   12  H   UNK N   1      35.624  16.250   7.094  0.00  0.00     0.163 HD
HETATM   13  O   UNK N   1      34.563  18.309   7.187  0.00  0.00    -0.266 OA
BRANCH  11  14
HETATM   14  C   UNK N   1      34.228  14.743   7.076  0.00  0.00     0.088 C 
HETATM   15  C   UNK N   1      33.703  14.321   8.445  0.00  0.00     0.055 C 
HETATM   16  C   UNK N   1      34.791  14.520   9.512  0.00  0.00     0.275 C 
HETATM   17  N   UNK N   1      36.038  13.794   9.204  0.00  0.00     0.092 N 
HETATM   18  C   UNK N   1      36.511  14.142   7.852  0.00  0.00     0.275 C 
HETATM   19  C   UNK N   1      35.446  13.877   6.786  0.00  0.00     0.055 C 
BRANCH  17  20
HETATM   20  C   UNK N   1      37.025  14.246  10.202  0.00  0.00     0.215 C 
HETATM   21  C   UNK N   1      36.438  14.164  11.602  0.00  0.00     0.042 C 
HETATM   22  C   UNK N   1      38.320  13.437  10.193  0.00  0.00     0.042 C 
ENDBRANCH  17  20
ENDBRANCH  11  14
ENDBRANCH   8  10
BRANCH   7  23
HETATM   23  C   UNK N   1      31.490  17.284   5.014  0.00  0.00     0.168 C 
BRANCH  23  24
HETATM   24  C   UNK N   1      31.924  15.929   4.514  0.00  0.00    -0.037 A 
HETATM   25  C   UNK N   1      33.078  15.771   3.735  0.00  0.00     0.009 A 
HETATM   26  C   UNK N   1      33.501  14.499   3.344  0.00  0.00     0.003 A 
HETATM   27  C   UNK N   1      32.788  13.371   3.753  0.00  0.00     0.037 A 
HETATM   28  C   UNK N   1      31.639  13.512   4.550  0.00  0.00     0.068 A 
HETATM   29  C   UNK N   1      31.213  14.794   4.921  0.00  0.00     0.045 A 
BRANCH  28  30
HETATM   30  O   UNK N   1      30.942  12.435   4.985  0.00  0.00    -0.356 OA
HETATM   31  C   UNK N   1      30.022  11.768   4.207  0.00  0.00     0.210 C 
ENDBRANCH  28  30
ENDBRANCH  23  24
ENDBRANCH   7  23
TORSDOF 6
ENDMDL
MODEL 9
REMARK VINA RESULT:      -7.0     14.099     17.749
REMARK  6 active torsions:
REMARK  status: ('A' for Active; 'I' for Inactive)
REMARK    1  A    between atoms: N_7  and  C_14 
REMARK    2  A    between atoms: C_8  and  C_10 
REMARK       I    between atoms: C_10  and  N_11 
REMARK    3  A    between atoms: N_11  and  C_12 
REMARK    4  A    between atoms: C_14  and  C_15 
REMARK    5  A    between atoms: C_19  and  O_22 
REMARK    6  A    between atoms: N_27  and  C_28 
ROOT
HETATM    1  C   UNK N   1      32.585  17.406   3.465  0.00  0.00     0.002 A 
HETATM    2  C   UNK N   1      32.424  17.552   4.856  0.00  0.00     0.030 A 
HETATM    3  C   UNK N   1      32.748  16.464   5.672  0.00  0.00     0.045 A 
HETATM    4  C   UNK N   1      33.192  15.291   5.138  0.00  0.00    -0.007 A 
HETATM    5  C   UNK N   1      33.358  15.109   3.770  0.00  0.00     0.014 A 
HETATM    6  C   UNK N   1      33.051  16.188   2.924  0.00  0.00     0.001 A 
HETATM    7  N   UNK N   1      32.677  16.380   7.020  0.00  0.00    -0.337 N 
HETATM    8  C   UNK N   1      33.075  15.104   7.336  0.00  0.00     0.104 A 
HETATM    9  C   UNK N   1      33.414  14.414   6.166  0.00  0.00     0.049 A 
ENDROOT
BRANCH   8  10
HETATM   10  C   UNK N   1      33.199  14.397   8.657  0.00  0.00     0.268 C 
HETATM   11  N   UNK N   1      34.202  14.516   9.562  0.00  0.00    -0.351 N 
HETATM   12  H   UNK N   1      34.112  13.933  10.350  0.00  0.00     0.163 HD
HETATM   13  O   UNK N   1      32.269  13.666   8.969  0.00  0.00    -0.266 OA
BRANCH  11  14
HETATM   14  C   UNK N   1      35.375  15.351   9.566  0.00  0.00     0.088 C 
HETATM   15  C   UNK N   1      36.615  14.462   9.554  0.00  0.00     0.055 C 
HETATM   16  C   UNK N   1      36.600  13.518  10.766  0.00  0.00     0.275 C 
HETATM   17  N   UNK N   1      36.505  14.234  12.052  0.00  0.00     0.092 N 
HETATM   18  C   UNK N   1      35.351  15.150  12.043  0.00  0.00     0.275 C 
HETATM   19  C   UNK N   1      35.408  16.133  10.871  0.00  0.00     0.055 C 
BRANCH  17  20
HETATM   20  C   UNK N   1      36.301  13.196  13.079  0.00  0.00     0.215 C 
HETATM   21  C   UNK N   1      36.479  13.784  14.469  0.00  0.00     0.042 C 
HETATM   22  C   UNK N   1      34.922  12.542  13.024  0.00  0.00     0.042 C 
ENDBRANCH  17  20
ENDBRANCH  11  14
ENDBRANCH   8  10
BRANCH   7  23
HETATM   23  C   UNK N   1      32.227  17.471   7.884  0.00  0.00     0.168 C 
BRANCH  23  24
HETATM   24  C   UNK N   1      30.774  17.388   8.281  0.00  0.00    -0.037 A 
HETATM   25  C   UNK N   1      30.389  17.123   9.602  0.00  0.00     0.009 A 
HETATM   26  C   UNK N   1      29.039  17.122   9.961  0.00  0.00     0.003 A 
HETATM   27  C   UNK N   1      28.064  17.415   9.006  0.00  0.00     0.037 A 
HETATM   28  C   UNK N   1      28.436  17.701   7.681  0.00  0.00     0.068 A 
HETATM   29  C   UNK N   1      29.791  17.680   7.328  0.00  0.00     0.045 A 
BRANCH  28  30
HETATM   30  O   UNK N   1      27.515  18.015   6.739  0.00  0.00    -0.356 OA
HETATM   31  C   UNK N   1      27.844  18.347   5.444  0.00  0.00     0.210 C 
ENDBRANCH  28  30
ENDBRANCH  23  24
ENDBRANCH   7  23
TORSDOF 6
ENDMDL
