MODEL 1
REMARK VINA RESULT:      -7.8      0.000      0.000
REMARK  6 active torsions:
REMARK  status: ('A' for Active; 'I' for Inactive)
REMARK    1  A    between atoms: N_7  and  C_21 
REMARK    2  A    between atoms: C_8  and  C_10 
REMARK       I    between atoms: C_10  and  N_11 
REMARK    3  A    between atoms: N_11  and  C_12 
REMARK    4  A    between atoms: N_15  and  C_18 
REMARK    5  A    between atoms: C_21  and  C_22 
REMARK       I    between atoms: C_22  and  N_29 
REMARK    6  A    between atoms: C_25  and  N_29 
ROOT
HETATM    1  C   UNK N   1      19.742  18.110   3.015  0.00  0.00     0.002 A 
HETATM    2  C   UNK N   1      20.840  17.310   3.376  0.00  0.00     0.030 A 
HETATM    3  C   UNK N   1      22.070  17.941   3.568  0.00  0.00     0.045 A 
HETATM    4  C   UNK N   1      22.218  19.296   3.433  0.00  0.00    -0.007 A 
HETATM    5  C   UNK N   1      21.146  20.116   3.086  0.00  0.00     0.014 A 
HETATM    6  C   UNK N   1      19.895  19.508   2.869  0.00  0.00     0.001 A 
HETATM    7  N   UNK N   1      23.242  17.382   3.908  0.00  0.00    -0.333 N 
HETATM    8  C   UNK N   1      24.146  18.392   3.993  0.00  0.00     0.104 A 
HETATM    9  C   UNK N   1      23.537  19.618   3.711  0.00  0.00     0.049 A 
ENDROOT
BRANCH   8  10
HETATM   10  C   UNK N   1      25.567  18.186   4.350  0.00  0.00     0.268 C 
HETATM   11  N   UNK N   1      25.982  18.174   5.646  0.00  0.00    -0.351 N 
HETATM   12  H   UNK N   1      25.330  18.301   6.372  0.00  0.00     0.163 HD
HETATM   13  O   UNK N   1      26.379  18.011   3.452  0.00  0.00    -0.266 OA
BRANCH  11  14
HETATM   14  C   UNK N   1      27.385  17.974   5.960  0.00  0.00     0.088 C 
HETATM   15  C   UNK N   1      27.658  16.556   6.410  0.00  0.00     0.055 C 
HETATM   16  C   UNK N   1      29.158  16.362   6.304  0.00  0.00     0.275 C 
HETATM   17  N   UNK N   1      29.968  17.423   6.945  0.00  0.00     0.092 N 
HETATM   18  C   UNK N   1      29.165  18.391   7.736  0.00  0.00     0.275 C 
HETATM   19  C   UNK N   1      27.900  18.932   7.026  0.00  0.00     0.055 C 
BRANCH  17  20
HETATM   20  C   UNK N   1      30.899  16.742   7.864  0.00  0.00     0.215 C 
HETATM   21  C   UNK N   1      31.976  17.683   8.381  0.00  0.00     0.042 C 
HETATM   22  C   UNK N   1      31.604  15.560   7.202  0.00  0.00     0.042 C 
ENDBRANCH  17  20
ENDBRANCH  11  14
ENDBRANCH   8  10
BRANCH   7  23
HETATM   23  C   UNK N   1      23.512  15.981   4.242  0.00  0.00     0.232 C 
BRANCH  23  24
HETATM   24  C   UNK N   1      23.274  15.577   5.662  0.00  0.00     0.240 C 
HETATM   25  N   UNK N   1      22.044  15.099   5.978  0.00  0.00    -0.326 N 
HETATM   26  H   UNK N   1      21.334  15.220   5.307  0.00  0.00     0.169 HD
HETATM   27  O   UNK N   1      24.164  15.646   6.499  0.00  0.00    -0.271 OA
BRANCH  25  28
HETATM   28  C   UNK N   1      21.681  14.441   7.182  0.00  0.00     0.034 A 
HETATM   29  C   UNK N   1      21.145  15.146   8.272  0.00  0.00     0.031 A 
HETATM   30  C   UNK N   1      20.921  14.497   9.489  0.00  0.00     0.026 A 
HETATM   31  C   UNK N   1      21.236  13.142   9.625  0.00  0.00     0.034 A 
HETATM   32  C   UNK N   1      21.765  12.435   8.543  0.00  0.00     0.026 A 
HETATM   33 Cl   UNK N   1      20.991  12.338  11.159  0.00  0.00    -0.084 Cl
HETATM   34  C   UNK N   1      21.996  13.085   7.329  0.00  0.00     0.031 A 
ENDBRANCH  25  28
ENDBRANCH  23  24
ENDBRANCH   7  23
TORSDOF 6
ENDMDL
MODEL 2
REMARK VINA RESULT:      -7.1      6.970     13.382
REMARK  6 active torsions:
REMARK  status: ('A' for Active; 'I' for Inactive)
REMARK    1  A    between atoms: N_7  and  C_21 
REMARK    2  A    between atoms: C_8  and  C_10 
REMARK       I    between atoms: C_10  and  N_11 
REMARK    3  A    between atoms: N_11  and  C_12 
REMARK    4  A    between atoms: N_15  and  C_18 
REMARK    5  A    between atoms: C_21  and  C_22 
REMARK       I    between atoms: C_22  and  N_29 
REMARK    6  A    between atoms: C_25  and  N_29 
ROOT
HETATM    1  C   UNK N   1      39.183  12.054   9.474  0.00  0.00     0.002 A 
HETATM    2  C   UNK N   1      38.350  13.124   9.848  0.00  0.00     0.030 A 
HETATM    3  C   UNK N   1      37.368  13.530   8.945  0.00  0.00     0.045 A 
HETATM    4  C   UNK N   1      37.193  12.909   7.736  0.00  0.00    -0.007 A 
HETATM    5  C   UNK N   1      37.997  11.841   7.341  0.00  0.00     0.014 A 
HETATM    6  C   UNK N   1      39.008  11.417   8.225  0.00  0.00     0.001 A 
HETATM    7  N   UNK N   1      36.473  14.520   9.086  0.00  0.00    -0.333 N 
HETATM    8  C   UNK N   1      35.718  14.528   7.958  0.00  0.00     0.104 A 
HETATM    9  C   UNK N   1      36.134  13.519   7.084  0.00  0.00     0.049 A 
ENDROOT
BRANCH   8  10
HETATM   10  C   UNK N   1      34.609  15.480   7.726  0.00  0.00     0.268 C 
HETATM   11  N   UNK N   1      33.326  15.176   8.063  0.00  0.00    -0.351 N 
HETATM   12  H   UNK N   1      33.119  14.307   8.475  0.00  0.00     0.163 HD
HETATM   13  O   UNK N   1      34.864  16.569   7.228  0.00  0.00    -0.266 OA
BRANCH  11  14
HETATM   14  C   UNK N   1      32.262  16.132   7.816  0.00  0.00     0.088 C 
HETATM   15  C   UNK N   1      31.298  16.204   8.980  0.00  0.00     0.055 C 
HETATM   16  C   UNK N   1      30.510  17.486   8.795  0.00  0.00     0.275 C 
HETATM   17  N   UNK N   1      29.927  17.667   7.446  0.00  0.00     0.092 N 
HETATM   18  C   UNK N   1      30.065  16.473   6.572  0.00  0.00     0.275 C 
HETATM   19  C   UNK N   1      31.474  15.834   6.549  0.00  0.00     0.055 C 
BRANCH  17  20
HETATM   20  C   UNK N   1      28.489  17.927   7.642  0.00  0.00     0.215 C 
HETATM   21  C   UNK N   1      28.141  18.117   9.109  0.00  0.00     0.042 C 
HETATM   22  C   UNK N   1      27.616  16.793   7.108  0.00  0.00     0.042 C 
ENDBRANCH  17  20
ENDBRANCH  11  14
ENDBRANCH   8  10
BRANCH   7  23
HETATM   23  C   UNK N   1      36.246  15.373  10.257  0.00  0.00     0.232 C 
BRANCH  23  24
HETATM   24  C   UNK N   1      35.686  14.701  11.470  0.00  0.00     0.240 C 
HETATM   25  N   UNK N   1      36.565  14.292  12.420  0.00  0.00    -0.326 N 
HETATM   26  H   UNK N   1      37.518  14.292  12.172  0.00  0.00     0.169 HD
HETATM   27  O   UNK N   1      34.480  14.556  11.616  0.00  0.00    -0.271 OA
BRANCH  25  28
HETATM   28  C   UNK N   1      36.245  13.865  13.734  0.00  0.00     0.034 A 
HETATM   29  C   UNK N   1      35.212  12.945  13.977  0.00  0.00     0.031 A 
HETATM   30  C   UNK N   1      34.832  12.644  15.287  0.00  0.00     0.026 A 
HETATM   31  C   UNK N   1      35.477  13.263  16.362  0.00  0.00     0.034 A 
HETATM   32  C   UNK N   1      36.509  14.175  16.126  0.00  0.00     0.026 A 
HETATM   33 Cl   UNK N   1      34.977  12.914  18.001  0.00  0.00    -0.084 Cl
HETATM   34  C   UNK N   1      36.884  14.481  14.816  0.00  0.00     0.031 A 
ENDBRANCH  25  28
ENDBRANCH  23  24
ENDBRANCH   7  23
TORSDOF 6
ENDMDL
MODEL 3
REMARK VINA RESULT:      -7.0     10.312     14.841
REMARK  6 active torsions:
REMARK  status: ('A' for Active; 'I' for Inactive)
REMARK    1  A    between atoms: N_7  and  C_21 
REMARK    2  A    between atoms: C_8  and  C_10 
REMARK       I    between atoms: C_10  and  N_11 
REMARK    3  A    between atoms: N_11  and  C_12 
REMARK    4  A    between atoms: N_15  and  C_18 
REMARK    5  A    between atoms: C_21  and  C_22 
REMARK       I    between atoms: C_22  and  N_29 
REMARK    6  A    between atoms: C_25  and  N_29 
ROOT
HETATM    1  C   UNK N   1      36.301  10.047  17.868  0.00  0.00     0.002 A 
HETATM    2  C   UNK N   1      36.665  10.249  16.525  0.00  0.00     0.030 A 
HETATM    3  C   UNK N   1      36.249  11.429  15.908  0.00  0.00     0.045 A 
HETATM    4  C   UNK N   1      35.524  12.380  16.578  0.00  0.00    -0.007 A 
HETATM    5  C   UNK N   1      35.156  12.213  17.911  0.00  0.00     0.014 A 
HETATM    6  C   UNK N   1      35.547  11.024  18.557  0.00  0.00     0.001 A 
HETATM    7  N   UNK N   1      36.475  11.827  14.646  0.00  0.00    -0.333 N 
HETATM    8  C   UNK N   1      35.890  13.045  14.510  0.00  0.00     0.104 A 
HETATM    9  C   UNK N   1      35.288  13.435  15.711  0.00  0.00     0.049 A 
ENDROOT
BRANCH   8  10
HETATM   10  C   UNK N   1      35.919  13.827  13.255  0.00  0.00     0.268 C 
HETATM   11  N   UNK N   1      35.235  13.427  12.149  0.00  0.00    -0.351 N 
HETATM   12  H   UNK N   1      34.702  12.601  12.173  0.00  0.00     0.163 HD
HETATM   13  O   UNK N   1      36.567  14.865  13.224  0.00  0.00    -0.266 OA
BRANCH  11  14
HETATM   14  C   UNK N   1      35.290  14.217  10.932  0.00  0.00     0.088 C 
HETATM   15  C   UNK N   1      34.277  15.340  10.953  0.00  0.00     0.055 C 
HETATM   16  C   UNK N   1      34.701  16.309   9.866  0.00  0.00     0.275 C 
HETATM   17  N   UNK N   1      34.968  15.687   8.549  0.00  0.00     0.092 N 
HETATM   18  C   UNK N   1      34.594  14.251   8.481  0.00  0.00     0.275 C 
HETATM   19  C   UNK N   1      35.075  13.389   9.674  0.00  0.00     0.055 C 
BRANCH  17  20
HETATM   20  C   UNK N   1      34.150  16.421   7.565  0.00  0.00     0.215 C 
HETATM   21  C   UNK N   1      34.151  17.918   7.829  0.00  0.00     0.042 C 
HETATM   22  C   UNK N   1      32.694  15.958   7.563  0.00  0.00     0.042 C 
ENDBRANCH  17  20
ENDBRANCH  11  14
ENDBRANCH   8  10
BRANCH   7  23
HETATM   23  C   UNK N   1      37.283  11.162  13.620  0.00  0.00     0.232 C 
BRANCH  23  24
HETATM   24  C   UNK N   1      36.532  10.470  12.527  0.00  0.00     0.240 C 
HETATM   25  N   UNK N   1      35.553   9.605  12.892  0.00  0.00    -0.326 N 
HETATM   26  H   UNK N   1      35.521   9.346  13.841  0.00  0.00     0.169 HD
HETATM   27  O   UNK N   1      36.771  10.701  11.349  0.00  0.00    -0.271 OA
BRANCH  25  28
HETATM   28  C   UNK N   1      34.570   9.038  12.039  0.00  0.00     0.034 A 
HETATM   29  C   UNK N   1      34.598   7.679  11.689  0.00  0.00     0.031 A 
HETATM   30  C   UNK N   1      33.698   7.177  10.744  0.00  0.00     0.026 A 
HETATM   31  C   UNK N   1      32.770   8.032  10.141  0.00  0.00     0.034 A 
HETATM   32  C   UNK N   1      32.736   9.384  10.490  0.00  0.00     0.026 A 
HETATM   33 Cl   UNK N   1      31.669   7.412   8.932  0.00  0.00    -0.084 Cl
HETATM   34  C   UNK N   1      33.639   9.887  11.428  0.00  0.00     0.031 A 
ENDBRANCH  25  28
ENDBRANCH  23  24
ENDBRANCH   7  23
TORSDOF 6
ENDMDL
MODEL 4
REMARK VINA RESULT:      -7.0      7.388     10.895
REMARK  6 active torsions:
REMARK  status: ('A' for Active; 'I' for Inactive)
REMARK    1  A    between atoms: N_7  and  C_21 
REMARK    2  A    between atoms: C_8  and  C_10 
REMARK       I    between atoms: C_10  and  N_11 
REMARK    3  A    between atoms: N_11  and  C_12 
REMARK    4  A    between atoms: N_15  and  C_18 
REMARK    5  A    between atoms: C_21  and  C_22 
REMARK       I    between atoms: C_22  and  N_29 
REMARK    6  A    between atoms: C_25  and  N_29 
ROOT
HETATM    1  C   UNK N   1      29.322  18.627   9.504  0.00  0.00     0.002 A 
HETATM    2  C   UNK N   1      30.673  18.526   9.129  0.00  0.00     0.030 A 
HETATM    3  C   UNK N   1      30.983  17.737   8.020  0.00  0.00     0.045 A 
HETATM    4  C   UNK N   1      30.014  17.092   7.297  0.00  0.00    -0.007 A 
HETATM    5  C   UNK N   1      28.667  17.181   7.639  0.00  0.00     0.014 A 
HETATM    6  C   UNK N   1      28.323  17.956   8.763  0.00  0.00     0.001 A 
HETATM    7  N   UNK N   1      32.191  17.495   7.489  0.00  0.00    -0.333 N 
HETATM    8  C   UNK N   1      31.991  16.689   6.415  0.00  0.00     0.104 A 
HETATM    9  C   UNK N   1      30.629  16.419   6.253  0.00  0.00     0.049 A 
ENDROOT
BRANCH   8  10
HETATM   10  C   UNK N   1      33.086  16.195   5.551  0.00  0.00     0.268 C 
HETATM   11  N   UNK N   1      33.798  15.079   5.868  0.00  0.00    -0.351 N 
HETATM   12  H   UNK N   1      33.585  14.578   6.687  0.00  0.00     0.163 HD
HETATM   13  O   UNK N   1      33.343  16.806   4.522  0.00  0.00    -0.266 OA
BRANCH  11  14
HETATM   14  C   UNK N   1      34.869  14.626   4.999  0.00  0.00     0.088 C 
HETATM   15  C   UNK N   1      34.570  13.265   4.412  0.00  0.00     0.055 C 
HETATM   16  C   UNK N   1      35.519  13.095   3.241  0.00  0.00     0.275 C 
HETATM   17  N   UNK N   1      36.939  13.382   3.547  0.00  0.00     0.092 N 
HETATM   18  C   UNK N   1      37.205  13.608   4.990  0.00  0.00     0.275 C 
HETATM   19  C   UNK N   1      36.219  14.570   5.698  0.00  0.00     0.055 C 
BRANCH  17  20
HETATM   20  C   UNK N   1      37.708  12.199   3.119  0.00  0.00     0.215 C 
HETATM   21  C   UNK N   1      38.592  11.663   4.234  0.00  0.00     0.042 C 
HETATM   22  C   UNK N   1      38.610  12.496   1.922  0.00  0.00     0.042 C 
ENDBRANCH  17  20
ENDBRANCH  11  14
ENDBRANCH   8  10
BRANCH   7  23
HETATM   23  C   UNK N   1      33.483  18.060   7.888  0.00  0.00     0.232 C 
BRANCH  23  24
HETATM   24  C   UNK N   1      34.242  17.310   8.936  0.00  0.00     0.240 C 
HETATM   25  N   UNK N   1      33.889  16.019   9.159  0.00  0.00    -0.326 N 
HETATM   26  H   UNK N   1      33.043  15.714   8.757  0.00  0.00     0.169 HD
HETATM   27  O   UNK N   1      35.167  17.830   9.545  0.00  0.00    -0.271 OA
BRANCH  25  28
HETATM   28  C   UNK N   1      34.619  15.065   9.915  0.00  0.00     0.034 A 
HETATM   29  C   UNK N   1      34.411  14.907  11.295  0.00  0.00     0.031 A 
HETATM   30  C   UNK N   1      35.235  14.056  12.037  0.00  0.00     0.026 A 
HETATM   31  C   UNK N   1      36.273  13.364  11.407  0.00  0.00     0.034 A 
HETATM   32  C   UNK N   1      36.481  13.515  10.034  0.00  0.00     0.026 A 
HETATM   33 Cl   UNK N   1      37.328  12.329  12.342  0.00  0.00    -0.084 Cl
HETATM   34  C   UNK N   1      35.662  14.370   9.293  0.00  0.00     0.031 A 
ENDBRANCH  25  28
ENDBRANCH  23  24
ENDBRANCH   7  23
TORSDOF 6
ENDMDL
MODEL 5
REMARK VINA RESULT:      -7.0      4.272      8.814
REMARK  6 active torsions:
REMARK  status: ('A' for Active; 'I' for Inactive)
REMARK    1  A    between atoms: N_7  and  C_21 
REMARK    2  A    between atoms: C_8  and  C_10 
REMARK       I    between atoms: C_10  and  N_11 
REMARK    3  A    between atoms: N_11  and  C_12 
REMARK    4  A    between atoms: N_15  and  C_18 
REMARK    5  A    between atoms: C_21  and  C_22 
REMARK       I    between atoms: C_22  and  N_29 
REMARK    6  A    between atoms: C_25  and  N_29 
ROOT
HETATM    1  C   UNK N   1      33.037  17.928   8.243  0.00  0.00     0.002 A 
HETATM    2  C   UNK N   1      31.701  17.676   7.886  0.00  0.00     0.030 A 
HETATM    3  C   UNK N   1      31.451  17.181   6.606  0.00  0.00     0.045 A 
HETATM    4  C   UNK N   1      32.463  16.927   5.717  0.00  0.00    -0.007 A 
HETATM    5  C   UNK N   1      33.797  17.159   6.045  0.00  0.00     0.014 A 
HETATM    6  C   UNK N   1      34.081  17.673   7.325  0.00  0.00     0.001 A 
HETATM    7  N   UNK N   1      30.267  16.875   6.054  0.00  0.00    -0.333 N 
HETATM    8  C   UNK N   1      30.526  16.417   4.802  0.00  0.00     0.104 A 
HETATM    9  C   UNK N   1      31.902  16.425   4.554  0.00  0.00     0.049 A 
ENDROOT
BRANCH   8  10
HETATM   10  C   UNK N   1      29.474  15.970   3.863  0.00  0.00     0.268 C 
HETATM   11  N   UNK N   1      28.900  14.740   3.967  0.00  0.00    -0.351 N 
HETATM   12  H   UNK N   1      29.182  14.126   4.683  0.00  0.00     0.163 HD
HETATM   13  O   UNK N   1      29.108  16.736   2.982  0.00  0.00    -0.266 OA
BRANCH  11  14
HETATM   14  C   UNK N   1      27.874  14.332   3.026  0.00  0.00     0.088 C 
HETATM   15  C   UNK N   1      26.489  14.463   3.622  0.00  0.00     0.055 C 
HETATM   16  C   UNK N   1      25.523  14.417   2.454  0.00  0.00     0.275 C 
HETATM   17  N   UNK N   1      25.734  13.289   1.518  0.00  0.00     0.092 N 
HETATM   18  C   UNK N   1      26.736  12.300   1.991  0.00  0.00     0.275 C 
HETATM   19  C   UNK N   1      28.057  12.907   2.525  0.00  0.00     0.055 C 
BRANCH  17  20
HETATM   20  C   UNK N   1      24.436  12.600   1.393  0.00  0.00     0.215 C 
HETATM   21  C   UNK N   1      24.579  11.091   1.514  0.00  0.00     0.042 C 
HETATM   22  C   UNK N   1      23.753  12.889   0.057  0.00  0.00     0.042 C 
ENDBRANCH  17  20
ENDBRANCH  11  14
ENDBRANCH   8  10
BRANCH   7  23
HETATM   23  C   UNK N   1      28.943  16.904   6.682  0.00  0.00     0.232 C 
BRANCH  23  24
HETATM   24  C   UNK N   1      28.007  17.971   6.211  0.00  0.00     0.240 C 
HETATM   25  N   UNK N   1      27.261  17.706   5.109  0.00  0.00    -0.326 N 
HETATM   26  H   UNK N   1      27.513  16.913   4.582  0.00  0.00     0.169 HD
HETATM   27  O   UNK N   1      27.894  19.028   6.816  0.00  0.00    -0.271 OA
BRANCH  25  28
HETATM   28  C   UNK N   1      26.154  18.460   4.641  0.00  0.00     0.034 A 
HETATM   29  C   UNK N   1      24.832  18.047   4.873  0.00  0.00     0.031 A 
HETATM   30  C   UNK N   1      23.766  18.736   4.289  0.00  0.00     0.026 A 
HETATM   31  C   UNK N   1      24.015  19.838   3.466  0.00  0.00     0.034 A 
HETATM   32  C   UNK N   1      25.327  20.257   3.236  0.00  0.00     0.026 A 
HETATM   33 Cl   UNK N   1      22.683  20.678   2.704  0.00  0.00    -0.084 Cl
HETATM   34  C   UNK N   1      26.393  19.564   3.814  0.00  0.00     0.031 A 
ENDBRANCH  25  28
ENDBRANCH  23  24
ENDBRANCH   7  23
TORSDOF 6
ENDMDL
MODEL 6
REMARK VINA RESULT:      -6.9      8.573     14.688
REMARK  6 active torsions:
REMARK  status: ('A' for Active; 'I' for Inactive)
REMARK    1  A    between atoms: N_7  and  C_21 
REMARK    2  A    between atoms: C_8  and  C_10 
REMARK       I    between atoms: C_10  and  N_11 
REMARK    3  A    between atoms: N_11  and  C_12 
REMARK    4  A    between atoms: N_15  and  C_18 
REMARK    5  A    between atoms: C_21  and  C_22 
REMARK       I    between atoms: C_22  and  N_29 
REMARK    6  A    between atoms: C_25  and  N_29 
ROOT
HETATM    1  C   UNK N   1      40.890  10.173   8.816  0.00  0.00     0.002 A 
HETATM    2  C   UNK N   1      39.622  10.468   9.346  0.00  0.00     0.030 A 
HETATM    3  C   UNK N   1      39.079  11.724   9.073  0.00  0.00     0.045 A 
HETATM    4  C   UNK N   1      39.737  12.645   8.301  0.00  0.00    -0.007 A 
HETATM    5  C   UNK N   1      40.991  12.379   7.756  0.00  0.00     0.014 A 
HETATM    6  C   UNK N   1      41.573  11.125   8.026  0.00  0.00     0.001 A 
HETATM    7  N   UNK N   1      37.898  12.219   9.474  0.00  0.00    -0.333 N 
HETATM    8  C   UNK N   1      37.800  13.468   8.950  0.00  0.00     0.104 A 
HETATM    9  C   UNK N   1      38.937  13.772   8.195  0.00  0.00     0.049 A 
ENDROOT
BRANCH   8  10
HETATM   10  C   UNK N   1      36.632  14.351   9.161  0.00  0.00     0.268 C 
HETATM   11  N   UNK N   1      35.711  14.561   8.182  0.00  0.00    -0.351 N 
HETATM   12  H   UNK N   1      35.811  14.118   7.309  0.00  0.00     0.163 HD
HETATM   13  O   UNK N   1      36.493  14.892  10.250  0.00  0.00    -0.266 OA
BRANCH  11  14
HETATM   14  C   UNK N   1      34.579  15.438   8.422  0.00  0.00     0.088 C 
HETATM   15  C   UNK N   1      33.303  14.654   8.633  0.00  0.00     0.055 C 
HETATM   16  C   UNK N   1      32.319  15.616   9.270  0.00  0.00     0.275 C 
HETATM   17  N   UNK N   1      32.184  16.916   8.574  0.00  0.00     0.092 N 
HETATM   18  C   UNK N   1      32.901  16.975   7.275  0.00  0.00     0.275 C 
HETATM   19  C   UNK N   1      34.354  16.442   7.300  0.00  0.00     0.055 C 
BRANCH  17  20
HETATM   20  C   UNK N   1      30.745  17.106   8.313  0.00  0.00     0.215 C 
HETATM   21  C   UNK N   1      30.445  17.188   6.824  0.00  0.00     0.042 C 
HETATM   22  C   UNK N   1      30.201  18.377   8.961  0.00  0.00     0.042 C 
ENDBRANCH  17  20
ENDBRANCH  11  14
ENDBRANCH   8  10
BRANCH   7  23
HETATM   23  C   UNK N   1      36.843  11.539  10.230  0.00  0.00     0.232 C 
BRANCH  23  24
HETATM   24  C   UNK N   1      36.927  11.633  11.721  0.00  0.00     0.240 C 
HETATM   25  N   UNK N   1      36.241  12.636  12.323  0.00  0.00    -0.326 N 
HETATM   26  H   UNK N   1      35.886  13.345  11.739  0.00  0.00     0.169 HD
HETATM   27  O   UNK N   1      37.563  10.816  12.373  0.00  0.00    -0.271 OA
BRANCH  25  28
HETATM   28  C   UNK N   1      35.985  12.764  13.713  0.00  0.00     0.034 A 
HETATM   29  C   UNK N   1      34.861  12.171  14.310  0.00  0.00     0.031 A 
HETATM   30  C   UNK N   1      34.562  12.423  15.652  0.00  0.00     0.026 A 
HETATM   31  C   UNK N   1      35.380  13.273  16.402  0.00  0.00     0.034 A 
HETATM   32  C   UNK N   1      36.502  13.862  15.814  0.00  0.00     0.026 A 
HETATM   33 Cl   UNK N   1      34.986  13.618  18.071  0.00  0.00    -0.084 Cl
HETATM   34  C   UNK N   1      36.797  13.615  14.471  0.00  0.00     0.031 A 
ENDBRANCH  25  28
ENDBRANCH  23  24
ENDBRANCH   7  23
TORSDOF 6
ENDMDL
MODEL 7
REMARK VINA RESULT:      -6.9     10.787     15.800
REMARK  6 active torsions:
REMARK  status: ('A' for Active; 'I' for Inactive)
REMARK    1  A    between atoms: N_7  and  C_21 
REMARK    2  A    between atoms: C_8  and  C_10 
REMARK       I    between atoms: C_10  and  N_11 
REMARK    3  A    between atoms: N_11  and  C_12 
REMARK    4  A    between atoms: N_15  and  C_18 
REMARK    5  A    between atoms: C_21  and  C_22 
REMARK       I    between atoms: C_22  and  N_29 
REMARK    6  A    between atoms: C_25  and  N_29 
ROOT
HETATM    1  C   UNK N   1      35.104  10.024  17.977  0.00  0.00     0.002 A 
HETATM    2  C   UNK N   1      35.214  10.023  16.576  0.00  0.00     0.030 A 
HETATM    3  C   UNK N   1      35.356  11.253  15.933  0.00  0.00     0.045 A 
HETATM    4  C   UNK N   1      35.409  12.432  16.628  0.00  0.00    -0.007 A 
HETATM    5  C   UNK N   1      35.312  12.465  18.018  0.00  0.00     0.014 A 
HETATM    6  C   UNK N   1      35.151  11.241  18.695  0.00  0.00     0.001 A 
HETATM    7  N   UNK N   1      35.473  11.489  14.617  0.00  0.00    -0.333 N 
HETATM    8  C   UNK N   1      35.603  12.833  14.472  0.00  0.00     0.104 A 
HETATM    9  C   UNK N   1      35.578  13.464  15.719  0.00  0.00     0.049 A 
ENDROOT
BRANCH   8  10
HETATM   10  C   UNK N   1      35.762  13.500  13.161  0.00  0.00     0.268 C 
HETATM   11  N   UNK N   1      34.768  13.493  12.231  0.00  0.00    -0.351 N 
HETATM   12  H   UNK N   1      33.917  13.039  12.427  0.00  0.00     0.163 HD
HETATM   13  O   UNK N   1      36.813  14.080  12.920  0.00  0.00    -0.266 OA
BRANCH  11  14
HETATM   14  C   UNK N   1      34.959  14.153  10.954  0.00  0.00     0.088 C 
HETATM   15  C   UNK N   1      34.312  15.520  10.932  0.00  0.00     0.055 C 
HETATM   16  C   UNK N   1      34.918  16.253   9.750  0.00  0.00     0.275 C 
HETATM   17  N   UNK N   1      34.903  15.498   8.477  0.00  0.00     0.092 N 
HETATM   18  C   UNK N   1      34.132  14.230   8.545  0.00  0.00     0.275 C 
HETATM   19  C   UNK N   1      34.429  13.344   9.779  0.00  0.00     0.055 C 
BRANCH  17  20
HETATM   20  C   UNK N   1      34.261  16.372   7.478  0.00  0.00     0.215 C 
HETATM   21  C   UNK N   1      34.185  17.815   7.950  0.00  0.00     0.042 C 
HETATM   22  C   UNK N   1      32.839  15.924   7.145  0.00  0.00     0.042 C 
ENDBRANCH  17  20
ENDBRANCH  11  14
ENDBRANCH   8  10
BRANCH   7  23
HETATM   23  C   UNK N   1      35.561  10.513  13.527  0.00  0.00     0.232 C 
BRANCH  23  24
HETATM   24  C   UNK N   1      36.825  10.522  12.726  0.00  0.00     0.240 C 
HETATM   25  N   UNK N   1      36.710  10.660  11.381  0.00  0.00    -0.326 N 
HETATM   26  H   UNK N   1      35.808  10.558  11.000  0.00  0.00     0.169 HD
HETATM   27  O   UNK N   1      37.919  10.441  13.267  0.00  0.00    -0.271 OA
BRANCH  25  28
HETATM   28  C   UNK N   1      37.764  10.937  10.472  0.00  0.00     0.034 A 
HETATM   29  C   UNK N   1      38.541   9.910   9.913  0.00  0.00     0.031 A 
HETATM   30  C   UNK N   1      39.654  10.218   9.126  0.00  0.00     0.026 A 
HETATM   31  C   UNK N   1      39.999  11.553   8.897  0.00  0.00     0.034 A 
HETATM   32  C   UNK N   1      39.226  12.579   9.447  0.00  0.00     0.026 A 
HETATM   33 Cl   UNK N   1      41.413  11.939   7.943  0.00  0.00    -0.084 Cl
HETATM   34  C   UNK N   1      38.118  12.271  10.239  0.00  0.00     0.031 A 
ENDBRANCH  25  28
ENDBRANCH  23  24
ENDBRANCH   7  23
TORSDOF 6
ENDMDL
MODEL 8
REMARK VINA RESULT:      -6.8      4.068      7.113
REMARK  6 active torsions:
REMARK  status: ('A' for Active; 'I' for Inactive)
REMARK    1  A    between atoms: N_7  and  C_21 
REMARK    2  A    between atoms: C_8  and  C_10 
REMARK       I    between atoms: C_10  and  N_11 
REMARK    3  A    between atoms: N_11  and  C_12 
REMARK    4  A    between atoms: N_15  and  C_18 
REMARK    5  A    between atoms: C_21  and  C_22 
REMARK       I    between atoms: C_22  and  N_29 
REMARK    6  A    between atoms: C_25  and  N_29 
ROOT
HETATM    1  C   UNK N   1      21.141  12.155  11.760  0.00  0.00     0.002 A 
HETATM    2  C   UNK N   1      21.084  12.376  10.373  0.00  0.00     0.030 A 
HETATM    3  C   UNK N   1      22.283  12.345   9.660  0.00  0.00     0.045 A 
HETATM    4  C   UNK N   1      23.483  12.092  10.270  0.00  0.00    -0.007 A 
HETATM    5  C   UNK N   1      23.570  11.861  11.641  0.00  0.00     0.014 A 
HETATM    6  C   UNK N   1      22.379  11.901  12.392  0.00  0.00     0.001 A 
HETATM    7  N   UNK N   1      22.467  12.531   8.343  0.00  0.00    -0.333 N 
HETATM    8  C   UNK N   1      23.798  12.392   8.112  0.00  0.00     0.104 A 
HETATM    9  C   UNK N   1      24.474  12.104   9.301  0.00  0.00     0.049 A 
ENDROOT
BRANCH   8  10
HETATM   10  C   UNK N   1      24.410  12.521   6.771  0.00  0.00     0.268 C 
HETATM   11  N   UNK N   1      24.931  13.700   6.335  0.00  0.00    -0.351 N 
HETATM   12  H   UNK N   1      24.910  14.492   6.918  0.00  0.00     0.163 HD
HETATM   13  O   UNK N   1      24.454  11.534   6.048  0.00  0.00    -0.266 OA
BRANCH  11  14
HETATM   14  C   UNK N   1      25.520  13.792   5.011  0.00  0.00     0.088 C 
HETATM   15  C   UNK N   1      27.003  13.497   5.041  0.00  0.00     0.055 C 
HETATM   16  C   UNK N   1      27.405  13.217   3.606  0.00  0.00     0.275 C 
HETATM   17  N   UNK N   1      26.954  14.231   2.625  0.00  0.00     0.092 N 
HETATM   18  C   UNK N   1      26.348  15.435   3.249  0.00  0.00     0.275 C 
HETATM   19  C   UNK N   1      25.305  15.148   4.356  0.00  0.00     0.055 C 
BRANCH  17  20
HETATM   20  C   UNK N   1      28.154  14.656   1.880  0.00  0.00     0.215 C 
HETATM   21  C   UNK N   1      29.089  13.491   1.598  0.00  0.00     0.042 C 
HETATM   22  C   UNK N   1      28.957  15.716   2.631  0.00  0.00     0.042 C 
ENDBRANCH  17  20
ENDBRANCH  11  14
ENDBRANCH   8  10
BRANCH   7  23
HETATM   23  C   UNK N   1      21.449  12.732   7.308  0.00  0.00     0.232 C 
BRANCH  23  24
HETATM   24  C   UNK N   1      21.038  14.146   7.045  0.00  0.00     0.240 C 
HETATM   25  N   UNK N   1      21.717  14.826   6.086  0.00  0.00    -0.326 N 
HETATM   26  H   UNK N   1      22.550  14.416   5.758  0.00  0.00     0.169 HD
HETATM   27  O   UNK N   1      20.105  14.658   7.647  0.00  0.00    -0.271 OA
BRANCH  25  28
HETATM   28  C   UNK N   1      21.344  16.068   5.512  0.00  0.00     0.034 A 
HETATM   29  C   UNK N   1      20.536  16.135   4.366  0.00  0.00     0.031 A 
HETATM   30  C   UNK N   1      20.294  17.364   3.746  0.00  0.00     0.026 A 
HETATM   31  C   UNK N   1      20.862  18.531   4.265  0.00  0.00     0.034 A 
HETATM   32  C   UNK N   1      21.662  18.471   5.408  0.00  0.00     0.026 A 
HETATM   33 Cl   UNK N   1      20.590  20.064   3.468  0.00  0.00    -0.084 Cl
HETATM   34  C   UNK N   1      21.909  17.242   6.023  0.00  0.00     0.031 A 
ENDBRANCH  25  28
ENDBRANCH  23  24
ENDBRANCH   7  23
TORSDOF 6
ENDMDL
MODEL 9
REMARK VINA RESULT:      -6.8     10.202     12.530
REMARK  6 active torsions:
REMARK  status: ('A' for Active; 'I' for Inactive)
REMARK    1  A    between atoms: N_7  and  C_21 
REMARK    2  A    between atoms: C_8  and  C_10 
REMARK       I    between atoms: C_10  and  N_11 
REMARK    3  A    between atoms: N_11  and  C_12 
REMARK    4  A    between atoms: N_15  and  C_18 
REMARK    5  A    between atoms: C_21  and  C_22 
REMARK       I    between atoms: C_22  and  N_29 
REMARK    6  A    between atoms: C_25  and  N_29 
ROOT
HETATM    1  C   UNK N   1      33.841  16.799   6.116  0.00  0.00     0.002 A 
HETATM    2  C   UNK N   1      34.309  15.597   6.674  0.00  0.00     0.030 A 
HETATM    3  C   UNK N   1      34.678  15.604   8.019  0.00  0.00     0.045 A 
HETATM    4  C   UNK N   1      34.576  16.731   8.792  0.00  0.00    -0.007 A 
HETATM    5  C   UNK N   1      34.108  17.934   8.270  0.00  0.00     0.014 A 
HETATM    6  C   UNK N   1      33.743  17.964   6.910  0.00  0.00     0.001 A 
HETATM    7  N   UNK N   1      35.151  14.584   8.752  0.00  0.00    -0.333 N 
HETATM    8  C   UNK N   1      35.351  15.065  10.006  0.00  0.00     0.104 A 
HETATM    9  C   UNK N   1      34.990  16.414  10.076  0.00  0.00     0.049 A 
ENDROOT
BRANCH   8  10
HETATM   10  C   UNK N   1      35.868  14.242  11.122  0.00  0.00     0.268 C 
HETATM   11  N   UNK N   1      35.059  13.821  12.133  0.00  0.00    -0.351 N 
HETATM   12  H   UNK N   1      34.105  14.060  12.130  0.00  0.00     0.163 HD
HETATM   13  O   UNK N   1      37.050  13.927  11.121  0.00  0.00    -0.266 OA
BRANCH  11  14
HETATM   14  C   UNK N   1      35.601  13.018  13.214  0.00  0.00     0.088 C 
HETATM   15  C   UNK N   1      34.613  11.971  13.678  0.00  0.00     0.055 C 
HETATM   16  C   UNK N   1      35.414  10.965  14.481  0.00  0.00     0.275 C 
HETATM   17  N   UNK N   1      36.286  11.554  15.523  0.00  0.00     0.092 N 
HETATM   18  C   UNK N   1      36.082  13.013  15.716  0.00  0.00     0.275 C 
HETATM   19  C   UNK N   1      36.032  13.849  14.414  0.00  0.00     0.055 C 
BRANCH  17  20
HETATM   20  C   UNK N   1      35.950  10.873  16.787  0.00  0.00     0.215 C 
HETATM   21  C   UNK N   1      34.991   9.713  16.569  0.00  0.00     0.042 C 
HETATM   22  C   UNK N   1      35.305  11.817  17.800  0.00  0.00     0.042 C 
ENDBRANCH  17  20
ENDBRANCH  11  14
ENDBRANCH   8  10
BRANCH   7  23
HETATM   23  C   UNK N   1      35.325  13.186   8.349  0.00  0.00     0.232 C 
BRANCH  23  24
HETATM   24  C   UNK N   1      34.125  12.302   8.480  0.00  0.00     0.240 C 
HETATM   25  N   UNK N   1      34.326  10.962   8.408  0.00  0.00    -0.326 N 
HETATM   26  H   UNK N   1      35.208  10.661   8.091  0.00  0.00     0.169 HD
HETATM   27  O   UNK N   1      33.012  12.768   8.677  0.00  0.00    -0.271 OA
BRANCH  25  28
HETATM   28  C   UNK N   1      33.389   9.951   8.745  0.00  0.00     0.034 A 
HETATM   29  C   UNK N   1      32.427   9.504   7.825  0.00  0.00     0.031 A 
HETATM   30  C   UNK N   1      31.434   8.606   8.225  0.00  0.00     0.026 A 
HETATM   31  C   UNK N   1      31.393   8.154   9.547  0.00  0.00     0.034 A 
HETATM   32  C   UNK N   1      32.350   8.592  10.466  0.00  0.00     0.026 A 
HETATM   33 Cl   UNK N   1      30.129   7.058  10.058  0.00  0.00    -0.084 Cl
HETATM   34  C   UNK N   1      33.338   9.495  10.068  0.00  0.00     0.031 A 
ENDBRANCH  25  28
ENDBRANCH  23  24
ENDBRANCH   7  23
TORSDOF 6
ENDMDL
