REMARK  6 active torsions:
REMARK  status: ('A' for Active; 'I' for Inactive)
REMARK    1  A    between atoms: N_7  and  C_21 
REMARK    2  A    between atoms: C_8  and  C_10 
REMARK       I    between atoms: C_10  and  N_11 
REMARK    3  A    between atoms: N_11  and  C_12 
REMARK    4  A    between atoms: N_15  and  C_18 
REMARK    5  A    between atoms: C_21  and  C_22 
REMARK       I    between atoms: C_22  and  N_29 
REMARK    6  A    between atoms: C_25  and  N_29 
ROOT
HETATM    1  C   UNK N   1       5.188   1.353  -0.575  0.00  0.00     0.002 A 
HETATM    2  C   UNK N   1       4.001   0.605  -0.665  0.00  0.00     0.030 A 
HETATM    3  C   UNK N   1       2.808   1.232  -0.304  0.00  0.00     0.045 A 
HETATM    4  C   UNK N   1       2.772   2.538   0.109  0.00  0.00    -0.007 A 
HETATM    5  C   UNK N   1       3.930   3.307   0.200  0.00  0.00     0.014 A 
HETATM    6  C   UNK N   1       5.153   2.698  -0.142  0.00  0.00     0.001 A 
HETATM    7  N   UNK N   1       1.569   0.716  -0.307  0.00  0.00    -0.333 N 
HETATM    8  C   UNK N   1       0.734   1.704   0.106  0.00  0.00     0.104 A 
HETATM    9  C   UNK N   1       1.453   2.874   0.369  0.00  0.00     0.049 A 
ENDROOT
BRANCH   8  10
HETATM   10  C   UNK N   1      -0.730   1.533   0.235  0.00  0.00     0.268 C 
HETATM   11  N   UNK N   1      -1.565   2.600   0.361  0.00  0.00    -0.351 N 
HETATM   12  H   UNK N   1      -1.198   3.513   0.364  0.00  0.00     0.163 HD
HETATM   13  O   UNK N   1      -1.193   0.400   0.215  0.00  0.00    -0.266 OA
BRANCH  11  14
HETATM   14  C   UNK N   1      -2.996   2.395   0.490  0.00  0.00     0.088 C 
HETATM   15  C   UNK N   1      -3.548   1.585  -0.662  0.00  0.00     0.055 C 
HETATM   16  C   UNK N   1      -4.912   1.095  -0.216  0.00  0.00     0.275 C 
HETATM   17  N   UNK N   1      -5.799   2.145   0.335  0.00  0.00     0.092 N 
HETATM   18  C   UNK N   1      -5.261   3.521   0.182  0.00  0.00     0.275 C 
HETATM   19  C   UNK N   1      -3.778   3.697   0.590  0.00  0.00     0.055 C 
BRANCH  17  20
HETATM   20  C   UNK N   1      -7.065   2.062  -0.417  0.00  0.00     0.215 C 
HETATM   21  C   UNK N   1      -8.099   3.049   0.101  0.00  0.00     0.042 C 
HETATM   22  C   UNK N   1      -7.688   0.669  -0.350  0.00  0.00     0.042 C 
ENDBRANCH  17  20
ENDBRANCH  11  14
ENDBRANCH   8  10
BRANCH   7  23
HETATM   23  C   UNK N   1       1.143  -0.609  -0.766  0.00  0.00     0.232 C 
BRANCH  23  24
HETATM   24  C   UNK N   1       1.775  -1.783  -0.088  0.00  0.00     0.240 C 
HETATM   25  N   UNK N   1       1.335  -3.018  -0.438  0.00  0.00    -0.326 N 
HETATM   26  H   UNK N   1       0.508  -3.060  -0.971  0.00  0.00     0.169 HD
HETATM   27  O   UNK N   1       2.676  -1.636   0.726  0.00  0.00    -0.271 OA
BRANCH  25  28
HETATM   28  C   UNK N   1       1.950  -4.254  -0.111  0.00  0.00     0.034 A 
HETATM   29  C   UNK N   1       3.292  -4.322   0.296  0.00  0.00     0.031 A 
HETATM   30  C   UNK N   1       3.909  -5.562   0.483  0.00  0.00     0.026 A 
HETATM   31  C   UNK N   1       3.190  -6.740   0.260  0.00  0.00     0.034 A 
HETATM   32  C   UNK N   1       1.853  -6.678  -0.140  0.00  0.00     0.026 A 
HETATM   33 Cl   UNK N   1       3.972  -8.292   0.458  0.00  0.00    -0.084 Cl
HETATM   34  C   UNK N   1       1.239  -5.439  -0.334  0.00  0.00     0.031 A 
ENDBRANCH  25  28
ENDBRANCH  23  24
ENDBRANCH   7  23
TORSDOF 6
