REMARK  7 active torsions:
REMARK  status: ('A' for Active; 'I' for Inactive)
REMARK    1  A    between atoms: C_3  and  O_27 
REMARK    2  A    between atoms: C_7  and  N_20 
REMARK       I    between atoms: C_10  and  N_20 
REMARK    3  A    between atoms: C_10  and  C_22 
REMARK    4  A    between atoms: C_11  and  C_24 
REMARK    5  A    between atoms: C_15  and  O_27 
REMARK    6  A    between atoms: C_17  and  C_18 
REMARK    7  A    between atoms: C_24  and  O_25 
ROOT
HETATM    1  C   UNK N   1       0.786  -0.546  -0.035  0.00  0.00     0.057 A 
HETATM    2  C   UNK N   1      -0.538  -0.920  -0.190  0.00  0.00     0.147 A 
HETATM    3  C   UNK N   1      -1.537   0.045  -0.374  0.00  0.00     0.113 A 
HETATM    4  C   UNK N   1      -1.156   1.412  -0.470  0.00  0.00     0.147 A 
HETATM    5  C   UNK N   1       0.185   1.775  -0.295  0.00  0.00     0.057 A 
HETATM    6  C   UNK N   1       1.159   0.800  -0.055  0.00  0.00    -0.020 A 
HETATM    7  F   UNK N   1      -0.857  -2.236  -0.122  0.00  0.00    -0.204 F 
HETATM    8  F   UNK N   1      -2.040   2.397  -0.749  0.00  0.00    -0.204 F 
ENDROOT
BRANCH   3   9
HETATM    9  N   UNK N   1      -2.884  -0.427  -0.428  0.00  0.00    -0.318 N 
HETATM   10  C   UNK N   1      -4.020   0.238  -0.091  0.00  0.00     0.253 C 
HETATM   11  O   UNK N   1      -3.974   1.399   0.271  0.00  0.00    -0.268 OA
HETATM   12  H   UNK N   1      -3.004  -1.349  -0.750  0.00  0.00     0.169 HD
BRANCH  10  13
HETATM   13  C   UNK N   1      -5.347  -0.447  -0.087  0.00  0.00     0.023 A 
HETATM   14  C   UNK N   1      -5.645  -1.756  -0.177  0.00  0.00     0.027 A 
HETATM   15  C   UNK N   1      -7.112  -1.992  -0.118  0.00  0.00     0.046 A 
HETATM   16  C   UNK N   1      -7.724  -0.607   0.051  0.00  0.00     0.010 A 
HETATM   17  C   UNK N   1      -6.570   0.387   0.074  0.00  0.00     0.045 A 
BRANCH  14  18
HETATM   18  C   UNK N   1      -4.742  -2.941  -0.275  0.00  0.00     0.172 C 
HETATM   19  O   UNK N   1      -3.532  -2.839  -0.223  0.00  0.00    -0.646 OA
BRANCH  18  20
HETATM   20  O   UNK N   1      -5.283  -4.171  -0.370  0.00  0.00    -0.773 OA
HETATM   21  H   UNK N   1      -6.213  -4.272  -0.437  0.00  0.00     0.167 HD
ENDBRANCH  18  20
ENDBRANCH  14  18
ENDBRANCH  10  13
ENDBRANCH   3   9
BRANCH   6  22
HETATM   22  C   UNK N   1       2.572   1.156   0.174  0.00  0.00    -0.023 A 
HETATM   23  C   UNK N   1       2.989   2.488   0.322  0.00  0.00     0.012 A 
HETATM   24  C   UNK N   1       4.345   2.779   0.521  0.00  0.00     0.004 A 
HETATM   25  C   UNK N   1       5.290   1.745   0.532  0.00  0.00     0.037 A 
HETATM   26  C   UNK N   1       4.874   0.411   0.375  0.00  0.00     0.079 A 
HETATM   27  C   UNK N   1       3.524   0.134   0.221  0.00  0.00     0.049 A 
BRANCH  26  28
HETATM   28  O   UNK N   1       5.743  -0.624   0.291  0.00  0.00    -0.255 OA
BRANCH  28  29
HETATM   29  C   UNK N   1       7.099  -0.502   0.087  0.00  0.00     0.530 C 
HETATM   30  F   UNK N   1       7.331   0.237  -1.060  0.00  0.00    -0.144 F 
HETATM   31  F   UNK N   1       7.634  -1.764  -0.084  0.00  0.00    -0.144 F 
HETATM   32  F   UNK N   1       7.703   0.107   1.171  0.00  0.00    -0.144 F 
ENDBRANCH  28  29
ENDBRANCH  26  28
ENDBRANCH   6  22
TORSDOF 7
