MODEL 1
REMARK VINA RESULT:      -8.4      0.000      0.000
REMARK  7 active torsions:
REMARK  status: ('A' for Active; 'I' for Inactive)
REMARK    1  A    between atoms: C_3  and  O_27 
REMARK    2  A    between atoms: C_7  and  N_20 
REMARK       I    between atoms: C_10  and  N_20 
REMARK    3  A    between atoms: C_10  and  C_22 
REMARK    4  A    between atoms: C_11  and  C_24 
REMARK    5  A    between atoms: C_15  and  O_27 
REMARK    6  A    between atoms: C_17  and  C_18 
REMARK    7  A    between atoms: C_24  and  O_25 
ROOT
HETATM    1  C   UNK N   1      27.298  17.139   5.554  0.00  0.00     0.057 A 
HETATM    2  C   UNK N   1      26.137  17.297   4.816  0.00  0.00     0.147 A 
HETATM    3  C   UNK N   1      25.544  18.559   4.678  0.00  0.00     0.113 A 
HETATM    4  C   UNK N   1      26.196  19.686   5.252  0.00  0.00     0.147 A 
HETATM    5  C   UNK N   1      27.361  19.506   6.008  0.00  0.00     0.057 A 
HETATM    6  C   UNK N   1      27.905  18.229   6.181  0.00  0.00    -0.020 A 
HETATM    7  F   UNK N   1      25.562  16.203   4.260  0.00  0.00    -0.204 F 
HETATM    8  F   UNK N   1      25.750  20.951   5.080  0.00  0.00    -0.204 F 
ENDROOT
BRANCH   3   9
HETATM    9  N   UNK N   1      24.298  18.611   3.982  0.00  0.00    -0.318 N 
HETATM   10  C   UNK N   1      23.049  18.419   4.481  0.00  0.00     0.253 C 
HETATM   11  O   UNK N   1      22.882  18.216   5.670  0.00  0.00    -0.268 OA
HETATM   12  H   UNK N   1      24.352  18.810   3.020  0.00  0.00     0.169 HD
BRANCH  10  13
HETATM   13  C   UNK N   1      21.854  18.384   3.587  0.00  0.00     0.023 A 
HETATM   14  C   UNK N   1      21.320  19.350   2.818  0.00  0.00     0.027 A 
HETATM   15  C   UNK N   1      20.126  18.866   2.076  0.00  0.00     0.046 A 
HETATM   16  C   UNK N   1      19.984  17.403   2.476  0.00  0.00     0.010 A 
HETATM   17  C   UNK N   1      21.112  17.100   3.453  0.00  0.00     0.045 A 
BRANCH  14  18
HETATM   18  C   UNK N   1      21.773  20.754   2.589  0.00  0.00     0.172 C 
HETATM   19  O   UNK N   1      22.885  21.134   2.899  0.00  0.00    -0.646 OA
BRANCH  18  20
HETATM   20  O   UNK N   1      20.945  21.617   1.969  0.00  0.00    -0.773 OA
HETATM   21  H   UNK N   1      20.496  22.275   2.464  0.00  0.00     0.167 HD
ENDBRANCH  18  20
ENDBRANCH  14  18
ENDBRANCH  10  13
ENDBRANCH   3   9
BRANCH   6  22
HETATM   22  C   UNK N   1      29.107  18.005   7.006  0.00  0.00    -0.023 A 
HETATM   23  C   UNK N   1      29.206  18.483   8.322  0.00  0.00     0.012 A 
HETATM   24  C   UNK N   1      30.375  18.260   9.061  0.00  0.00     0.004 A 
HETATM   25  C   UNK N   1      31.460  17.595   8.476  0.00  0.00     0.037 A 
HETATM   26  C   UNK N   1      31.364  17.122   7.155  0.00  0.00     0.079 A 
HETATM   27  C   UNK N   1      30.186  17.313   6.448  0.00  0.00     0.049 A 
BRANCH  26  28
HETATM   28  O   UNK N   1      32.403  16.549   6.503  0.00  0.00    -0.255 OA
BRANCH  28  29
HETATM   29  C   UNK N   1      33.438  17.235   5.908  0.00  0.00     0.530 C 
HETATM   30  F   UNK N   1      33.975  18.138   6.810  0.00  0.00    -0.144 F 
HETATM   31  F   UNK N   1      32.939  17.934   4.826  0.00  0.00    -0.144 F 
HETATM   32  F   UNK N   1      34.418  16.362   5.475  0.00  0.00    -0.144 F 
ENDBRANCH  28  29
ENDBRANCH  26  28
ENDBRANCH   6  22
TORSDOF 7
ENDMDL
MODEL 2
REMARK VINA RESULT:      -8.1     12.534     16.771
REMARK  7 active torsions:
REMARK  status: ('A' for Active; 'I' for Inactive)
REMARK    1  A    between atoms: C_3  and  O_27 
REMARK    2  A    between atoms: C_7  and  N_20 
REMARK       I    between atoms: C_10  and  N_20 
REMARK    3  A    between atoms: C_10  and  C_22 
REMARK    4  A    between atoms: C_11  and  C_24 
REMARK    5  A    between atoms: C_15  and  O_27 
REMARK    6  A    between atoms: C_17  and  C_18 
REMARK    7  A    between atoms: C_24  and  O_25 
ROOT
HETATM    1  C   UNK N   1      36.401  10.210  16.812  0.00  0.00     0.057 A 
HETATM    2  C   UNK N   1      36.788  10.871  15.658  0.00  0.00     0.147 A 
HETATM    3  C   UNK N   1      36.429  12.209  15.446  0.00  0.00     0.113 A 
HETATM    4  C   UNK N   1      35.720  12.896  16.469  0.00  0.00     0.147 A 
HETATM    5  C   UNK N   1      35.323  12.209  17.623  0.00  0.00     0.057 A 
HETATM    6  C   UNK N   1      35.642  10.858  17.790  0.00  0.00    -0.020 A 
HETATM    7  F   UNK N   1      37.489  10.189  14.719  0.00  0.00    -0.204 F 
HETATM    8  F   UNK N   1      35.424  14.214  16.392  0.00  0.00    -0.204 F 
ENDROOT
BRANCH   3   9
HETATM    9  N   UNK N   1      36.789  12.778  14.186  0.00  0.00    -0.318 N 
HETATM   10  C   UNK N   1      35.975  13.096  13.146  0.00  0.00     0.253 C 
HETATM   11  O   UNK N   1      34.770  12.948  13.234  0.00  0.00    -0.268 OA
HETATM   12  H   UNK N   1      37.747  12.963  14.056  0.00  0.00     0.169 HD
BRANCH  10  13
HETATM   13  C   UNK N   1      36.530  13.570  11.843  0.00  0.00     0.023 A 
HETATM   14  C   UNK N   1      36.114  14.561  11.035  0.00  0.00     0.027 A 
HETATM   15  C   UNK N   1      36.981  14.694   9.834  0.00  0.00     0.046 A 
HETATM   16  C   UNK N   1      38.056  13.629  10.010  0.00  0.00     0.010 A 
HETATM   17  C   UNK N   1      37.757  12.909  11.318  0.00  0.00     0.045 A 
BRANCH  14  18
HETATM   18  C   UNK N   1      34.984  15.524  11.200  0.00  0.00     0.172 C 
HETATM   19  O   UNK N   1      35.147  16.727  11.156  0.00  0.00    -0.646 OA
BRANCH  18  20
HETATM   20  O   UNK N   1      33.733  15.046  11.349  0.00  0.00    -0.773 OA
HETATM   21  H   UNK N   1      33.052  15.604  11.674  0.00  0.00     0.167 HD
ENDBRANCH  18  20
ENDBRANCH  14  18
ENDBRANCH  10  13
ENDBRANCH   3   9
BRANCH   6  22
HETATM   22  C   UNK N   1      35.201  10.098  18.975  0.00  0.00    -0.023 A 
HETATM   23  C   UNK N   1      35.961  10.053  20.154  0.00  0.00     0.012 A 
HETATM   24  C   UNK N   1      35.510   9.303  21.249  0.00  0.00     0.004 A 
HETATM   25  C   UNK N   1      34.322   8.567  21.153  0.00  0.00     0.037 A 
HETATM   26  C   UNK N   1      33.565   8.604  19.969  0.00  0.00     0.079 A 
HETATM   27  C   UNK N   1      34.002   9.384  18.908  0.00  0.00     0.049 A 
BRANCH  26  28
HETATM   28  O   UNK N   1      32.456   7.850  19.782  0.00  0.00    -0.255 OA
BRANCH  28  29
HETATM   29  C   UNK N   1      31.226   8.101  20.347  0.00  0.00     0.530 C 
HETATM   30  F   UNK N   1      30.227   7.788  19.442  0.00  0.00    -0.144 F 
HETATM   31  F   UNK N   1      31.145   9.447  20.646  0.00  0.00    -0.144 F 
HETATM   32  F   UNK N   1      31.062   7.365  21.505  0.00  0.00    -0.144 F 
ENDBRANCH  28  29
ENDBRANCH  26  28
ENDBRANCH   6  22
TORSDOF 7
ENDMDL
MODEL 3
REMARK VINA RESULT:      -8.0     11.266     15.595
REMARK  7 active torsions:
REMARK  status: ('A' for Active; 'I' for Inactive)
REMARK    1  A    between atoms: C_3  and  O_27 
REMARK    2  A    between atoms: C_7  and  N_20 
REMARK       I    between atoms: C_10  and  N_20 
REMARK    3  A    between atoms: C_10  and  C_22 
REMARK    4  A    between atoms: C_11  and  C_24 
REMARK    5  A    between atoms: C_15  and  O_27 
REMARK    6  A    between atoms: C_17  and  C_18 
REMARK    7  A    between atoms: C_24  and  O_25 
ROOT
HETATM    1  C   UNK N   1      34.512  10.251  15.422  0.00  0.00     0.057 A 
HETATM    2  C   UNK N   1      34.352  10.817  14.169  0.00  0.00     0.147 A 
HETATM    3  C   UNK N   1      34.782  12.126  13.914  0.00  0.00     0.113 A 
HETATM    4  C   UNK N   1      35.451  12.837  14.948  0.00  0.00     0.147 A 
HETATM    5  C   UNK N   1      35.591  12.257  16.215  0.00  0.00     0.057 A 
HETATM    6  C   UNK N   1      35.102  10.970  16.464  0.00  0.00    -0.020 A 
HETATM    7  F   UNK N   1      33.735  10.095  13.201  0.00  0.00    -0.204 F 
HETATM    8  F   UNK N   1      35.989  14.064  14.758  0.00  0.00    -0.204 F 
ENDROOT
BRANCH   3   9
HETATM    9  N   UNK N   1      34.488  12.658  12.622  0.00  0.00    -0.318 N 
HETATM   10  C   UNK N   1      35.362  13.048  11.657  0.00  0.00     0.253 C 
HETATM   11  O   UNK N   1      36.562  12.920  11.819  0.00  0.00    -0.268 OA
HETATM   12  H   UNK N   1      33.534  12.755  12.403  0.00  0.00     0.169 HD
BRANCH  10  13
HETATM   13  C   UNK N   1      34.889  13.705  10.402  0.00  0.00     0.023 A 
HETATM   14  C   UNK N   1      35.057  14.968   9.971  0.00  0.00     0.027 A 
HETATM   15  C   UNK N   1      34.421  15.187   8.645  0.00  0.00     0.046 A 
HETATM   16  C   UNK N   1      33.826  13.835   8.270  0.00  0.00     0.010 A 
HETATM   17  C   UNK N   1      34.139  12.881   9.415  0.00  0.00     0.045 A 
BRANCH  14  18
HETATM   18  C   UNK N   1      35.799  16.104  10.595  0.00  0.00     0.172 C 
HETATM   19  O   UNK N   1      35.256  17.155  10.877  0.00  0.00    -0.646 OA
BRANCH  18  20
HETATM   20  O   UNK N   1      37.100  15.946  10.906  0.00  0.00    -0.773 OA
HETATM   21  H   UNK N   1      37.657  16.695  10.995  0.00  0.00     0.167 HD
ENDBRANCH  18  20
ENDBRANCH  14  18
ENDBRANCH  10  13
ENDBRANCH   3   9
BRANCH   6  22
HETATM   22  C   UNK N   1      35.198  10.350  17.799  0.00  0.00    -0.023 A 
HETATM   23  C   UNK N   1      36.351  10.466  18.592  0.00  0.00     0.012 A 
HETATM   24  C   UNK N   1      36.402   9.845  19.847  0.00  0.00     0.004 A 
HETATM   25  C   UNK N   1      35.320   9.075  20.294  0.00  0.00     0.037 A 
HETATM   26  C   UNK N   1      34.169   8.952  19.496  0.00  0.00     0.079 A 
HETATM   27  C   UNK N   1      34.115   9.606  18.275  0.00  0.00     0.049 A 
BRANCH  26  28
HETATM   28  O   UNK N   1      33.126   8.156  19.831  0.00  0.00    -0.255 OA
BRANCH  28  29
HETATM   29  C   UNK N   1      31.994   8.574  20.494  0.00  0.00     0.530 C 
HETATM   30  F   UNK N   1      31.608   7.609  21.408  0.00  0.00    -0.144 F 
HETATM   31  F   UNK N   1      30.979   8.741  19.572  0.00  0.00    -0.144 F 
HETATM   32  F   UNK N   1      32.223   9.773  21.142  0.00  0.00    -0.144 F 
ENDBRANCH  28  29
ENDBRANCH  26  28
ENDBRANCH   6  22
TORSDOF 7
ENDMDL
MODEL 4
REMARK VINA RESULT:      -8.0      6.934     10.870
REMARK  7 active torsions:
REMARK  status: ('A' for Active; 'I' for Inactive)
REMARK    1  A    between atoms: C_3  and  O_27 
REMARK    2  A    between atoms: C_7  and  N_20 
REMARK       I    between atoms: C_10  and  N_20 
REMARK    3  A    between atoms: C_10  and  C_22 
REMARK    4  A    between atoms: C_11  and  C_24 
REMARK    5  A    between atoms: C_15  and  O_27 
REMARK    6  A    between atoms: C_17  and  C_18 
REMARK    7  A    between atoms: C_24  and  O_25 
ROOT
HETATM    1  C   UNK N   1      34.731  13.395  10.540  0.00  0.00     0.057 A 
HETATM    2  C   UNK N   1      34.082  14.016   9.486  0.00  0.00     0.147 A 
HETATM    3  C   UNK N   1      34.160  15.404   9.316  0.00  0.00     0.113 A 
HETATM    4  C   UNK N   1      34.977  16.156  10.206  0.00  0.00     0.147 A 
HETATM    5  C   UNK N   1      35.613  15.515  11.276  0.00  0.00     0.057 A 
HETATM    6  C   UNK N   1      35.475  14.136  11.461  0.00  0.00    -0.020 A 
HETATM    7  F   UNK N   1      33.338  13.260   8.642  0.00  0.00    -0.204 F 
HETATM    8  F   UNK N   1      35.191  17.483  10.054  0.00  0.00    -0.204 F 
ENDROOT
BRANCH   3   9
HETATM    9  N   UNK N   1      33.381  15.967   8.260  0.00  0.00    -0.318 N 
HETATM   10  C   UNK N   1      32.058  16.275   8.265  0.00  0.00     0.253 C 
HETATM   11  O   UNK N   1      31.390  16.121   9.271  0.00  0.00    -0.268 OA
HETATM   12  H   UNK N   1      33.864  16.156   7.423  0.00  0.00     0.169 HD
BRANCH  10  13
HETATM   13  C   UNK N   1      31.366  16.743   7.027  0.00  0.00     0.023 A 
HETATM   14  C   UNK N   1      31.873  17.081   5.828  0.00  0.00     0.027 A 
HETATM   15  C   UNK N   1      30.807  17.481   4.872  0.00  0.00     0.046 A 
HETATM   16  C   UNK N   1      29.506  17.323   5.649  0.00  0.00     0.010 A 
HETATM   17  C   UNK N   1      29.880  16.839   7.044  0.00  0.00     0.045 A 
BRANCH  14  18
HETATM   18  C   UNK N   1      33.286  17.063   5.344  0.00  0.00     0.172 C 
HETATM   19  O   UNK N   1      33.623  16.440   4.356  0.00  0.00    -0.646 OA
BRANCH  18  20
HETATM   20  O   UNK N   1      34.209  17.802   5.988  0.00  0.00    -0.773 OA
HETATM   21  H   UNK N   1      33.961  18.328   6.724  0.00  0.00     0.167 HD
ENDBRANCH  18  20
ENDBRANCH  14  18
ENDBRANCH  10  13
ENDBRANCH   3   9
BRANCH   6  22
HETATM   22  C   UNK N   1      36.100  13.440  12.603  0.00  0.00    -0.023 A 
HETATM   23  C   UNK N   1      36.812  12.241  12.444  0.00  0.00     0.012 A 
HETATM   24  C   UNK N   1      37.374  11.608  13.560  0.00  0.00     0.004 A 
HETATM   25  C   UNK N   1      37.191  12.149  14.840  0.00  0.00     0.037 A 
HETATM   26  C   UNK N   1      36.470  13.346  15.000  0.00  0.00     0.079 A 
HETATM   27  C   UNK N   1      35.956  13.984  13.882  0.00  0.00     0.049 A 
BRANCH  26  28
HETATM   28  O   UNK N   1      36.186  13.874  16.214  0.00  0.00    -0.255 OA
BRANCH  28  29
HETATM   29  C   UNK N   1      35.208  13.414  17.066  0.00  0.00     0.530 C 
HETATM   30  F   UNK N   1      34.008  13.310  16.383  0.00  0.00    -0.144 F 
HETATM   31  F   UNK N   1      35.054  14.324  18.093  0.00  0.00    -0.144 F 
HETATM   32  F   UNK N   1      35.558  12.185  17.593  0.00  0.00    -0.144 F 
ENDBRANCH  28  29
ENDBRANCH  26  28
ENDBRANCH   6  22
TORSDOF 7
ENDMDL
MODEL 5
REMARK VINA RESULT:      -8.0     10.673     14.633
REMARK  7 active torsions:
REMARK  status: ('A' for Active; 'I' for Inactive)
REMARK    1  A    between atoms: C_3  and  O_27 
REMARK    2  A    between atoms: C_7  and  N_20 
REMARK       I    between atoms: C_10  and  N_20 
REMARK    3  A    between atoms: C_10  and  C_22 
REMARK    4  A    between atoms: C_11  and  C_24 
REMARK    5  A    between atoms: C_15  and  O_27 
REMARK    6  A    between atoms: C_17  and  C_18 
REMARK    7  A    between atoms: C_24  and  O_25 
ROOT
HETATM    1  C   UNK N   1      35.860  13.624  15.382  0.00  0.00     0.057 A 
HETATM    2  C   UNK N   1      35.927  13.958  14.040  0.00  0.00     0.147 A 
HETATM    3  C   UNK N   1      35.350  13.130  13.068  0.00  0.00     0.113 A 
HETATM    4  C   UNK N   1      34.633  11.977  13.491  0.00  0.00     0.147 A 
HETATM    5  C   UNK N   1      34.589  11.644  14.850  0.00  0.00     0.057 A 
HETATM    6  C   UNK N   1      35.220  12.454  15.800  0.00  0.00    -0.020 A 
HETATM    7  F   UNK N   1      36.594  15.082  13.680  0.00  0.00    -0.204 F 
HETATM    8  F   UNK N   1      33.960  11.181  12.629  0.00  0.00    -0.204 F 
ENDROOT
BRANCH   3   9
HETATM    9  N   UNK N   1      35.552  13.505  11.704  0.00  0.00    -0.318 N 
HETATM   10  C   UNK N   1      34.779  14.314  10.933  0.00  0.00     0.253 C 
HETATM   11  O   UNK N   1      33.797  14.861  11.400  0.00  0.00    -0.268 OA
HETATM   12  H   UNK N   1      36.351  13.130  11.269  0.00  0.00     0.169 HD
BRANCH  10  13
HETATM   13  C   UNK N   1      35.064  14.504   9.480  0.00  0.00     0.023 A 
HETATM   14  C   UNK N   1      34.888  15.584   8.698  0.00  0.00     0.027 A 
HETATM   15  C   UNK N   1      35.326  15.329   7.300  0.00  0.00     0.046 A 
HETATM   16  C   UNK N   1      35.843  13.896   7.307  0.00  0.00     0.010 A 
HETATM   17  C   UNK N   1      35.672  13.372   8.727  0.00  0.00     0.045 A 
BRANCH  14  18
HETATM   18  C   UNK N   1      34.384  16.947   9.043  0.00  0.00     0.172 C 
HETATM   19  O   UNK N   1      35.110  17.921   9.062  0.00  0.00    -0.646 OA
BRANCH  18  20
HETATM   20  O   UNK N   1      33.070  17.116   9.290  0.00  0.00    -0.773 OA
HETATM   21  H   UNK N   1      32.569  17.721   8.778  0.00  0.00     0.167 HD
ENDBRANCH  18  20
ENDBRANCH  14  18
ENDBRANCH  10  13
ENDBRANCH   3   9
BRANCH   6  22
HETATM   22  C   UNK N   1      35.226  12.107  17.234  0.00  0.00    -0.023 A 
HETATM   23  C   UNK N   1      35.210  13.089  18.237  0.00  0.00     0.012 A 
HETATM   24  C   UNK N   1      35.233  12.711  19.586  0.00  0.00     0.004 A 
HETATM   25  C   UNK N   1      35.312  11.357  19.934  0.00  0.00     0.037 A 
HETATM   26  C   UNK N   1      35.336  10.373  18.930  0.00  0.00     0.079 A 
HETATM   27  C   UNK N   1      35.271  10.759  17.599  0.00  0.00     0.049 A 
BRANCH  26  28
HETATM   28  O   UNK N   1      35.497   9.055  19.196  0.00  0.00    -0.255 OA
BRANCH  28  29
HETATM   29  C   UNK N   1      34.575   8.074  18.911  0.00  0.00     0.530 C 
HETATM   30  F   UNK N   1      33.299   8.607  18.963  0.00  0.00    -0.144 F 
HETATM   31  F   UNK N   1      34.679   7.081  19.867  0.00  0.00    -0.144 F 
HETATM   32  F   UNK N   1      34.810   7.531  17.662  0.00  0.00    -0.144 F 
ENDBRANCH  28  29
ENDBRANCH  26  28
ENDBRANCH   6  22
TORSDOF 7
ENDMDL
MODEL 6
REMARK VINA RESULT:      -7.9      9.211     14.929
REMARK  7 active torsions:
REMARK  status: ('A' for Active; 'I' for Inactive)
REMARK    1  A    between atoms: C_3  and  O_27 
REMARK    2  A    between atoms: C_7  and  N_20 
REMARK       I    between atoms: C_10  and  N_20 
REMARK    3  A    between atoms: C_10  and  C_22 
REMARK    4  A    between atoms: C_11  and  C_24 
REMARK    5  A    between atoms: C_15  and  O_27 
REMARK    6  A    between atoms: C_17  and  C_18 
REMARK    7  A    between atoms: C_24  and  O_25 
ROOT
HETATM    1  C   UNK N   1      34.914  12.686  11.541  0.00  0.00     0.057 A 
HETATM    2  C   UNK N   1      34.998  12.292  12.865  0.00  0.00     0.147 A 
HETATM    3  C   UNK N   1      35.665  13.087  13.807  0.00  0.00     0.113 A 
HETATM    4  C   UNK N   1      36.192  14.341  13.391  0.00  0.00     0.147 A 
HETATM    5  C   UNK N   1      36.112  14.717  12.045  0.00  0.00     0.057 A 
HETATM    6  C   UNK N   1      35.493  13.882  11.109  0.00  0.00    -0.020 A 
HETATM    7  F   UNK N   1      34.457  11.103  13.228  0.00  0.00    -0.204 F 
HETATM    8  F   UNK N   1      36.758  15.215  14.253  0.00  0.00    -0.204 F 
ENDROOT
BRANCH   3   9
HETATM    9  N   UNK N   1      35.785  12.554  15.127  0.00  0.00    -0.318 N 
HETATM   10  C   UNK N   1      34.926  12.698  16.170  0.00  0.00     0.253 C 
HETATM   11  O   UNK N   1      33.881  13.305  16.033  0.00  0.00    -0.268 OA
HETATM   12  H   UNK N   1      36.590  12.016  15.302  0.00  0.00     0.169 HD
BRANCH  10  13
HETATM   13  C   UNK N   1      35.264  12.178  17.529  0.00  0.00     0.023 A 
HETATM   14  C   UNK N   1      35.733  10.974  17.903  0.00  0.00     0.027 A 
HETATM   15  C   UNK N   1      35.941  10.896  19.373  0.00  0.00     0.046 A 
HETATM   16  C   UNK N   1      35.549  12.272  19.897  0.00  0.00     0.010 A 
HETATM   17  C   UNK N   1      35.115  13.097  18.692  0.00  0.00     0.045 A 
BRANCH  14  18
HETATM   18  C   UNK N   1      36.096   9.786  17.074  0.00  0.00     0.172 C 
HETATM   19  O   UNK N   1      36.922   9.846  16.184  0.00  0.00    -0.646 OA
BRANCH  18  20
HETATM   20  O   UNK N   1      35.532   8.595  17.353  0.00  0.00    -0.773 OA
HETATM   21  H   UNK N   1      35.021   8.487  18.132  0.00  0.00     0.167 HD
ENDBRANCH  18  20
ENDBRANCH  14  18
ENDBRANCH  10  13
ENDBRANCH   3   9
BRANCH   6  22
HETATM   22  C   UNK N   1      35.430  14.233   9.678  0.00  0.00    -0.023 A 
HETATM   23  C   UNK N   1      36.374  13.758   8.754  0.00  0.00     0.012 A 
HETATM   24  C   UNK N   1      36.284  14.133   7.407  0.00  0.00     0.004 A 
HETATM   25  C   UNK N   1      35.278  15.013   6.989  0.00  0.00     0.037 A 
HETATM   26  C   UNK N   1      34.337  15.496   7.916  0.00  0.00     0.079 A 
HETATM   27  C   UNK N   1      34.413  15.084   9.238  0.00  0.00     0.049 A 
BRANCH  26  28
HETATM   28  O   UNK N   1      33.395  16.414   7.595  0.00  0.00    -0.255 OA
BRANCH  28  29
HETATM   29  C   UNK N   1      33.627  17.760   7.429  0.00  0.00     0.530 C 
HETATM   30  F   UNK N   1      32.698  18.485   8.154  0.00  0.00    -0.144 F 
HETATM   31  F   UNK N   1      33.484  18.070   6.090  0.00  0.00    -0.144 F 
HETATM   32  F   UNK N   1      34.906  18.089   7.839  0.00  0.00    -0.144 F 
ENDBRANCH  28  29
ENDBRANCH  26  28
ENDBRANCH   6  22
TORSDOF 7
ENDMDL
MODEL 7
REMARK VINA RESULT:      -7.9      9.304     14.882
REMARK  7 active torsions:
REMARK  status: ('A' for Active; 'I' for Inactive)
REMARK    1  A    between atoms: C_3  and  O_27 
REMARK    2  A    between atoms: C_7  and  N_20 
REMARK       I    between atoms: C_10  and  N_20 
REMARK    3  A    between atoms: C_10  and  C_22 
REMARK    4  A    between atoms: C_11  and  C_24 
REMARK    5  A    between atoms: C_15  and  O_27 
REMARK    6  A    between atoms: C_17  and  C_18 
REMARK    7  A    between atoms: C_24  and  O_25 
ROOT
HETATM    1  C   UNK N   1      34.867  12.574  11.584  0.00  0.00     0.057 A 
HETATM    2  C   UNK N   1      34.974  12.102  12.881  0.00  0.00     0.147 A 
HETATM    3  C   UNK N   1      35.669  12.833  13.853  0.00  0.00     0.113 A 
HETATM    4  C   UNK N   1      36.202  14.104  13.500  0.00  0.00     0.147 A 
HETATM    5  C   UNK N   1      36.100  14.559  12.180  0.00  0.00     0.057 A 
HETATM    6  C   UNK N   1      35.451  13.787  11.210  0.00  0.00    -0.020 A 
HETATM    7  F   UNK N   1      34.426  10.900  13.185  0.00  0.00    -0.204 F 
HETATM    8  F   UNK N   1      36.797  14.920  14.399  0.00  0.00    -0.204 F 
ENDROOT
BRANCH   3   9
HETATM    9  N   UNK N   1      35.810  12.224  15.137  0.00  0.00    -0.318 N 
HETATM   10  C   UNK N   1      34.976  12.315  16.205  0.00  0.00     0.253 C 
HETATM   11  O   UNK N   1      33.935  12.941  16.126  0.00  0.00    -0.268 OA
HETATM   12  H   UNK N   1      36.612  11.667  15.263  0.00  0.00     0.169 HD
BRANCH  10  13
HETATM   13  C   UNK N   1      35.335  11.713  17.524  0.00  0.00     0.023 A 
HETATM   14  C   UNK N   1      35.417  12.282  18.740  0.00  0.00     0.027 A 
HETATM   15  C   UNK N   1      35.801  11.295  19.784  0.00  0.00     0.046 A 
HETATM   16  C   UNK N   1      35.934   9.972  19.041  0.00  0.00     0.010 A 
HETATM   17  C   UNK N   1      35.626  10.254  17.576  0.00  0.00     0.045 A 
BRANCH  14  18
HETATM   18  C   UNK N   1      35.141  13.687  19.164  0.00  0.00     0.172 C 
HETATM   19  O   UNK N   1      35.403  14.639  18.456  0.00  0.00    -0.646 OA
BRANCH  18  20
HETATM   20  O   UNK N   1      34.532  13.908  20.345  0.00  0.00    -0.773 OA
HETATM   21  H   UNK N   1      34.175  13.190  20.831  0.00  0.00     0.167 HD
ENDBRANCH  18  20
ENDBRANCH  14  18
ENDBRANCH  10  13
ENDBRANCH   3   9
BRANCH   6  22
HETATM   22  C   UNK N   1      35.363  14.222   9.804  0.00  0.00    -0.023 A 
HETATM   23  C   UNK N   1      36.249  13.751   8.823  0.00  0.00     0.012 A 
HETATM   24  C   UNK N   1      36.138  14.206   7.502  0.00  0.00     0.004 A 
HETATM   25  C   UNK N   1      35.169  15.161   7.169  0.00  0.00     0.037 A 
HETATM   26  C   UNK N   1      34.286  15.640   8.153  0.00  0.00     0.079 A 
HETATM   27  C   UNK N   1      34.381  15.150   9.447  0.00  0.00     0.049 A 
BRANCH  26  28
HETATM   28  O   UNK N   1      33.386  16.624   7.916  0.00  0.00    -0.255 OA
BRANCH  28  29
HETATM   29  C   UNK N   1      33.703  17.936   7.649  0.00  0.00     0.530 C 
HETATM   30  F   UNK N   1      33.806  18.120   6.281  0.00  0.00    -0.144 F 
HETATM   31  F   UNK N   1      34.925  18.221   8.227  0.00  0.00    -0.144 F 
HETATM   32  F   UNK N   1      32.743  18.785   8.168  0.00  0.00    -0.144 F 
ENDBRANCH  28  29
ENDBRANCH  26  28
ENDBRANCH   6  22
TORSDOF 7
ENDMDL
MODEL 8
REMARK VINA RESULT:      -7.8      7.101     11.098
REMARK  7 active torsions:
REMARK  status: ('A' for Active; 'I' for Inactive)
REMARK    1  A    between atoms: C_3  and  O_27 
REMARK    2  A    between atoms: C_7  and  N_20 
REMARK       I    between atoms: C_10  and  N_20 
REMARK    3  A    between atoms: C_10  and  C_22 
REMARK    4  A    between atoms: C_11  and  C_24 
REMARK    5  A    between atoms: C_15  and  O_27 
REMARK    6  A    between atoms: C_17  and  C_18 
REMARK    7  A    between atoms: C_24  and  O_25 
ROOT
HETATM    1  C   UNK N   1      35.651  13.504  10.399  0.00  0.00     0.057 A 
HETATM    2  C   UNK N   1      35.167  14.163   9.282  0.00  0.00     0.147 A 
HETATM    3  C   UNK N   1      35.026  15.557   9.279  0.00  0.00     0.113 A 
HETATM    4  C   UNK N   1      35.456  16.289  10.420  0.00  0.00     0.147 A 
HETATM    5  C   UNK N   1      35.928  15.606  11.548  0.00  0.00     0.057 A 
HETATM    6  C   UNK N   1      36.007  14.209  11.551  0.00  0.00    -0.020 A 
HETATM    7  F   UNK N   1      34.794  13.432   8.202  0.00  0.00    -0.204 F 
HETATM    8  F   UNK N   1      35.452  17.641  10.463  0.00  0.00    -0.204 F 
ENDROOT
BRANCH   3   9
HETATM    9  N   UNK N   1      34.429  16.140   8.120  0.00  0.00    -0.318 N 
HETATM   10  C   UNK N   1      33.109  16.215   7.804  0.00  0.00     0.253 C 
HETATM   11  O   UNK N   1      32.263  15.794   8.570  0.00  0.00    -0.268 OA
HETATM   12  H   UNK N   1      35.051  16.538   7.470  0.00  0.00     0.169 HD
BRANCH  10  13
HETATM   13  C   UNK N   1      32.658  16.750   6.484  0.00  0.00     0.023 A 
HETATM   14  C   UNK N   1      31.425  17.090   6.065  0.00  0.00     0.027 A 
HETATM   15  C   UNK N   1      31.440  17.594   4.666  0.00  0.00     0.046 A 
HETATM   16  C   UNK N   1      32.904  17.548   4.249  0.00  0.00     0.010 A 
HETATM   17  C   UNK N   1      33.686  17.003   5.437  0.00  0.00     0.045 A 
BRANCH  14  18
HETATM   18  C   UNK N   1      30.124  17.072   6.796  0.00  0.00     0.172 C 
HETATM   19  O   UNK N   1      29.869  17.863   7.683  0.00  0.00    -0.646 OA
BRANCH  18  20
HETATM   20  O   UNK N   1      29.177  16.187   6.428  0.00  0.00    -0.773 OA
HETATM   21  H   UNK N   1      28.606  15.814   7.072  0.00  0.00     0.167 HD
ENDBRANCH  18  20
ENDBRANCH  14  18
ENDBRANCH  10  13
ENDBRANCH   3   9
BRANCH   6  22
HETATM   22  C   UNK N   1      36.462  13.461  12.738  0.00  0.00    -0.023 A 
HETATM   23  C   UNK N   1      37.093  12.212  12.633  0.00  0.00     0.012 A 
HETATM   24  C   UNK N   1      37.492  11.530  13.790  0.00  0.00     0.004 A 
HETATM   25  C   UNK N   1      37.225  12.075  15.053  0.00  0.00     0.037 A 
HETATM   26  C   UNK N   1      36.584  13.322  15.159  0.00  0.00     0.079 A 
HETATM   27  C   UNK N   1      36.233  14.005  14.004  0.00  0.00     0.049 A 
BRANCH  26  28
HETATM   28  O   UNK N   1      36.222  13.863  16.346  0.00  0.00    -0.255 OA
BRANCH  28  29
HETATM   29  C   UNK N   1      35.166  13.436  17.119  0.00  0.00     0.530 C 
HETATM   30  F   UNK N   1      34.979  14.311  18.175  0.00  0.00    -0.144 F 
HETATM   31  F   UNK N   1      35.468  12.187  17.627  0.00  0.00    -0.144 F 
HETATM   32  F   UNK N   1      34.010  13.354  16.364  0.00  0.00    -0.144 F 
ENDBRANCH  28  29
ENDBRANCH  26  28
ENDBRANCH   6  22
TORSDOF 7
ENDMDL
MODEL 9
REMARK VINA RESULT:      -7.7      1.790      2.359
REMARK  7 active torsions:
REMARK  status: ('A' for Active; 'I' for Inactive)
REMARK    1  A    between atoms: C_3  and  O_27 
REMARK    2  A    between atoms: C_7  and  N_20 
REMARK       I    between atoms: C_10  and  N_20 
REMARK    3  A    between atoms: C_10  and  C_22 
REMARK    4  A    between atoms: C_11  and  C_24 
REMARK    5  A    between atoms: C_15  and  O_27 
REMARK    6  A    between atoms: C_17  and  C_18 
REMARK    7  A    between atoms: C_24  and  O_25 
ROOT
HETATM    1  C   UNK N   1      28.179  16.840   3.853  0.00  0.00     0.057 A 
HETATM    2  C   UNK N   1      26.860  17.092   3.516  0.00  0.00     0.147 A 
HETATM    3  C   UNK N   1      26.281  18.341   3.781  0.00  0.00     0.113 A 
HETATM    4  C   UNK N   1      27.095  19.366   4.336  0.00  0.00     0.147 A 
HETATM    5  C   UNK N   1      28.422  19.090   4.686  0.00  0.00     0.057 A 
HETATM    6  C   UNK N   1      28.964  17.819   4.466  0.00  0.00    -0.020 A 
HETATM    7  F   UNK N   1      26.126  16.097   2.961  0.00  0.00    -0.204 F 
HETATM    8  F   UNK N   1      26.647  20.628   4.528  0.00  0.00    -0.204 F 
ENDROOT
BRANCH   3   9
HETATM    9  N   UNK N   1      24.890  18.478   3.488  0.00  0.00    -0.318 N 
HETATM   10  C   UNK N   1      23.832  18.225   4.302  0.00  0.00     0.253 C 
HETATM   11  O   UNK N   1      24.008  17.875   5.454  0.00  0.00    -0.268 OA
HETATM   12  H   UNK N   1      24.671  18.797   2.583  0.00  0.00     0.169 HD
BRANCH  10  13
HETATM   13  C   UNK N   1      22.429  18.302   3.796  0.00  0.00     0.023 A 
HETATM   14  C   UNK N   1      21.788  19.307   3.174  0.00  0.00     0.027 A 
HETATM   15  C   UNK N   1      20.388  18.939   2.833  0.00  0.00     0.046 A 
HETATM   16  C   UNK N   1      20.231  17.505   3.321  0.00  0.00     0.010 A 
HETATM   17  C   UNK N   1      21.562  17.100   3.941  0.00  0.00     0.045 A 
BRANCH  14  18
HETATM   18  C   UNK N   1      22.285  20.653   2.761  0.00  0.00     0.172 C 
HETATM   19  O   UNK N   1      23.450  20.853   2.478  0.00  0.00    -0.646 OA
BRANCH  18  20
HETATM   20  O   UNK N   1      21.408  21.668   2.644  0.00  0.00    -0.773 OA
HETATM   21  H   UNK N   1      20.493  21.518   2.782  0.00  0.00     0.167 HD
ENDBRANCH  18  20
ENDBRANCH  14  18
ENDBRANCH  10  13
ENDBRANCH   3   9
BRANCH   6  22
HETATM   22  C   UNK N   1      30.346  17.487   4.861  0.00  0.00    -0.023 A 
HETATM   23  C   UNK N   1      31.451  17.842   4.073  0.00  0.00     0.012 A 
HETATM   24  C   UNK N   1      32.745  17.490   4.481  0.00  0.00     0.004 A 
HETATM   25  C   UNK N   1      32.932  16.748   5.655  0.00  0.00     0.037 A 
HETATM   26  C   UNK N   1      31.824  16.385   6.441  0.00  0.00     0.079 A 
HETATM   27  C   UNK N   1      30.554  16.776   6.047  0.00  0.00     0.049 A 
BRANCH  26  28
HETATM   28  O   UNK N   1      31.929  15.598   7.538  0.00  0.00    -0.255 OA
BRANCH  28  29
HETATM   29  C   UNK N   1      32.311  16.032   8.787  0.00  0.00     0.530 C 
HETATM   30  F   UNK N   1      31.972  17.365   8.939  0.00  0.00    -0.144 F 
HETATM   31  F   UNK N   1      33.683  15.910   8.896  0.00  0.00    -0.144 F 
HETATM   32  F   UNK N   1      31.706  15.276   9.773  0.00  0.00    -0.144 F 
ENDBRANCH  28  29
ENDBRANCH  26  28
ENDBRANCH   6  22
TORSDOF 7
ENDMDL
