REMARK  6 active torsions:
REMARK  status: ('A' for Active; 'I' for Inactive)
REMARK    1  A    between atoms: C_2  and  O_16 
REMARK    2  A    between atoms: C_4  and  C_5 
REMARK    3  A    between atoms: C_10  and  N_18 
REMARK    4  A    between atoms: C_12  and  C_13 
REMARK       I    between atoms: C_12  and  N_18 
REMARK    5  A    between atoms: C_15  and  C_24 
REMARK    6  A    between atoms: C_24  and  O_26 
ROOT
HETATM    1  C   UNK N   1       0.926   1.578   0.215  0.00  0.00    -0.023 A 
HETATM    2  C   UNK N   1       2.119   0.891   0.502  0.00  0.00     0.014 A 
HETATM    3  C   UNK N   1       2.167  -0.503   0.440  0.00  0.00     0.034 A 
HETATM    4  C   UNK N   1       1.030  -1.227   0.079  0.00  0.00     0.074 A 
HETATM    5  C   UNK N   1      -0.199   0.857  -0.177  0.00  0.00     0.057 A 
HETATM    6  C   UNK N   1      -0.157  -0.528  -0.261  0.00  0.00     0.143 A 
HETATM    7  F   UNK N   1      -1.261  -1.170  -0.717  0.00  0.00    -0.204 F 
ENDROOT
BRANCH   4   8
HETATM    8  N   UNK N   1       1.097  -2.649   0.018  0.00  0.00    -0.320 N 
HETATM    9  C   UNK N   1       0.045  -3.444   0.331  0.00  0.00     0.257 C 
HETATM   10  O   UNK N   1      -0.917  -2.976   0.928  0.00  0.00    -0.267 OA
HETATM   11  H   UNK N   1       1.941  -3.070  -0.262  0.00  0.00     0.169 HD
BRANCH   9  12
HETATM   12  C   UNK N   1       0.047  -4.871  -0.022  0.00  0.00     0.056 A 
HETATM   13  C   UNK N   1       1.260  -5.603  -0.190  0.00  0.00     0.026 A 
HETATM   14  C   UNK N   1       1.066  -6.952  -0.513  0.00  0.00     0.052 A 
HETATM   15  S   UNK N   1      -0.577  -7.173  -0.605  0.00  0.00    -0.094 SA
HETATM   16  C   UNK N   1      -1.108  -5.645  -0.254  0.00  0.00     0.093 A 
BRANCH  16  17
HETATM   17  C   UNK N   1      -2.539  -5.235  -0.303  0.00  0.00     0.184 C 
HETATM   18  O   UNK N   1      -3.395  -6.072  -0.531  0.00  0.00    -0.646 OA
BRANCH  17  19
HETATM   19  O   UNK N   1      -2.908  -3.947  -0.186  0.00  0.00    -0.772 OA
HETATM   20  H   UNK N   1      -2.259  -3.276  -0.104  0.00  0.00     0.167 HD
ENDBRANCH  17  19
ENDBRANCH  16  17
ENDBRANCH   9  12
ENDBRANCH   4   8
BRANCH   1  21
HETATM   21  C   UNK N   1       0.878   3.050   0.243  0.00  0.00    -0.023 A 
HETATM   22  C   UNK N   1       2.065   3.766   0.386  0.00  0.00     0.049 A 
HETATM   23  C   UNK N   1       2.080   5.148   0.281  0.00  0.00     0.069 A 
HETATM   24  C   UNK N   1       0.877   5.848   0.077  0.00  0.00     0.037 A 
HETATM   25  C   UNK N   1      -0.329   5.144  -0.019  0.00  0.00     0.004 A 
HETATM   26  C   UNK N   1      -0.327   3.747   0.038  0.00  0.00     0.012 A 
BRANCH  23  27
HETATM   27  O   UNK N   1       3.273   5.769   0.306  0.00  0.00    -0.356 OA
HETATM   28  C   UNK N   1       3.635   6.650  -0.683  0.00  0.00     0.210 C 
ENDBRANCH  23  27
ENDBRANCH   1  21
TORSDOF 6
