MODEL 1
REMARK VINA RESULT:      -7.5      0.000      0.000
REMARK  6 active torsions:
REMARK  status: ('A' for Active; 'I' for Inactive)
REMARK    1  A    between atoms: C_2  and  O_16 
REMARK    2  A    between atoms: C_4  and  C_5 
REMARK    3  A    between atoms: C_10  and  N_18 
REMARK    4  A    between atoms: C_12  and  C_13 
REMARK       I    between atoms: C_12  and  N_18 
REMARK    5  A    between atoms: C_15  and  C_24 
REMARK    6  A    between atoms: C_24  and  O_26 
ROOT
HETATM    1  C   UNK N   1      35.168  12.577  15.620  0.00  0.00    -0.023 A 
HETATM    2  C   UNK N   1      34.470  11.678  14.794  0.00  0.00     0.014 A 
HETATM    3  C   UNK N   1      34.501  11.820  13.405  0.00  0.00     0.034 A 
HETATM    4  C   UNK N   1      35.238  12.853  12.824  0.00  0.00     0.074 A 
HETATM    5  C   UNK N   1      35.930  13.587  15.038  0.00  0.00     0.057 A 
HETATM    6  C   UNK N   1      35.983  13.726  13.657  0.00  0.00     0.143 A 
HETATM    7  F   UNK N   1      36.798  14.682  13.147  0.00  0.00    -0.204 F 
ENDROOT
BRANCH   4   8
HETATM    8  N   UNK N   1      35.261  12.982  11.405  0.00  0.00    -0.320 N 
HETATM    9  C   UNK N   1      34.648  14.001  10.754  0.00  0.00     0.257 C 
HETATM   10  O   UNK N   1      33.834  14.700  11.345  0.00  0.00    -0.267 OA
HETATM   11  H   UNK N   1      35.740  12.304  10.877  0.00  0.00     0.169 HD
BRANCH   9  12
HETATM   12  C   UNK N   1      34.935  14.271   9.338  0.00  0.00     0.056 A 
HETATM   13  C   UNK N   1      35.446  13.263   8.468  0.00  0.00     0.026 A 
HETATM   14  C   UNK N   1      35.646  13.701   7.152  0.00  0.00     0.052 A 
HETATM   15  S   UNK N   1      35.215  15.304   7.128  0.00  0.00    -0.094 SA
HETATM   16  C   UNK N   1      34.770  15.521   8.707  0.00  0.00     0.093 A 
BRANCH  16  17
HETATM   17  C   UNK N   1      34.386  16.839   9.285  0.00  0.00     0.184 C 
HETATM   18  O   UNK N   1      35.249  17.570   9.738  0.00  0.00    -0.646 OA
BRANCH  17  19
HETATM   19  O   UNK N   1      33.098  17.212   9.397  0.00  0.00    -0.772 OA
HETATM   20  H   UNK N   1      32.623  17.499   8.642  0.00  0.00     0.167 HD
ENDBRANCH  17  19
ENDBRANCH  16  17
ENDBRANCH   9  12
ENDBRANCH   4   8
BRANCH   1  21
HETATM   21  C   UNK N   1      35.169  12.411  17.083  0.00  0.00    -0.023 A 
HETATM   22  C   UNK N   1      35.335  11.137  17.623  0.00  0.00     0.049 A 
HETATM   23  C   UNK N   1      35.478  10.955  18.989  0.00  0.00     0.069 A 
HETATM   24  C   UNK N   1      35.406  12.062  19.854  0.00  0.00     0.037 A 
HETATM   25  C   UNK N   1      35.190  13.342  19.329  0.00  0.00     0.004 A 
HETATM   26  C   UNK N   1      35.097  13.521  17.946  0.00  0.00     0.012 A 
BRANCH  23  27
HETATM   27  O   UNK N   1      35.758   9.717  19.434  0.00  0.00    -0.356 OA
HETATM   28  C   UNK N   1      37.042   9.351  19.754  0.00  0.00     0.210 C 
ENDBRANCH  23  27
ENDBRANCH   1  21
TORSDOF 6
ENDMDL
MODEL 2
REMARK VINA RESULT:      -7.4      7.444     12.744
REMARK  6 active torsions:
REMARK  status: ('A' for Active; 'I' for Inactive)
REMARK    1  A    between atoms: C_2  and  O_16 
REMARK    2  A    between atoms: C_4  and  C_5 
REMARK    3  A    between atoms: C_10  and  N_18 
REMARK    4  A    between atoms: C_12  and  C_13 
REMARK       I    between atoms: C_12  and  N_18 
REMARK    5  A    between atoms: C_15  and  C_24 
REMARK    6  A    between atoms: C_24  and  O_26 
ROOT
HETATM    1  C   UNK N   1      27.728  18.384   5.488  0.00  0.00    -0.023 A 
HETATM    2  C   UNK N   1      28.464  17.236   5.144  0.00  0.00     0.014 A 
HETATM    3  C   UNK N   1      29.421  16.718   6.019  0.00  0.00     0.034 A 
HETATM    4  C   UNK N   1      29.646  17.331   7.252  0.00  0.00     0.074 A 
HETATM    5  C   UNK N   1      27.930  18.976   6.732  0.00  0.00     0.057 A 
HETATM    6  C   UNK N   1      28.865  18.458   7.618  0.00  0.00     0.143 A 
HETATM    7  F   UNK N   1      28.966  19.033   8.842  0.00  0.00    -0.204 F 
ENDROOT
BRANCH   4   8
HETATM    8  N   UNK N   1      30.624  16.788   8.135  0.00  0.00    -0.320 N 
HETATM    9  C   UNK N   1      31.862  16.425   7.719  0.00  0.00     0.257 C 
HETATM   10  O   UNK N   1      32.093  16.307   6.521  0.00  0.00    -0.267 OA
HETATM   11  H   UNK N   1      30.391  16.672   9.083  0.00  0.00     0.169 HD
BRANCH   9  12
HETATM   12  C   UNK N   1      32.933  16.153   8.688  0.00  0.00     0.056 A 
HETATM   13  C   UNK N   1      32.805  15.143   9.688  0.00  0.00     0.026 A 
HETATM   14  C   UNK N   1      33.930  15.019  10.513  0.00  0.00     0.052 A 
HETATM   15  S   UNK N   1      35.011  16.168   9.996  0.00  0.00    -0.094 SA
HETATM   16  C   UNK N   1      34.155  16.852   8.755  0.00  0.00     0.093 A 
BRANCH  16  17
HETATM   17  C   UNK N   1      34.620  18.039   7.986  0.00  0.00     0.184 C 
HETATM   18  O   UNK N   1      35.137  18.972   8.576  0.00  0.00    -0.646 OA
BRANCH  17  19
HETATM   19  O   UNK N   1      34.408  18.150   6.662  0.00  0.00    -0.772 OA
HETATM   20  H   UNK N   1      34.996  17.745   6.055  0.00  0.00     0.167 HD
ENDBRANCH  17  19
ENDBRANCH  16  17
ENDBRANCH   9  12
ENDBRANCH   4   8
BRANCH   1  21
HETATM   21  C   UNK N   1      26.692  18.914   4.585  0.00  0.00    -0.023 A 
HETATM   22  C   UNK N   1      25.429  18.326   4.581  0.00  0.00     0.049 A 
HETATM   23  C   UNK N   1      24.389  18.878   3.850  0.00  0.00     0.069 A 
HETATM   24  C   UNK N   1      24.617  20.018   3.059  0.00  0.00     0.037 A 
HETATM   25  C   UNK N   1      25.894  20.590   3.015  0.00  0.00     0.004 A 
HETATM   26  C   UNK N   1      26.923  20.056   3.796  0.00  0.00     0.012 A 
BRANCH  23  27
HETATM   27  O   UNK N   1      23.165  18.335   3.985  0.00  0.00    -0.356 OA
HETATM   28  C   UNK N   1      22.589  18.183   5.222  0.00  0.00     0.210 C 
ENDBRANCH  23  27
ENDBRANCH   1  21
TORSDOF 6
ENDMDL
MODEL 3
REMARK VINA RESULT:      -7.3     10.744     14.109
REMARK  6 active torsions:
REMARK  status: ('A' for Active; 'I' for Inactive)
REMARK    1  A    between atoms: C_2  and  O_16 
REMARK    2  A    between atoms: C_4  and  C_5 
REMARK    3  A    between atoms: C_10  and  N_18 
REMARK    4  A    between atoms: C_12  and  C_13 
REMARK       I    between atoms: C_12  and  N_18 
REMARK    5  A    between atoms: C_15  and  C_24 
REMARK    6  A    between atoms: C_24  and  O_26 
ROOT
HETATM    1  C   UNK N   1      27.725  18.014   6.406  0.00  0.00    -0.023 A 
HETATM    2  C   UNK N   1      27.098  16.836   5.964  0.00  0.00     0.014 A 
HETATM    3  C   UNK N   1      25.962  16.898   5.154  0.00  0.00     0.034 A 
HETATM    4  C   UNK N   1      25.447  18.135   4.765  0.00  0.00     0.074 A 
HETATM    5  C   UNK N   1      27.230  19.247   5.991  0.00  0.00     0.057 A 
HETATM    6  C   UNK N   1      26.113  19.321   5.169  0.00  0.00     0.143 A 
HETATM    7  F   UNK N   1      25.720  20.545   4.739  0.00  0.00    -0.204 F 
ENDROOT
BRANCH   4   8
HETATM    8  N   UNK N   1      24.289  18.180   3.935  0.00  0.00    -0.320 N 
HETATM    9  C   UNK N   1      23.035  18.286   4.438  0.00  0.00     0.257 C 
HETATM   10  O   UNK N   1      22.835  18.082   5.629  0.00  0.00    -0.267 OA
HETATM   11  H   UNK N   1      24.405  18.133   2.960  0.00  0.00     0.169 HD
BRANCH   9  12
HETATM   12  C   UNK N   1      21.900  18.627   3.567  0.00  0.00     0.056 A 
HETATM   13  C   UNK N   1      20.797  17.740   3.387  0.00  0.00     0.026 A 
HETATM   14  C   UNK N   1      19.805  18.238   2.532  0.00  0.00     0.052 A 
HETATM   15  S   UNK N   1      20.342  19.723   2.019  0.00  0.00    -0.094 SA
HETATM   16  C   UNK N   1      21.790  19.814   2.815  0.00  0.00     0.093 A 
BRANCH  16  17
HETATM   17  C   UNK N   1      22.768  20.922   2.630  0.00  0.00     0.184 C 
HETATM   18  O   UNK N   1      23.886  20.671   2.214  0.00  0.00    -0.646 OA
BRANCH  17  19
HETATM   19  O   UNK N   1      22.480  22.185   2.990  0.00  0.00    -0.772 OA
HETATM   20  H   UNK N   1      22.339  22.398   3.892  0.00  0.00     0.167 HD
ENDBRANCH  17  19
ENDBRANCH  16  17
ENDBRANCH   9  12
ENDBRANCH   4   8
BRANCH   1  21
HETATM   21  C   UNK N   1      28.944  17.956   7.230  0.00  0.00    -0.023 A 
HETATM   22  C   UNK N   1      30.031  17.206   6.785  0.00  0.00     0.049 A 
HETATM   23  C   UNK N   1      31.241  17.234   7.460  0.00  0.00     0.069 A 
HETATM   24  C   UNK N   1      31.366  17.988   8.641  0.00  0.00     0.037 A 
HETATM   25  C   UNK N   1      30.267  18.707   9.127  0.00  0.00     0.004 A 
HETATM   26  C   UNK N   1      29.066  18.712   8.411  0.00  0.00     0.012 A 
BRANCH  23  27
HETATM   27  O   UNK N   1      32.284  16.587   6.911  0.00  0.00    -0.356 OA
HETATM   28  C   UNK N   1      32.175  15.279   6.507  0.00  0.00     0.210 C 
ENDBRANCH  23  27
ENDBRANCH   1  21
TORSDOF 6
ENDMDL
MODEL 4
REMARK VINA RESULT:      -7.2      2.123      2.866
REMARK  6 active torsions:
REMARK  status: ('A' for Active; 'I' for Inactive)
REMARK    1  A    between atoms: C_2  and  O_16 
REMARK    2  A    between atoms: C_4  and  C_5 
REMARK    3  A    between atoms: C_10  and  N_18 
REMARK    4  A    between atoms: C_12  and  C_13 
REMARK       I    between atoms: C_12  and  N_18 
REMARK    5  A    between atoms: C_15  and  C_24 
REMARK    6  A    between atoms: C_24  and  O_26 
ROOT
HETATM    1  C   UNK N   1      35.103  11.026  16.500  0.00  0.00    -0.023 A 
HETATM    2  C   UNK N   1      35.573  12.340  16.329  0.00  0.00     0.014 A 
HETATM    3  C   UNK N   1      35.374  13.013  15.122  0.00  0.00     0.034 A 
HETATM    4  C   UNK N   1      34.694  12.388  14.076  0.00  0.00     0.074 A 
HETATM    5  C   UNK N   1      34.396  10.414  15.468  0.00  0.00     0.057 A 
HETATM    6  C   UNK N   1      34.175  11.081  14.270  0.00  0.00     0.143 A 
HETATM    7  F   UNK N   1      33.419  10.464  13.330  0.00  0.00    -0.204 F 
ENDROOT
BRANCH   4   8
HETATM    8  N   UNK N   1      34.497  13.090  12.852  0.00  0.00    -0.320 N 
HETATM    9  C   UNK N   1      35.328  12.952  11.790  0.00  0.00     0.257 C 
HETATM   10  O   UNK N   1      36.422  12.421  11.935  0.00  0.00    -0.267 OA
HETATM   11  H   UNK N   1      33.729  13.699  12.776  0.00  0.00     0.169 HD
BRANCH   9  12
HETATM   12  C   UNK N   1      34.941  13.449  10.461  0.00  0.00     0.056 A 
HETATM   13  C   UNK N   1      34.344  12.597   9.484  0.00  0.00     0.026 A 
HETATM   14  C   UNK N   1      34.032  13.247   8.283  0.00  0.00     0.052 A 
HETATM   15  S   UNK N   1      34.528  14.820   8.467  0.00  0.00    -0.094 SA
HETATM   16  C   UNK N   1      35.133  14.769  10.007  0.00  0.00     0.093 A 
BRANCH  16  17
HETATM   17  C   UNK N   1      35.825  15.914  10.662  0.00  0.00     0.184 C 
HETATM   18  O   UNK N   1      35.184  16.902  10.975  0.00  0.00    -0.646 OA
BRANCH  17  19
HETATM   19  O   UNK N   1      37.158  15.922  10.844  0.00  0.00    -0.772 OA
HETATM   20  H   UNK N   1      37.543  15.412  11.529  0.00  0.00     0.167 HD
ENDBRANCH  17  19
ENDBRANCH  16  17
ENDBRANCH   9  12
ENDBRANCH   4   8
BRANCH   1  21
HETATM   21  C   UNK N   1      35.277  10.323  17.783  0.00  0.00    -0.023 A 
HETATM   22  C   UNK N   1      34.245   9.520  18.264  0.00  0.00     0.049 A 
HETATM   23  C   UNK N   1      34.419   8.737  19.394  0.00  0.00     0.069 A 
HETATM   24  C   UNK N   1      35.635   8.786  20.100  0.00  0.00     0.037 A 
HETATM   25  C   UNK N   1      36.663   9.626  19.655  0.00  0.00     0.004 A 
HETATM   26  C   UNK N   1      36.496  10.374  18.485  0.00  0.00     0.012 A 
BRANCH  23  27
HETATM   27  O   UNK N   1      33.428   7.894  19.735  0.00  0.00    -0.356 OA
HETATM   28  C   UNK N   1      32.129   8.328  19.834  0.00  0.00     0.210 C 
ENDBRANCH  23  27
ENDBRANCH   1  21
TORSDOF 6
ENDMDL
MODEL 5
REMARK VINA RESULT:      -7.1      6.490     11.608
REMARK  6 active torsions:
REMARK  status: ('A' for Active; 'I' for Inactive)
REMARK    1  A    between atoms: C_2  and  O_16 
REMARK    2  A    between atoms: C_4  and  C_5 
REMARK    3  A    between atoms: C_10  and  N_18 
REMARK    4  A    between atoms: C_12  and  C_13 
REMARK       I    between atoms: C_12  and  N_18 
REMARK    5  A    between atoms: C_15  and  C_24 
REMARK    6  A    between atoms: C_24  and  O_26 
ROOT
HETATM    1  C   UNK N   1      29.484  17.901   5.628  0.00  0.00    -0.023 A 
HETATM    2  C   UNK N   1      30.345  17.381   4.644  0.00  0.00     0.014 A 
HETATM    3  C   UNK N   1      31.445  16.601   5.006  0.00  0.00     0.034 A 
HETATM    4  C   UNK N   1      31.693  16.321   6.350  0.00  0.00     0.074 A 
HETATM    5  C   UNK N   1      29.713  17.593   6.966  0.00  0.00     0.057 A 
HETATM    6  C   UNK N   1      30.793  16.803   7.335  0.00  0.00     0.143 A 
HETATM    7  F   UNK N   1      30.924  16.479   8.646  0.00  0.00    -0.204 F 
ENDROOT
BRANCH   4   8
HETATM    8  N   UNK N   1      32.819  15.521   6.701  0.00  0.00    -0.320 N 
HETATM    9  C   UNK N   1      34.027  16.055   7.008  0.00  0.00     0.257 C 
HETATM   10  O   UNK N   1      34.262  17.227   6.740  0.00  0.00    -0.267 OA
HETATM   11  H   UNK N   1      32.715  14.543   6.721  0.00  0.00     0.169 HD
BRANCH   9  12
HETATM   12  C   UNK N   1      35.070  15.240   7.647  0.00  0.00     0.056 A 
HETATM   13  C   UNK N   1      35.756  14.208   6.940  0.00  0.00     0.026 A 
HETATM   14  C   UNK N   1      36.725  13.547   7.706  0.00  0.00     0.052 A 
HETATM   15  S   UNK N   1      36.673  14.239   9.214  0.00  0.00    -0.094 SA
HETATM   16  C   UNK N   1      35.479  15.363   8.990  0.00  0.00     0.093 A 
BRANCH  16  17
HETATM   17  C   UNK N   1      34.934  16.219  10.080  0.00  0.00     0.184 C 
HETATM   18  O   UNK N   1      35.403  17.329  10.263  0.00  0.00    -0.646 OA
BRANCH  17  19
HETATM   19  O   UNK N   1      33.991  15.768  10.926  0.00  0.00    -0.772 OA
HETATM   20  H   UNK N   1      33.846  14.847  11.023  0.00  0.00     0.167 HD
ENDBRANCH  17  19
ENDBRANCH  16  17
ENDBRANCH   9  12
ENDBRANCH   4   8
BRANCH   1  21
HETATM   21  C   UNK N   1      28.301  18.693   5.252  0.00  0.00    -0.023 A 
HETATM   22  C   UNK N   1      27.904  19.751   6.067  0.00  0.00     0.049 A 
HETATM   23  C   UNK N   1      26.882  20.604   5.681  0.00  0.00     0.069 A 
HETATM   24  C   UNK N   1      26.198  20.375   4.473  0.00  0.00     0.037 A 
HETATM   25  C   UNK N   1      26.554  19.287   3.668  0.00  0.00     0.004 A 
HETATM   26  C   UNK N   1      27.619  18.462   4.042  0.00  0.00     0.012 A 
BRANCH  23  27
HETATM   27  O   UNK N   1      26.630  21.676   6.453  0.00  0.00    -0.356 OA
HETATM   28  C   UNK N   1      26.068  21.537   7.698  0.00  0.00     0.210 C 
ENDBRANCH  23  27
ENDBRANCH   1  21
TORSDOF 6
ENDMDL
MODEL 6
REMARK VINA RESULT:      -7.1      2.015      3.031
REMARK  6 active torsions:
REMARK  status: ('A' for Active; 'I' for Inactive)
REMARK    1  A    between atoms: C_2  and  O_16 
REMARK    2  A    between atoms: C_4  and  C_5 
REMARK    3  A    between atoms: C_10  and  N_18 
REMARK    4  A    between atoms: C_12  and  C_13 
REMARK       I    between atoms: C_12  and  N_18 
REMARK    5  A    between atoms: C_15  and  C_24 
REMARK    6  A    between atoms: C_24  and  O_26 
ROOT
HETATM    1  C   UNK N   1      35.513  12.816  13.421  0.00  0.00    -0.023 A 
HETATM    2  C   UNK N   1      35.743  14.173  13.136  0.00  0.00     0.014 A 
HETATM    3  C   UNK N   1      35.513  14.677  11.854  0.00  0.00     0.034 A 
HETATM    4  C   UNK N   1      35.041  13.835  10.846  0.00  0.00     0.074 A 
HETATM    5  C   UNK N   1      35.010  11.984  12.424  0.00  0.00     0.057 A 
HETATM    6  C   UNK N   1      34.760  12.479  11.151  0.00  0.00     0.143 A 
HETATM    7  F   UNK N   1      34.204  11.640  10.242  0.00  0.00    -0.204 F 
ENDROOT
BRANCH   4   8
HETATM    8  N   UNK N   1      34.810  14.366   9.544  0.00  0.00    -0.320 N 
HETATM    9  C   UNK N   1      33.652  14.982   9.200  0.00  0.00     0.257 C 
HETATM   10  O   UNK N   1      32.666  14.871   9.919  0.00  0.00    -0.267 OA
HETATM   11  H   UNK N   1      35.519  14.281   8.867  0.00  0.00     0.169 HD
BRANCH   9  12
HETATM   12  C   UNK N   1      33.556  15.771   7.964  0.00  0.00     0.056 A 
HETATM   13  C   UNK N   1      32.961  15.245   6.779  0.00  0.00     0.026 A 
HETATM   14  C   UNK N   1      32.947  16.144   5.706  0.00  0.00     0.052 A 
HETATM   15  S   UNK N   1      33.688  17.526   6.252  0.00  0.00    -0.094 SA
HETATM   16  C   UNK N   1      34.048  17.083   7.806  0.00  0.00     0.093 A 
BRANCH  16  17
HETATM   17  C   UNK N   1      34.835  17.928   8.746  0.00  0.00     0.184 C 
HETATM   18  O   UNK N   1      35.164  19.052   8.409  0.00  0.00    -0.646 OA
BRANCH  17  19
HETATM   19  O   UNK N   1      35.266  17.454   9.928  0.00  0.00    -0.772 OA
HETATM   20  H   UNK N   1      35.518  18.046  10.610  0.00  0.00     0.167 HD
ENDBRANCH  17  19
ENDBRANCH  16  17
ENDBRANCH   9  12
ENDBRANCH   4   8
BRANCH   1  21
HETATM   21  C   UNK N   1      35.718  12.286  14.780  0.00  0.00    -0.023 A 
HETATM   22  C   UNK N   1      35.352  13.066  15.876  0.00  0.00     0.049 A 
HETATM   23  C   UNK N   1      35.401  12.553  17.163  0.00  0.00     0.069 A 
HETATM   24  C   UNK N   1      35.873  11.246  17.379  0.00  0.00     0.037 A 
HETATM   25  C   UNK N   1      36.290  10.469  16.291  0.00  0.00     0.004 A 
HETATM   26  C   UNK N   1      36.189  10.977  14.992  0.00  0.00     0.012 A 
BRANCH  23  27
HETATM   27  O   UNK N   1      34.920  13.313  18.163  0.00  0.00    -0.356 OA
HETATM   28  C   UNK N   1      35.076  12.942  19.475  0.00  0.00     0.210 C 
ENDBRANCH  23  27
ENDBRANCH   1  21
TORSDOF 6
ENDMDL
MODEL 7
REMARK VINA RESULT:      -7.1      1.699      2.364
REMARK  6 active torsions:
REMARK  status: ('A' for Active; 'I' for Inactive)
REMARK    1  A    between atoms: C_2  and  O_16 
REMARK    2  A    between atoms: C_4  and  C_5 
REMARK    3  A    between atoms: C_10  and  N_18 
REMARK    4  A    between atoms: C_12  and  C_13 
REMARK       I    between atoms: C_12  and  N_18 
REMARK    5  A    between atoms: C_15  and  C_24 
REMARK    6  A    between atoms: C_24  and  O_26 
ROOT
HETATM    1  C   UNK N   1      34.984  10.951  16.400  0.00  0.00    -0.023 A 
HETATM    2  C   UNK N   1      34.283  10.392  15.316  0.00  0.00     0.014 A 
HETATM    3  C   UNK N   1      34.150  11.098  14.119  0.00  0.00     0.034 A 
HETATM    4  C   UNK N   1      34.724  12.363  13.984  0.00  0.00     0.074 A 
HETATM    5  C   UNK N   1      35.585  12.199  16.253  0.00  0.00     0.057 A 
HETATM    6  C   UNK N   1      35.475  12.900  15.061  0.00  0.00     0.143 A 
HETATM    7  F   UNK N   1      36.140  14.077  14.953  0.00  0.00    -0.204 F 
ENDROOT
BRANCH   4   8
HETATM    8  N   UNK N   1      34.580  13.068  12.754  0.00  0.00    -0.320 N 
HETATM    9  C   UNK N   1      35.409  12.875  11.700  0.00  0.00     0.257 C 
HETATM   10  O   UNK N   1      36.468  12.279  11.858  0.00  0.00    -0.267 OA
HETATM   11  H   UNK N   1      33.850  13.722  12.668  0.00  0.00     0.169 HD
BRANCH   9  12
HETATM   12  C   UNK N   1      35.064  13.385  10.365  0.00  0.00     0.056 A 
HETATM   13  C   UNK N   1      34.553  12.532   9.342  0.00  0.00     0.026 A 
HETATM   14  C   UNK N   1      34.270  13.196   8.142  0.00  0.00     0.052 A 
HETATM   15  S   UNK N   1      34.686  14.785   8.384  0.00  0.00    -0.094 SA
HETATM   16  C   UNK N   1      35.219  14.723   9.950  0.00  0.00     0.093 A 
BRANCH  16  17
HETATM   17  C   UNK N   1      35.828  15.881  10.663  0.00  0.00     0.184 C 
HETATM   18  O   UNK N   1      35.117  16.801  11.028  0.00  0.00    -0.646 OA
BRANCH  17  19
HETATM   19  O   UNK N   1      37.157  15.979  10.841  0.00  0.00    -0.772 OA
HETATM   20  H   UNK N   1      37.746  15.664  10.184  0.00  0.00     0.167 HD
ENDBRANCH  17  19
ENDBRANCH  16  17
ENDBRANCH   9  12
ENDBRANCH   4   8
BRANCH   1  21
HETATM   21  C   UNK N   1      35.160  10.197  17.653  0.00  0.00    -0.023 A 
HETATM   22  C   UNK N   1      36.303  10.413  18.421  0.00  0.00     0.049 A 
HETATM   23  C   UNK N   1      36.442   9.828  19.670  0.00  0.00     0.069 A 
HETATM   24  C   UNK N   1      35.444   8.963  20.154  0.00  0.00     0.037 A 
HETATM   25  C   UNK N   1      34.315   8.698  19.370  0.00  0.00     0.004 A 
HETATM   26  C   UNK N   1      34.159   9.333  18.134  0.00  0.00     0.012 A 
BRANCH  23  27
HETATM   27  O   UNK N   1      37.510  10.174  20.412  0.00  0.00    -0.356 OA
HETATM   28  C   UNK N   1      37.469  10.116  21.783  0.00  0.00     0.210 C 
ENDBRANCH  23  27
ENDBRANCH   1  21
TORSDOF 6
ENDMDL
MODEL 8
REMARK VINA RESULT:      -7.1      3.331      9.054
REMARK  6 active torsions:
REMARK  status: ('A' for Active; 'I' for Inactive)
REMARK    1  A    between atoms: C_2  and  O_16 
REMARK    2  A    between atoms: C_4  and  C_5 
REMARK    3  A    between atoms: C_10  and  N_18 
REMARK    4  A    between atoms: C_12  and  C_13 
REMARK       I    between atoms: C_12  and  N_18 
REMARK    5  A    between atoms: C_15  and  C_24 
REMARK    6  A    between atoms: C_24  and  O_26 
ROOT
HETATM    1  C   UNK N   1      35.426  14.011  11.408  0.00  0.00    -0.023 A 
HETATM    2  C   UNK N   1      34.973  12.717  11.718  0.00  0.00     0.014 A 
HETATM    3  C   UNK N   1      35.192  12.173  12.985  0.00  0.00     0.034 A 
HETATM    4  C   UNK N   1      35.854  12.919  13.962  0.00  0.00     0.074 A 
HETATM    5  C   UNK N   1      36.057  14.767  12.393  0.00  0.00     0.057 A 
HETATM    6  C   UNK N   1      36.263  14.244  13.662  0.00  0.00     0.143 A 
HETATM    7  F   UNK N   1      36.818  15.052  14.600  0.00  0.00    -0.204 F 
ENDROOT
BRANCH   4   8
HETATM    8  N   UNK N   1      36.067  12.350  15.251  0.00  0.00    -0.320 N 
HETATM    9  C   UNK N   1      35.127  12.379  16.226  0.00  0.00     0.257 C 
HETATM   10  O   UNK N   1      34.160  13.125  16.120  0.00  0.00    -0.267 OA
HETATM   11  H   UNK N   1      36.931  11.919  15.440  0.00  0.00     0.169 HD
BRANCH   9  12
HETATM   12  C   UNK N   1      35.257  11.537  17.424  0.00  0.00     0.056 A 
HETATM   13  C   UNK N   1      35.313  10.114  17.342  0.00  0.00     0.026 A 
HETATM   14  C   UNK N   1      35.450   9.481  18.584  0.00  0.00     0.052 A 
HETATM   15  S   UNK N   1      35.467  10.691  19.720  0.00  0.00    -0.094 SA
HETATM   16  C   UNK N   1      35.312  12.022  18.747  0.00  0.00     0.093 A 
BRANCH  16  17
HETATM   17  C   UNK N   1      35.160  13.410  19.263  0.00  0.00     0.184 C 
HETATM   18  O   UNK N   1      34.583  13.598  20.320  0.00  0.00    -0.646 OA
BRANCH  17  19
HETATM   19  O   UNK N   1      35.568  14.476  18.551  0.00  0.00    -0.772 OA
HETATM   20  H   UNK N   1      35.728  14.395  17.631  0.00  0.00     0.167 HD
ENDBRANCH  17  19
ENDBRANCH  16  17
ENDBRANCH   9  12
ENDBRANCH   4   8
BRANCH   1  21
HETATM   21  C   UNK N   1      35.167  14.605  10.085  0.00  0.00    -0.023 A 
HETATM   22  C   UNK N   1      34.731  15.926  10.007  0.00  0.00     0.049 A 
HETATM   23  C   UNK N   1      34.606  16.563   8.782  0.00  0.00     0.069 A 
HETATM   24  C   UNK N   1      34.873  15.857   7.595  0.00  0.00     0.037 A 
HETATM   25  C   UNK N   1      35.265  14.515   7.658  0.00  0.00     0.004 A 
HETATM   26  C   UNK N   1      35.436  13.896   8.900  0.00  0.00     0.012 A 
BRANCH  23  27
HETATM   27  O   UNK N   1      34.300  17.873   8.781  0.00  0.00    -0.356 OA
HETATM   28  C   UNK N   1      33.306  18.369   7.974  0.00  0.00     0.210 C 
ENDBRANCH  23  27
ENDBRANCH   1  21
TORSDOF 6
ENDMDL
MODEL 9
REMARK VINA RESULT:      -7.0      1.830      2.372
REMARK  6 active torsions:
REMARK  status: ('A' for Active; 'I' for Inactive)
REMARK    1  A    between atoms: C_2  and  O_16 
REMARK    2  A    between atoms: C_4  and  C_5 
REMARK    3  A    between atoms: C_10  and  N_18 
REMARK    4  A    between atoms: C_12  and  C_13 
REMARK       I    between atoms: C_12  and  N_18 
REMARK    5  A    between atoms: C_15  and  C_24 
REMARK    6  A    between atoms: C_24  and  O_26 
ROOT
HETATM    1  C   UNK N   1      35.211  12.031  15.809  0.00  0.00    -0.023 A 
HETATM    2  C   UNK N   1      35.885  13.077  15.153  0.00  0.00     0.014 A 
HETATM    3  C   UNK N   1      35.775  13.234  13.770  0.00  0.00     0.034 A 
HETATM    4  C   UNK N   1      34.982  12.358  13.027  0.00  0.00     0.074 A 
HETATM    5  C   UNK N   1      34.395  11.177  15.072  0.00  0.00     0.057 A 
HETATM    6  C   UNK N   1      34.262  11.336  13.699  0.00  0.00     0.143 A 
HETATM    7  F   UNK N   1      33.398  10.521  13.046  0.00  0.00    -0.204 F 
ENDROOT
BRANCH   4   8
HETATM    8  N   UNK N   1      34.878  12.534  11.617  0.00  0.00    -0.320 N 
HETATM    9  C   UNK N   1      34.606  13.734  11.049  0.00  0.00     0.257 C 
HETATM   10  O   UNK N   1      34.180  14.653  11.738  0.00  0.00    -0.267 OA
HETATM   11  H   UNK N   1      35.010  11.753  11.033  0.00  0.00     0.169 HD
BRANCH   9  12
HETATM   12  C   UNK N   1      34.797  13.946   9.607  0.00  0.00     0.056 A 
HETATM   13  C   UNK N   1      33.698  13.974   8.698  0.00  0.00     0.026 A 
HETATM   14  C   UNK N   1      34.071  14.200   7.367  0.00  0.00     0.052 A 
HETATM   15  S   UNK N   1      35.727  14.325   7.366  0.00  0.00    -0.094 SA
HETATM   16  C   UNK N   1      36.047  14.114   8.976  0.00  0.00     0.093 A 
BRANCH  16  17
HETATM   17  C   UNK N   1      37.422  14.024   9.542  0.00  0.00     0.184 C 
HETATM   18  O   UNK N   1      38.012  12.958   9.518  0.00  0.00    -0.646 OA
BRANCH  17  19
HETATM   19  O   UNK N   1      38.001  15.071  10.157  0.00  0.00    -0.772 OA
HETATM   20  H   UNK N   1      37.650  15.398  10.962  0.00  0.00     0.167 HD
ENDBRANCH  17  19
ENDBRANCH  16  17
ENDBRANCH   9  12
ENDBRANCH   4   8
BRANCH   1  21
HETATM   21  C   UNK N   1      35.294  11.881  17.272  0.00  0.00    -0.023 A 
HETATM   22  C   UNK N   1      35.696  10.660  17.808  0.00  0.00     0.049 A 
HETATM   23  C   UNK N   1      35.918  10.518  19.169  0.00  0.00     0.069 A 
HETATM   24  C   UNK N   1      35.687  11.604  20.033  0.00  0.00     0.037 A 
HETATM   25  C   UNK N   1      35.235  12.822  19.513  0.00  0.00     0.004 A 
HETATM   26  C   UNK N   1      35.063  12.970  18.133  0.00  0.00     0.012 A 
BRANCH  23  27
HETATM   27  O   UNK N   1      36.422   9.351  19.608  0.00  0.00    -0.356 OA
HETATM   28  C   UNK N   1      37.161   8.542  18.780  0.00  0.00     0.210 C 
ENDBRANCH  23  27
ENDBRANCH   1  21
TORSDOF 6
ENDMDL
