MODEL 1
REMARK VINA RESULT:      -8.1      0.000      0.000
REMARK  7 active torsions:
REMARK  status: ('A' for Active; 'I' for Inactive)
REMARK    1  A    between atoms: C_2  and  O_16 
REMARK    2  A    between atoms: C_4  and  C_5 
REMARK    3  A    between atoms: C_10  and  N_22 
REMARK    4  A    between atoms: C_12  and  C_13 
REMARK       I    between atoms: C_12  and  N_22 
REMARK    5  A    between atoms: C_15  and  C_28 
REMARK    6  A    between atoms: O_16  and  C_17 
REMARK    7  A    between atoms: C_28  and  O_29 
ROOT
HETATM    1  C   UNK N   1      27.882  17.953   6.287  0.00  0.00    -0.020 A 
HETATM    2  C   UNK N   1      27.236  16.759   5.933  0.00  0.00     0.057 A 
HETATM    3  C   UNK N   1      26.037  16.779   5.222  0.00  0.00     0.147 A 
HETATM    4  C   UNK N   1      25.462  18.001   4.845  0.00  0.00     0.113 A 
HETATM    5  C   UNK N   1      27.326  19.170   5.898  0.00  0.00     0.057 A 
HETATM    6  F   UNK N   1      25.434  15.608   4.902  0.00  0.00    -0.204 F 
HETATM    7  C   UNK N   1      26.139  19.207   5.173  0.00  0.00     0.147 A 
HETATM    8  F   UNK N   1      25.700  20.418   4.752  0.00  0.00    -0.204 F 
ENDROOT
BRANCH   4   9
HETATM    9  N   UNK N   1      24.248  17.982   4.095  0.00  0.00    -0.318 N 
HETATM   10  C   UNK N   1      23.010  18.170   4.627  0.00  0.00     0.257 C 
HETATM   11  O   UNK N   1      22.848  18.133   5.833  0.00  0.00    -0.267 OA
HETATM   12  H   UNK N   1      24.310  17.822   3.125  0.00  0.00     0.169 HD
BRANCH  10  13
HETATM   13  C   UNK N   1      21.851  18.384   3.740  0.00  0.00     0.056 A 
HETATM   14  C   UNK N   1      20.835  17.399   3.577  0.00  0.00     0.026 A 
HETATM   15  C   UNK N   1      19.805  17.784   2.708  0.00  0.00     0.052 A 
HETATM   16  S   UNK N   1      20.207  19.299   2.161  0.00  0.00    -0.094 SA
HETATM   17  C   UNK N   1      21.635  19.541   2.960  0.00  0.00     0.093 A 
BRANCH  17  18
HETATM   18  C   UNK N   1      22.502  20.728   2.753  0.00  0.00     0.184 C 
HETATM   19  O   UNK N   1      23.682  20.610   2.470  0.00  0.00    -0.646 OA
BRANCH  18  20
HETATM   20  O   UNK N   1      21.965  21.960   2.803  0.00  0.00    -0.772 OA
HETATM   21  H   UNK N   1      21.177  22.150   2.333  0.00  0.00     0.167 HD
ENDBRANCH  18  20
ENDBRANCH  17  18
ENDBRANCH  10  13
ENDBRANCH   4   9
BRANCH   1  22
HETATM   22  C   UNK N   1      29.139  17.916   7.057  0.00  0.00    -0.023 A 
HETATM   23  C   UNK N   1      30.261  17.302   6.499  0.00  0.00     0.049 A 
HETATM   24  C   UNK N   1      31.456  17.212   7.199  0.00  0.00     0.079 A 
HETATM   25  C   UNK N   1      31.539  17.752   8.495  0.00  0.00     0.037 A 
HETATM   26  C   UNK N   1      30.427  18.384   9.063  0.00  0.00     0.004 A 
HETATM   27  C   UNK N   1      29.229  18.469   8.345  0.00  0.00     0.012 A 
BRANCH  24  28
HETATM   28  O   UNK N   1      32.503  16.612   6.586  0.00  0.00    -0.255 OA
BRANCH  28  29
HETATM   29  C   UNK N   1      33.615  17.224   6.042  0.00  0.00     0.530 C 
HETATM   30  F   UNK N   1      33.232  18.006   4.971  0.00  0.00    -0.144 F 
HETATM   31  F   UNK N   1      34.297  17.999   6.964  0.00  0.00    -0.144 F 
HETATM   32  F   UNK N   1      34.467  16.234   5.592  0.00  0.00    -0.144 F 
ENDBRANCH  28  29
ENDBRANCH  24  28
ENDBRANCH   1  22
TORSDOF 7
ENDMDL
MODEL 2
REMARK VINA RESULT:      -7.9     10.839     14.373
REMARK  7 active torsions:
REMARK  status: ('A' for Active; 'I' for Inactive)
REMARK    1  A    between atoms: C_2  and  O_16 
REMARK    2  A    between atoms: C_4  and  C_5 
REMARK    3  A    between atoms: C_10  and  N_22 
REMARK    4  A    between atoms: C_12  and  C_13 
REMARK       I    between atoms: C_12  and  N_22 
REMARK    5  A    between atoms: C_15  and  C_28 
REMARK    6  A    between atoms: O_16  and  C_17 
REMARK    7  A    between atoms: C_28  and  O_29 
ROOT
HETATM    1  C   UNK N   1      35.233  12.455  15.709  0.00  0.00    -0.020 A 
HETATM    2  C   UNK N   1      34.556  11.571  14.856  0.00  0.00     0.057 A 
HETATM    3  C   UNK N   1      34.530  11.785  13.479  0.00  0.00     0.147 A 
HETATM    4  C   UNK N   1      35.191  12.891  12.925  0.00  0.00     0.113 A 
HETATM    5  C   UNK N   1      35.908  13.546  15.162  0.00  0.00     0.057 A 
HETATM    6  F   UNK N   1      33.860  10.916  12.683  0.00  0.00    -0.204 F 
HETATM    7  C   UNK N   1      35.907  13.764  13.788  0.00  0.00     0.147 A 
HETATM    8  F   UNK N   1      36.654  14.791  13.317  0.00  0.00    -0.204 F 
ENDROOT
BRANCH   4   9
HETATM    9  N   UNK N   1      35.165  13.064  11.508  0.00  0.00    -0.318 N 
HETATM   10  C   UNK N   1      34.562  14.102  10.869  0.00  0.00     0.257 C 
HETATM   11  O   UNK N   1      33.797  14.833  11.471  0.00  0.00    -0.267 OA
HETATM   12  H   UNK N   1      35.614  12.384  10.955  0.00  0.00     0.169 HD
BRANCH  10  13
HETATM   13  C   UNK N   1      34.807  14.325   9.431  0.00  0.00     0.056 A 
HETATM   14  C   UNK N   1      35.017  13.245   8.527  0.00  0.00     0.026 A 
HETATM   15  C   UNK N   1      35.219  13.646   7.199  0.00  0.00     0.052 A 
HETATM   16  S   UNK N   1      35.158  15.305   7.207  0.00  0.00    -0.094 SA
HETATM   17  C   UNK N   1      34.882  15.592   8.813  0.00  0.00     0.093 A 
BRANCH  17  18
HETATM   18  C   UNK N   1      34.840  16.950   9.411  0.00  0.00     0.184 C 
HETATM   19  O   UNK N   1      34.094  17.811   8.976  0.00  0.00    -0.646 OA
BRANCH  18  20
HETATM   20  O   UNK N   1      35.580  17.219  10.501  0.00  0.00    -0.772 OA
HETATM   21  H   UNK N   1      36.420  17.625  10.411  0.00  0.00     0.167 HD
ENDBRANCH  18  20
ENDBRANCH  17  18
ENDBRANCH  10  13
ENDBRANCH   4   9
BRANCH   1  22
HETATM   22  C   UNK N   1      35.234  12.227  17.165  0.00  0.00    -0.023 A 
HETATM   23  C   UNK N   1      35.266  10.919  17.648  0.00  0.00     0.049 A 
HETATM   24  C   UNK N   1      35.233  10.653  19.011  0.00  0.00     0.079 A 
HETATM   25  C   UNK N   1      35.170  11.722  19.921  0.00  0.00     0.037 A 
HETATM   26  C   UNK N   1      35.151  13.041  19.452  0.00  0.00     0.004 A 
HETATM   27  C   UNK N   1      35.187  13.295  18.077  0.00  0.00     0.012 A 
BRANCH  24  28
HETATM   28  O   UNK N   1      35.279   9.358  19.402  0.00  0.00    -0.255 OA
BRANCH  28  29
HETATM   29  C   UNK N   1      34.309   8.393  19.211  0.00  0.00     0.530 C 
HETATM   30  F   UNK N   1      34.537   7.740  18.016  0.00  0.00    -0.144 F 
HETATM   31  F   UNK N   1      34.269   7.471  20.244  0.00  0.00    -0.144 F 
HETATM   32  F   UNK N   1      33.084   9.028  19.148  0.00  0.00    -0.144 F 
ENDBRANCH  28  29
ENDBRANCH  24  28
ENDBRANCH   1  22
TORSDOF 7
ENDMDL
MODEL 3
REMARK VINA RESULT:      -7.9     11.583     15.480
REMARK  7 active torsions:
REMARK  status: ('A' for Active; 'I' for Inactive)
REMARK    1  A    between atoms: C_2  and  O_16 
REMARK    2  A    between atoms: C_4  and  C_5 
REMARK    3  A    between atoms: C_10  and  N_22 
REMARK    4  A    between atoms: C_12  and  C_13 
REMARK       I    between atoms: C_12  and  N_22 
REMARK    5  A    between atoms: C_15  and  C_28 
REMARK    6  A    between atoms: O_16  and  C_17 
REMARK    7  A    between atoms: C_28  and  O_29 
ROOT
HETATM    1  C   UNK N   1      35.050  10.998  16.467  0.00  0.00    -0.020 A 
HETATM    2  C   UNK N   1      34.324  10.407  15.423  0.00  0.00     0.057 A 
HETATM    3  C   UNK N   1      34.153  11.069  14.207  0.00  0.00     0.147 A 
HETATM    4  C   UNK N   1      34.714  12.338  14.012  0.00  0.00     0.113 A 
HETATM    5  C   UNK N   1      35.626  12.252  16.272  0.00  0.00     0.057 A 
HETATM    6  F   UNK N   1      33.440  10.473  13.220  0.00  0.00    -0.204 F 
HETATM    7  C   UNK N   1      35.481  12.918  15.059  0.00  0.00     0.147 A 
HETATM    8  F   UNK N   1      36.139  14.092  14.907  0.00  0.00    -0.204 F 
ENDROOT
BRANCH   4   9
HETATM    9  N   UNK N   1      34.542  12.974  12.745  0.00  0.00    -0.318 N 
HETATM   10  C   UNK N   1      35.482  13.003  11.763  0.00  0.00     0.257 C 
HETATM   11  O   UNK N   1      36.631  12.680  12.001  0.00  0.00    -0.267 OA
HETATM   12  H   UNK N   1      33.683  13.424  12.570  0.00  0.00     0.169 HD
BRANCH  10  13
HETATM   13  C   UNK N   1      35.119  13.460  10.407  0.00  0.00     0.056 A 
HETATM   14  C   UNK N   1      34.627  12.562   9.417  0.00  0.00     0.026 A 
HETATM   15  C   UNK N   1      34.319  13.177   8.195  0.00  0.00     0.052 A 
HETATM   16  S   UNK N   1      34.693  14.783   8.383  0.00  0.00    -0.094 SA
HETATM   17  C   UNK N   1      35.234  14.789   9.946  0.00  0.00     0.093 A 
BRANCH  17  18
HETATM   18  C   UNK N   1      35.807  15.984  10.614  0.00  0.00     0.184 C 
HETATM   19  O   UNK N   1      35.100  16.915  10.964  0.00  0.00    -0.646 OA
BRANCH  18  20
HETATM   20  O   UNK N   1      37.119  16.016  10.911  0.00  0.00    -0.772 OA
HETATM   21  H   UNK N   1      37.719  15.466  10.448  0.00  0.00     0.167 HD
ENDBRANCH  18  20
ENDBRANCH  17  18
ENDBRANCH  10  13
ENDBRANCH   4   9
BRANCH   1  22
HETATM   22  C   UNK N   1      35.204  10.295  17.753  0.00  0.00    -0.023 A 
HETATM   23  C   UNK N   1      34.146   9.525  18.238  0.00  0.00     0.049 A 
HETATM   24  C   UNK N   1      34.232   8.872  19.461  0.00  0.00     0.079 A 
HETATM   25  C   UNK N   1      35.407   8.987  20.224  0.00  0.00     0.037 A 
HETATM   26  C   UNK N   1      36.482   9.745  19.745  0.00  0.00     0.004 A 
HETATM   27  C   UNK N   1      36.383  10.396  18.510  0.00  0.00     0.012 A 
BRANCH  24  28
HETATM   28  O   UNK N   1      33.168   8.135  19.858  0.00  0.00    -0.255 OA
BRANCH  28  29
HETATM   29  C   UNK N   1      32.051   8.579  20.537  0.00  0.00     0.530 C 
HETATM   30  F   UNK N   1      31.008   8.748  19.648  0.00  0.00    -0.144 F 
HETATM   31  F   UNK N   1      31.665   7.712  21.546  0.00  0.00    -0.144 F 
HETATM   32  F   UNK N   1      32.357   9.799  21.107  0.00  0.00    -0.144 F 
ENDBRANCH  28  29
ENDBRANCH  24  28
ENDBRANCH   1  22
TORSDOF 7
ENDMDL
MODEL 4
REMARK VINA RESULT:      -7.8     11.489     15.441
REMARK  7 active torsions:
REMARK  status: ('A' for Active; 'I' for Inactive)
REMARK    1  A    between atoms: C_2  and  O_16 
REMARK    2  A    between atoms: C_4  and  C_5 
REMARK    3  A    between atoms: C_10  and  N_22 
REMARK    4  A    between atoms: C_12  and  C_13 
REMARK       I    between atoms: C_12  and  N_22 
REMARK    5  A    between atoms: C_15  and  C_28 
REMARK    6  A    between atoms: O_16  and  C_17 
REMARK    7  A    between atoms: C_28  and  O_29 
ROOT
HETATM    1  C   UNK N   1      35.051  11.029  16.346  0.00  0.00    -0.020 A 
HETATM    2  C   UNK N   1      35.573  12.313  16.130  0.00  0.00     0.057 A 
HETATM    3  C   UNK N   1      35.413  12.952  14.901  0.00  0.00     0.147 A 
HETATM    4  C   UNK N   1      34.718  12.317  13.863  0.00  0.00     0.113 A 
HETATM    5  C   UNK N   1      34.343  10.401  15.323  0.00  0.00     0.057 A 
HETATM    6  F   UNK N   1      35.936  14.190  14.723  0.00  0.00    -0.204 F 
HETATM    7  C   UNK N   1      34.159  11.032  14.097  0.00  0.00     0.147 A 
HETATM    8  F   UNK N   1      33.388  10.402  13.179  0.00  0.00    -0.204 F 
ENDROOT
BRANCH   4   9
HETATM    9  N   UNK N   1      34.551  13.013  12.627  0.00  0.00    -0.318 N 
HETATM   10  C   UNK N   1      35.425  12.956  11.586  0.00  0.00     0.257 C 
HETATM   11  O   UNK N   1      36.535  12.483  11.741  0.00  0.00    -0.267 OA
HETATM   12  H   UNK N   1      33.748  13.573  12.521  0.00  0.00     0.169 HD
BRANCH  10  13
HETATM   13  C   UNK N   1      35.040  13.502  10.270  0.00  0.00     0.056 A 
HETATM   14  C   UNK N   1      34.490  12.679   9.246  0.00  0.00     0.026 A 
HETATM   15  C   UNK N   1      34.170  13.372   8.070  0.00  0.00     0.052 A 
HETATM   16  S   UNK N   1      34.605  14.952   8.336  0.00  0.00    -0.094 SA
HETATM   17  C   UNK N   1      35.189  14.851   9.881  0.00  0.00     0.093 A 
BRANCH  17  18
HETATM   18  C   UNK N   1      35.822  15.986  10.597  0.00  0.00     0.184 C 
HETATM   19  O   UNK N   1      35.163  16.935  10.990  0.00  0.00    -0.646 OA
BRANCH  18  20
HETATM   20  O   UNK N   1      37.134  15.940  10.891  0.00  0.00    -0.772 OA
HETATM   21  H   UNK N   1      37.467  16.405  11.632  0.00  0.00     0.167 HD
ENDBRANCH  18  20
ENDBRANCH  17  18
ENDBRANCH  10  13
ENDBRANCH   4   9
BRANCH   1  22
HETATM   22  C   UNK N   1      35.247  10.358  17.644  0.00  0.00    -0.023 A 
HETATM   23  C   UNK N   1      34.210   9.593  18.177  0.00  0.00     0.049 A 
HETATM   24  C   UNK N   1      34.334   8.970  19.412  0.00  0.00     0.079 A 
HETATM   25  C   UNK N   1      35.531   9.111  20.138  0.00  0.00     0.037 A 
HETATM   26  C   UNK N   1      36.586   9.863  19.610  0.00  0.00     0.004 A 
HETATM   27  C   UNK N   1      36.447  10.484  18.364  0.00  0.00     0.012 A 
BRANCH  24  28
HETATM   28  O   UNK N   1      33.288   8.236  19.857  0.00  0.00    -0.255 OA
BRANCH  28  29
HETATM   29  C   UNK N   1      32.163   8.697  20.513  0.00  0.00     0.530 C 
HETATM   30  F   UNK N   1      31.159   8.934  19.594  0.00  0.00    -0.144 F 
HETATM   31  F   UNK N   1      31.712   7.811  21.477  0.00  0.00    -0.144 F 
HETATM   32  F   UNK N   1      32.491   9.886  21.135  0.00  0.00    -0.144 F 
ENDBRANCH  28  29
ENDBRANCH  24  28
ENDBRANCH   1  22
TORSDOF 7
ENDMDL
MODEL 5
REMARK VINA RESULT:      -7.7      4.184      9.979
REMARK  7 active torsions:
REMARK  status: ('A' for Active; 'I' for Inactive)
REMARK    1  A    between atoms: C_2  and  O_16 
REMARK    2  A    between atoms: C_4  and  C_5 
REMARK    3  A    between atoms: C_10  and  N_22 
REMARK    4  A    between atoms: C_12  and  C_13 
REMARK       I    between atoms: C_12  and  N_22 
REMARK    5  A    between atoms: C_15  and  C_28 
REMARK    6  A    between atoms: O_16  and  C_17 
REMARK    7  A    between atoms: C_28  and  O_29 
ROOT
HETATM    1  C   UNK N   1      27.257  18.505   5.342  0.00  0.00    -0.020 A 
HETATM    2  C   UNK N   1      27.773  19.162   6.468  0.00  0.00     0.057 A 
HETATM    3  C   UNK N   1      28.752  18.563   7.259  0.00  0.00     0.147 A 
HETATM    4  C   UNK N   1      29.240  17.291   6.932  0.00  0.00     0.113 A 
HETATM    5  C   UNK N   1      27.752  17.248   5.000  0.00  0.00     0.057 A 
HETATM    6  F   UNK N   1      29.225  19.222   8.345  0.00  0.00    -0.204 F 
HETATM    7  C   UNK N   1      28.742  16.643   5.768  0.00  0.00     0.147 A 
HETATM    8  F   UNK N   1      29.239  15.462   5.331  0.00  0.00    -0.204 F 
ENDROOT
BRANCH   4   9
HETATM    9  N   UNK N   1      30.262  16.720   7.749  0.00  0.00    -0.318 N 
HETATM   10  C   UNK N   1      31.568  16.611   7.385  0.00  0.00     0.257 C 
HETATM   11  O   UNK N   1      31.902  16.787   6.228  0.00  0.00    -0.267 OA
HETATM   12  H   UNK N   1      30.004  16.380   8.636  0.00  0.00     0.169 HD
BRANCH  10  13
HETATM   13  C   UNK N   1      32.585  16.242   8.390  0.00  0.00     0.056 A 
HETATM   14  C   UNK N   1      32.358  15.212   9.347  0.00  0.00     0.026 A 
HETATM   15  C   UNK N   1      33.440  14.991  10.211  0.00  0.00     0.052 A 
HETATM   16  S   UNK N   1      34.607  16.088   9.775  0.00  0.00    -0.094 SA
HETATM   17  C   UNK N   1      33.846  16.863   8.527  0.00  0.00     0.093 A 
BRANCH  17  18
HETATM   18  C   UNK N   1      34.413  18.037   7.819  0.00  0.00     0.184 C 
HETATM   19  O   UNK N   1      34.866  18.989   8.432  0.00  0.00    -0.646 OA
BRANCH  18  20
HETATM   20  O   UNK N   1      34.503  18.025   6.477  0.00  0.00    -0.772 OA
HETATM   21  H   UNK N   1      35.342  18.010   6.062  0.00  0.00     0.167 HD
ENDBRANCH  18  20
ENDBRANCH  17  18
ENDBRANCH  10  13
ENDBRANCH   4   9
BRANCH   1  22
HETATM   22  C   UNK N   1      26.206  19.143   4.528  0.00  0.00    -0.023 A 
HETATM   23  C   UNK N   1      24.870  18.820   4.767  0.00  0.00     0.049 A 
HETATM   24  C   UNK N   1      23.848  19.368   4.003  0.00  0.00     0.079 A 
HETATM   25  C   UNK N   1      24.166  20.270   2.971  0.00  0.00     0.037 A 
HETATM   26  C   UNK N   1      25.500  20.615   2.728  0.00  0.00     0.004 A 
HETATM   27  C   UNK N   1      26.520  20.055   3.506  0.00  0.00     0.012 A 
BRANCH  24  28
HETATM   28  O   UNK N   1      22.577  19.015   4.303  0.00  0.00    -0.255 OA
BRANCH  28  29
HETATM   29  C   UNK N   1      21.714  18.264   3.529  0.00  0.00     0.530 C 
HETATM   30  F   UNK N   1      21.323  19.001   2.428  0.00  0.00    -0.144 F 
HETATM   31  F   UNK N   1      22.279  17.071   3.112  0.00  0.00    -0.144 F 
HETATM   32  F   UNK N   1      20.601  17.974   4.293  0.00  0.00    -0.144 F 
ENDBRANCH  28  29
ENDBRANCH  24  28
ENDBRANCH   1  22
TORSDOF 7
ENDMDL
MODEL 6
REMARK VINA RESULT:      -7.4      1.226      2.491
REMARK  7 active torsions:
REMARK  status: ('A' for Active; 'I' for Inactive)
REMARK    1  A    between atoms: C_2  and  O_16 
REMARK    2  A    between atoms: C_4  and  C_5 
REMARK    3  A    between atoms: C_10  and  N_22 
REMARK    4  A    between atoms: C_12  and  C_13 
REMARK       I    between atoms: C_12  and  N_22 
REMARK    5  A    between atoms: C_15  and  C_28 
REMARK    6  A    between atoms: O_16  and  C_17 
REMARK    7  A    between atoms: C_28  and  O_29 
ROOT
HETATM    1  C   UNK N   1      27.901  18.059   6.233  0.00  0.00    -0.020 A 
HETATM    2  C   UNK N   1      27.344  19.311   5.934  0.00  0.00     0.057 A 
HETATM    3  C   UNK N   1      26.175  19.412   5.180  0.00  0.00     0.147 A 
HETATM    4  C   UNK N   1      25.535  18.254   4.716  0.00  0.00     0.113 A 
HETATM    5  C   UNK N   1      27.259  16.904   5.790  0.00  0.00     0.057 A 
HETATM    6  F   UNK N   1      25.667  20.637   4.902  0.00  0.00    -0.204 F 
HETATM    7  C   UNK N   1      26.082  16.986   5.053  0.00  0.00     0.147 A 
HETATM    8  F   UNK N   1      25.464  15.825   4.729  0.00  0.00    -0.204 F 
ENDROOT
BRANCH   4   9
HETATM    9  N   UNK N   1      24.326  18.395   3.970  0.00  0.00    -0.318 N 
HETATM   10  C   UNK N   1      23.085  18.478   4.522  0.00  0.00     0.257 C 
HETATM   11  O   UNK N   1      22.914  18.200   5.695  0.00  0.00    -0.267 OA
HETATM   12  H   UNK N   1      24.393  18.433   2.989  0.00  0.00     0.169 HD
BRANCH  10  13
HETATM   13  C   UNK N   1      21.933  18.874   3.690  0.00  0.00     0.056 A 
HETATM   14  C   UNK N   1      21.915  20.100   2.963  0.00  0.00     0.026 A 
HETATM   15  C   UNK N   1      20.746  20.300   2.217  0.00  0.00     0.052 A 
HETATM   16  S   UNK N   1      19.783  18.980   2.508  0.00  0.00    -0.094 SA
HETATM   17  C   UNK N   1      20.748  18.121   3.541  0.00  0.00     0.093 A 
BRANCH  17  18
HETATM   18  C   UNK N   1      20.324  16.867   4.212  0.00  0.00     0.184 C 
HETATM   19  O   UNK N   1      20.083  15.856   3.574  0.00  0.00    -0.646 OA
BRANCH  18  20
HETATM   20  O   UNK N   1      20.278  16.814   5.556  0.00  0.00    -0.772 OA
HETATM   21  H   UNK N   1      19.995  16.032   5.986  0.00  0.00     0.167 HD
ENDBRANCH  18  20
ENDBRANCH  17  18
ENDBRANCH  10  13
ENDBRANCH   4   9
BRANCH   1  22
HETATM   22  C   UNK N   1      29.149  17.970   7.013  0.00  0.00    -0.023 A 
HETATM   23  C   UNK N   1      30.258  17.337   6.451  0.00  0.00     0.049 A 
HETATM   24  C   UNK N   1      31.444  17.198   7.160  0.00  0.00     0.079 A 
HETATM   25  C   UNK N   1      31.530  17.709   8.467  0.00  0.00     0.037 A 
HETATM   26  C   UNK N   1      30.431  18.359   9.039  0.00  0.00     0.004 A 
HETATM   27  C   UNK N   1      29.243  18.493   8.313  0.00  0.00     0.012 A 
BRANCH  24  28
HETATM   28  O   UNK N   1      32.480  16.582   6.543  0.00  0.00    -0.255 OA
BRANCH  28  29
HETATM   29  C   UNK N   1      33.573  17.180   5.948  0.00  0.00     0.530 C 
HETATM   30  F   UNK N   1      33.155  17.945   4.877  0.00  0.00    -0.144 F 
HETATM   31  F   UNK N   1      34.290  17.969   6.831  0.00  0.00    -0.144 F 
HETATM   32  F   UNK N   1      34.406  16.179   5.486  0.00  0.00    -0.144 F 
ENDBRANCH  28  29
ENDBRANCH  24  28
ENDBRANCH   1  22
TORSDOF 7
ENDMDL
MODEL 7
REMARK VINA RESULT:      -7.3      1.800      2.609
REMARK  7 active torsions:
REMARK  status: ('A' for Active; 'I' for Inactive)
REMARK    1  A    between atoms: C_2  and  O_16 
REMARK    2  A    between atoms: C_4  and  C_5 
REMARK    3  A    between atoms: C_10  and  N_22 
REMARK    4  A    between atoms: C_12  and  C_13 
REMARK       I    between atoms: C_12  and  N_22 
REMARK    5  A    between atoms: C_15  and  C_28 
REMARK    6  A    between atoms: O_16  and  C_17 
REMARK    7  A    between atoms: C_28  and  O_29 
ROOT
HETATM    1  C   UNK N   1      29.258  17.476   4.230  0.00  0.00    -0.020 A 
HETATM    2  C   UNK N   1      28.528  16.512   3.520  0.00  0.00     0.057 A 
HETATM    3  C   UNK N   1      27.175  16.701   3.240  0.00  0.00     0.147 A 
HETATM    4  C   UNK N   1      26.526  17.870   3.662  0.00  0.00     0.113 A 
HETATM    5  C   UNK N   1      28.623  18.648   4.636  0.00  0.00     0.057 A 
HETATM    6  F   UNK N   1      26.497  15.747   2.558  0.00  0.00    -0.204 F 
HETATM    7  C   UNK N   1      27.278  18.862   4.349  0.00  0.00     0.147 A 
HETATM    8  F   UNK N   1      26.747  20.058   4.696  0.00  0.00    -0.204 F 
ENDROOT
BRANCH   4   9
HETATM    9  N   UNK N   1      25.147  18.043   3.335  0.00  0.00    -0.318 N 
HETATM   10  C   UNK N   1      24.132  18.020   4.240  0.00  0.00     0.257 C 
HETATM   11  O   UNK N   1      24.325  17.613   5.370  0.00  0.00    -0.267 OA
HETATM   12  H   UNK N   1      24.915  18.187   2.389  0.00  0.00     0.169 HD
BRANCH  10  13
HETATM   13  C   UNK N   1      22.780  18.459   3.841  0.00  0.00     0.056 A 
HETATM   14  C   UNK N   1      21.634  17.636   4.038  0.00  0.00     0.026 A 
HETATM   15  C   UNK N   1      20.434  18.223   3.613  0.00  0.00     0.052 A 
HETATM   16  S   UNK N   1      20.843  19.707   2.993  0.00  0.00    -0.094 SA
HETATM   17  C   UNK N   1      22.482  19.691   3.221  0.00  0.00     0.093 A 
BRANCH  17  18
HETATM   18  C   UNK N   1      23.390  20.762   2.740  0.00  0.00     0.184 C 
HETATM   19  O   UNK N   1      23.227  21.926   3.067  0.00  0.00    -0.646 OA
BRANCH  18  20
HETATM   20  O   UNK N   1      24.461  20.440   1.992  0.00  0.00    -0.772 OA
HETATM   21  H   UNK N   1      24.539  19.581   1.628  0.00  0.00     0.167 HD
ENDBRANCH  18  20
ENDBRANCH  17  18
ENDBRANCH  10  13
ENDBRANCH   4   9
BRANCH   1  22
HETATM   22  C   UNK N   1      30.682  17.251   4.536  0.00  0.00    -0.023 A 
HETATM   23  C   UNK N   1      31.080  17.127   5.867  0.00  0.00     0.049 A 
HETATM   24  C   UNK N   1      32.415  16.949   6.207  0.00  0.00     0.079 A 
HETATM   25  C   UNK N   1      33.383  16.888   5.189  0.00  0.00     0.037 A 
HETATM   26  C   UNK N   1      32.998  16.996   3.848  0.00  0.00     0.004 A 
HETATM   27  C   UNK N   1      31.650  17.174   3.520  0.00  0.00     0.012 A 
BRANCH  24  28
HETATM   28  O   UNK N   1      32.721  16.826   7.519  0.00  0.00    -0.255 OA
BRANCH  28  29
HETATM   29  C   UNK N   1      33.033  17.841   8.403  0.00  0.00     0.530 C 
HETATM   30  F   UNK N   1      33.760  17.326   9.458  0.00  0.00    -0.144 F 
HETATM   31  F   UNK N   1      33.745  18.865   7.802  0.00  0.00    -0.144 F 
HETATM   32  F   UNK N   1      31.848  18.362   8.886  0.00  0.00    -0.144 F 
ENDBRANCH  28  29
ENDBRANCH  24  28
ENDBRANCH   1  22
TORSDOF 7
ENDMDL
MODEL 8
REMARK VINA RESULT:      -7.3      5.300     10.631
REMARK  7 active torsions:
REMARK  status: ('A' for Active; 'I' for Inactive)
REMARK    1  A    between atoms: C_2  and  O_16 
REMARK    2  A    between atoms: C_4  and  C_5 
REMARK    3  A    between atoms: C_10  and  N_22 
REMARK    4  A    between atoms: C_12  and  C_13 
REMARK       I    between atoms: C_12  and  N_22 
REMARK    5  A    between atoms: C_15  and  C_28 
REMARK    6  A    between atoms: O_16  and  C_17 
REMARK    7  A    between atoms: C_28  and  O_29 
ROOT
HETATM    1  C   UNK N   1      29.993  16.750   5.656  0.00  0.00    -0.020 A 
HETATM    2  C   UNK N   1      30.745  15.792   4.961  0.00  0.00     0.057 A 
HETATM    3  C   UNK N   1      31.857  15.191   5.549  0.00  0.00     0.147 A 
HETATM    4  C   UNK N   1      32.235  15.535   6.854  0.00  0.00     0.113 A 
HETATM    5  C   UNK N   1      30.353  17.082   6.961  0.00  0.00     0.057 A 
HETATM    6  F   UNK N   1      32.567  14.274   4.847  0.00  0.00    -0.204 F 
HETATM    7  C   UNK N   1      31.448  16.479   7.570  0.00  0.00     0.147 A 
HETATM    8  F   UNK N   1      31.689  16.783   8.867  0.00  0.00    -0.204 F 
ENDROOT
BRANCH   4   9
HETATM    9  N   UNK N   1      33.363  14.880   7.435  0.00  0.00    -0.318 N 
HETATM   10  C   UNK N   1      34.616  15.407   7.489  0.00  0.00     0.257 C 
HETATM   11  O   UNK N   1      34.900  16.387   6.828  0.00  0.00    -0.267 OA
HETATM   12  H   UNK N   1      33.225  13.985   7.821  0.00  0.00     0.169 HD
BRANCH  10  13
HETATM   13  C   UNK N   1      35.648  14.767   8.328  0.00  0.00     0.056 A 
HETATM   14  C   UNK N   1      36.649  13.918   7.774  0.00  0.00     0.026 A 
HETATM   15  C   UNK N   1      37.553  13.413   8.719  0.00  0.00     0.052 A 
HETATM   16  S   UNK N   1      37.062  14.011  10.188  0.00  0.00    -0.094 SA
HETATM   17  C   UNK N   1      35.745  14.901   9.730  0.00  0.00     0.093 A 
BRANCH  17  18
HETATM   18  C   UNK N   1      34.842  15.587  10.688  0.00  0.00     0.184 C 
HETATM   19  O   UNK N   1      34.118  14.956  11.440  0.00  0.00    -0.646 OA
BRANCH  18  20
HETATM   20  O   UNK N   1      34.874  16.928  10.788  0.00  0.00    -0.772 OA
HETATM   21  H   UNK N   1      34.436  17.357  11.496  0.00  0.00     0.167 HD
ENDBRANCH  18  20
ENDBRANCH  17  18
ENDBRANCH  10  13
ENDBRANCH   4   9
BRANCH   1  22
HETATM   22  C   UNK N   1      28.832  17.391   5.012  0.00  0.00    -0.023 A 
HETATM   23  C   UNK N   1      28.581  18.742   5.253  0.00  0.00     0.049 A 
HETATM   24  C   UNK N   1      27.481  19.381   4.697  0.00  0.00     0.079 A 
HETATM   25  C   UNK N   1      26.605  18.654   3.872  0.00  0.00     0.037 A 
HETATM   26  C   UNK N   1      26.851  17.302   3.609  0.00  0.00     0.004 A 
HETATM   27  C   UNK N   1      27.964  16.671   4.175  0.00  0.00     0.012 A 
BRANCH  24  28
HETATM   28  O   UNK N   1      27.312  20.697   4.969  0.00  0.00    -0.255 OA
BRANCH  28  29
HETATM   29  C   UNK N   1      27.154  21.279   6.211  0.00  0.00     0.530 C 
HETATM   30  F   UNK N   1      26.994  20.294   7.166  0.00  0.00    -0.144 F 
HETATM   31  F   UNK N   1      28.222  22.090   6.555  0.00  0.00    -0.144 F 
HETATM   32  F   UNK N   1      26.013  22.057   6.174  0.00  0.00    -0.144 F 
ENDBRANCH  28  29
ENDBRANCH  24  28
ENDBRANCH   1  22
TORSDOF 7
ENDMDL
MODEL 9
REMARK VINA RESULT:      -7.2     11.985     15.889
REMARK  7 active torsions:
REMARK  status: ('A' for Active; 'I' for Inactive)
REMARK    1  A    between atoms: C_2  and  O_16 
REMARK    2  A    between atoms: C_4  and  C_5 
REMARK    3  A    between atoms: C_10  and  N_22 
REMARK    4  A    between atoms: C_12  and  C_13 
REMARK       I    between atoms: C_12  and  N_22 
REMARK    5  A    between atoms: C_15  and  C_28 
REMARK    6  A    between atoms: O_16  and  C_17 
REMARK    7  A    between atoms: C_28  and  O_29 
ROOT
HETATM    1  C   UNK N   1      35.174  10.590  16.720  0.00  0.00    -0.020 A 
HETATM    2  C   UNK N   1      34.151  10.317  15.801  0.00  0.00     0.057 A 
HETATM    3  C   UNK N   1      34.279  10.677  14.460  0.00  0.00     0.147 A 
HETATM    4  C   UNK N   1      35.444  11.315  14.011  0.00  0.00     0.113 A 
HETATM    5  C   UNK N   1      36.343  11.206  16.276  0.00  0.00     0.057 A 
HETATM    6  F   UNK N   1      33.269  10.406  13.599  0.00  0.00    -0.204 F 
HETATM    7  C   UNK N   1      36.495  11.556  14.938  0.00  0.00     0.147 A 
HETATM    8  F   UNK N   1      37.688  12.071  14.558  0.00  0.00    -0.204 F 
ENDROOT
BRANCH   4   9
HETATM    9  N   UNK N   1      35.552  11.645  12.626  0.00  0.00    -0.318 N 
HETATM   10  C   UNK N   1      35.304  12.877  12.106  0.00  0.00     0.257 C 
HETATM   11  O   UNK N   1      34.742  13.724  12.774  0.00  0.00    -0.267 OA
HETATM   12  H   UNK N   1      35.824  10.931  12.004  0.00  0.00     0.169 HD
BRANCH  10  13
HETATM   13  C   UNK N   1      35.687  13.179  10.713  0.00  0.00     0.056 A 
HETATM   14  C   UNK N   1      36.857  13.930  10.400  0.00  0.00     0.026 A 
HETATM   15  C   UNK N   1      37.068  14.106   9.026  0.00  0.00     0.052 A 
HETATM   16  S   UNK N   1      35.796  13.357   8.266  0.00  0.00    -0.094 SA
HETATM   17  C   UNK N   1      34.951  12.793   9.572  0.00  0.00     0.093 A 
BRANCH  17  18
HETATM   18  C   UNK N   1      33.635  12.115   9.470  0.00  0.00     0.184 C 
HETATM   19  O   UNK N   1      32.805  12.462   8.646  0.00  0.00    -0.646 OA
BRANCH  18  20
HETATM   20  O   UNK N   1      33.375  11.047  10.246  0.00  0.00    -0.772 OA
HETATM   21  H   UNK N   1      32.832  11.137  11.004  0.00  0.00     0.167 HD
ENDBRANCH  18  20
ENDBRANCH  17  18
ENDBRANCH  10  13
ENDBRANCH   4   9
BRANCH   1  22
HETATM   22  C   UNK N   1      35.014  10.222  18.139  0.00  0.00    -0.023 A 
HETATM   23  C   UNK N   1      34.003   9.331  18.501  0.00  0.00     0.049 A 
HETATM   24  C   UNK N   1      33.792   8.981  19.828  0.00  0.00     0.079 A 
HETATM   25  C   UNK N   1      34.614   9.533  20.826  0.00  0.00     0.037 A 
HETATM   26  C   UNK N   1      35.642  10.418  20.478  0.00  0.00     0.004 A 
HETATM   27  C   UNK N   1      35.844  10.760  19.136  0.00  0.00     0.012 A 
BRANCH  24  28
HETATM   28  O   UNK N   1      32.799   8.102  20.098  0.00  0.00    -0.255 OA
BRANCH  28  29
HETATM   29  C   UNK N   1      31.540   8.389  20.589  0.00  0.00     0.530 C 
HETATM   30  F   UNK N   1      30.596   8.132  19.615  0.00  0.00    -0.144 F 
HETATM   31  F   UNK N   1      31.240   7.665  21.731  0.00  0.00    -0.144 F 
HETATM   32  F   UNK N   1      31.504   9.733  20.905  0.00  0.00    -0.144 F 
ENDBRANCH  28  29
ENDBRANCH  24  28
ENDBRANCH   1  22
TORSDOF 7
ENDMDL
