REMARK  7 active torsions:
REMARK  status: ('A' for Active; 'I' for Inactive)
REMARK    1  A    between atoms: O_1  and  C_2 
REMARK    2  A    between atoms: C_2  and  C_4 
REMARK    3  A    between atoms: C_5  and  C_9 
REMARK       I    between atoms: C_9  and  N_11 
REMARK    4  A    between atoms: N_11  and  C_12 
REMARK    5  A    between atoms: C_17  and  C_22 
REMARK    6  A    between atoms: C_24  and  O_25 
REMARK    7  A    between atoms: O_25  and  C_26 
ROOT
HETATM    1  C   UNK N   1      -1.362   0.546  -0.013  0.00  0.00     0.119 A 
HETATM    2  C   UNK N   1       0.021   0.745  -0.002  0.00  0.00     0.185 A 
HETATM    3  F   UNK N   1       0.522   2.003  -0.006  0.00  0.00    -0.200 F 
HETATM    4  C   UNK N   1       0.911  -0.316   0.017  0.00  0.00     0.171 A 
HETATM    5  F   UNK N   1       2.234  -0.014   0.030  0.00  0.00    -0.202 F 
HETATM    6  C   UNK N   1       0.450  -1.652   0.028  0.00  0.00     0.058 A 
HETATM    7  C   UNK N   1      -0.950  -1.871   0.009  0.00  0.00     0.171 A 
HETATM    8  F   UNK N   1      -1.458  -3.130   0.011  0.00  0.00    -0.202 F 
HETATM    9  C   UNK N   1      -1.849  -0.789  -0.011  0.00  0.00     0.185 A 
HETATM   10  F   UNK N   1      -3.169  -1.082  -0.027  0.00  0.00    -0.200 F 
ENDROOT
BRANCH   1  11
HETATM   11  N   UNK N   1      -2.164   1.735  -0.020  0.00  0.00    -0.318 N 
HETATM   12  C   UNK N   1      -3.505   1.952  -0.010  0.00  0.00     0.257 C 
HETATM   13  O   UNK N   1      -4.289   1.024   0.001  0.00  0.00    -0.267 OA
HETATM   14  H   UNK N   1      -1.633   2.564  -0.035  0.00  0.00     0.169 HD
BRANCH  12  15
HETATM   15  C   UNK N   1      -4.049   3.348  -0.007  0.00  0.00     0.045 A 
HETATM   16  C   UNK N   1      -3.429   4.548  -0.005  0.00  0.00     0.034 A 
HETATM   17  C   UNK N   1      -4.441   5.660  -0.000  0.00  0.00     0.073 A 
HETATM   18  C   UNK N   1      -5.720   4.880   0.000  0.00  0.00    -0.021 A 
HETATM   19  C   UNK N   1      -5.486   3.576  -0.003  0.00  0.00     0.014 A 
BRANCH  16  20
HETATM   20  C   UNK N   1      -1.979   4.889  -0.004  0.00  0.00     0.173 C 
HETATM   21  O   UNK N   1      -1.117   4.034  -0.003  0.00  0.00    -0.646 OA
BRANCH  20  22
HETATM   22  O   UNK N   1      -1.607   6.183  -0.002  0.00  0.00    -0.773 OA
HETATM   23  H   UNK N   1      -0.697   6.409   0.000  0.00  0.00     0.167 HD
ENDBRANCH  20  22
ENDBRANCH  16  20
ENDBRANCH  12  15
ENDBRANCH   1  11
BRANCH   6  24
HETATM   24  C   UNK N   1       1.435  -2.789   0.061  0.00  0.00    -0.017 A 
HETATM   25  C   UNK N   1       2.810  -2.518   0.060  0.00  0.00     0.049 A 
HETATM   26  C   UNK N   1       3.770  -3.532   0.078  0.00  0.00     0.079 A 
HETATM   27  C   UNK N   1       3.345  -4.862   0.115  0.00  0.00     0.037 A 
HETATM   28  C   UNK N   1       1.978  -5.163   0.123  0.00  0.00     0.004 A 
HETATM   29  C   UNK N   1       1.029  -4.133   0.090  0.00  0.00     0.012 A 
BRANCH  26  30
HETATM   30  O   UNK N   1       5.099  -3.253   0.015  0.00  0.00    -0.255 OA
BRANCH  30  31
HETATM   31  C   UNK N   1       5.664  -1.988  -0.097  0.00  0.00     0.530 C 
HETATM   32  F   UNK N   1       5.801  -1.411   1.152  0.00  0.00    -0.144 F 
HETATM   33  F   UNK N   1       6.913  -2.114  -0.671  0.00  0.00    -0.144 F 
HETATM   34  F   UNK N   1       4.907  -1.159  -0.910  0.00  0.00    -0.144 F 
ENDBRANCH  30  31
ENDBRANCH  26  30
ENDBRANCH   6  24
TORSDOF 7
