MODEL 1
REMARK VINA RESULT:      -8.7      0.000      0.000
REMARK  7 active torsions:
REMARK  status: ('A' for Active; 'I' for Inactive)
REMARK    1  A    between atoms: O_1  and  C_2 
REMARK    2  A    between atoms: C_2  and  C_4 
REMARK    3  A    between atoms: C_5  and  C_9 
REMARK       I    between atoms: C_9  and  N_11 
REMARK    4  A    between atoms: N_11  and  C_12 
REMARK    5  A    between atoms: C_17  and  C_22 
REMARK    6  A    between atoms: C_24  and  O_25 
REMARK    7  A    between atoms: O_25  and  C_26 
ROOT
HETATM    1  C   UNK N   1      25.405  18.424   4.881  0.00  0.00     0.119 A 
HETATM    2  C   UNK N   1      25.902  17.168   5.238  0.00  0.00     0.185 A 
HETATM    3  F   UNK N   1      25.213  16.050   4.908  0.00  0.00    -0.200 F 
HETATM    4  C   UNK N   1      27.097  17.024   5.924  0.00  0.00     0.171 A 
HETATM    5  F   UNK N   1      27.492  15.760   6.219  0.00  0.00    -0.202 F 
HETATM    6  C   UNK N   1      27.865  18.152   6.291  0.00  0.00     0.058 A 
HETATM    7  C   UNK N   1      27.370  19.433   5.943  0.00  0.00     0.171 A 
HETATM    8  F   UNK N   1      28.057  20.557   6.273  0.00  0.00    -0.202 F 
HETATM    9  C   UNK N   1      26.156  19.573   5.247  0.00  0.00     0.185 A 
HETATM   10  F   UNK N   1      25.754  20.830   4.952  0.00  0.00    -0.200 F 
ENDROOT
BRANCH   1  11
HETATM   11  N   UNK N   1      24.163  18.423   4.162  0.00  0.00    -0.318 N 
HETATM   12  C   UNK N   1      22.866  18.308   4.548  0.00  0.00     0.257 C 
HETATM   13  O   UNK N   1      22.571  18.166   5.718  0.00  0.00    -0.267 OA
HETATM   14  H   UNK N   1      24.275  18.526   3.190  0.00  0.00     0.169 HD
BRANCH  12  15
HETATM   15  C   UNK N   1      21.764  18.360   3.534  0.00  0.00     0.045 A 
HETATM   16  C   UNK N   1      21.340  19.355   2.726  0.00  0.00     0.034 A 
HETATM   17  C   UNK N   1      20.183  18.891   1.886  0.00  0.00     0.073 A 
HETATM   18  C   UNK N   1      20.036  17.478   2.362  0.00  0.00    -0.021 A 
HETATM   19  C   UNK N   1      20.933  17.190   3.293  0.00  0.00     0.014 A 
BRANCH  16  20
HETATM   20  C   UNK N   1      21.832  20.753   2.571  0.00  0.00     0.173 C 
HETATM   21  O   UNK N   1      22.963  21.074   2.876  0.00  0.00    -0.646 OA
BRANCH  20  22
HETATM   22  O   UNK N   1      21.002  21.692   2.080  0.00  0.00    -0.773 OA
HETATM   23  H   UNK N   1      20.663  22.359   2.645  0.00  0.00     0.167 HD
ENDBRANCH  20  22
ENDBRANCH  16  20
ENDBRANCH  12  15
ENDBRANCH   1  11
BRANCH   6  24
HETATM   24  C   UNK N   1      29.166  17.971   7.025  0.00  0.00    -0.017 A 
HETATM   25  C   UNK N   1      30.257  17.382   6.372  0.00  0.00     0.049 A 
HETATM   26  C   UNK N   1      31.485  17.178   7.006  0.00  0.00     0.079 A 
HETATM   27  C   UNK N   1      31.635  17.590   8.332  0.00  0.00     0.037 A 
HETATM   28  C   UNK N   1      30.564  18.187   9.008  0.00  0.00     0.004 A 
HETATM   29  C   UNK N   1      29.336  18.370   8.361  0.00  0.00     0.012 A 
BRANCH  26  30
HETATM   30  O   UNK N   1      32.514  16.551   6.377  0.00  0.00    -0.255 OA
BRANCH  30  31
HETATM   31  C   UNK N   1      33.596  17.170   5.763  0.00  0.00     0.530 C 
HETATM   32  F   UNK N   1      34.319  17.901   6.687  0.00  0.00    -0.144 F 
HETATM   33  F   UNK N   1      34.413  16.196   5.226  0.00  0.00    -0.144 F 
HETATM   34  F   UNK N   1      33.192  18.000   4.729  0.00  0.00    -0.144 F 
ENDBRANCH  30  31
ENDBRANCH  26  30
ENDBRANCH   6  24
TORSDOF 7
ENDMDL
MODEL 2
REMARK VINA RESULT:      -8.6      0.386      1.941
REMARK  7 active torsions:
REMARK  status: ('A' for Active; 'I' for Inactive)
REMARK    1  A    between atoms: O_1  and  C_2 
REMARK    2  A    between atoms: C_2  and  C_4 
REMARK    3  A    between atoms: C_5  and  C_9 
REMARK       I    between atoms: C_9  and  N_11 
REMARK    4  A    between atoms: N_11  and  C_12 
REMARK    5  A    between atoms: C_17  and  C_22 
REMARK    6  A    between atoms: C_24  and  O_25 
REMARK    7  A    between atoms: O_25  and  C_26 
ROOT
HETATM    1  C   UNK N   1      25.417  17.877   4.917  0.00  0.00     0.119 A 
HETATM    2  C   UNK N   1      26.140  19.043   5.180  0.00  0.00     0.185 A 
HETATM    3  F   UNK N   1      25.660  20.241   4.769  0.00  0.00    -0.200 F 
HETATM    4  C   UNK N   1      27.346  19.017   5.860  0.00  0.00     0.171 A 
HETATM    5  F   UNK N   1      27.966  20.207   6.067  0.00  0.00    -0.202 F 
HETATM    6  C   UNK N   1      27.896  17.799   6.320  0.00  0.00     0.058 A 
HETATM    7  C   UNK N   1      27.179  16.606   6.054  0.00  0.00     0.171 A 
HETATM    8  F   UNK N   1      27.656  15.402   6.462  0.00  0.00    -0.202 F 
HETATM    9  C   UNK N   1      25.955  16.639   5.362  0.00  0.00     0.185 A 
HETATM   10  F   UNK N   1      25.332  15.457   5.149  0.00  0.00    -0.200 F 
ENDROOT
BRANCH   1  11
HETATM   11  N   UNK N   1      24.179  18.054   4.215  0.00  0.00    -0.318 N 
HETATM   12  C   UNK N   1      22.879  18.056   4.609  0.00  0.00     0.257 C 
HETATM   13  O   UNK N   1      22.577  17.876   5.772  0.00  0.00    -0.267 OA
HETATM   14  H   UNK N   1      24.296  18.204   3.249  0.00  0.00     0.169 HD
BRANCH  12  15
HETATM   15  C   UNK N   1      21.784  18.289   3.613  0.00  0.00     0.045 A 
HETATM   16  C   UNK N   1      21.517  19.340   2.808  0.00  0.00     0.034 A 
HETATM   17  C   UNK N   1      20.284  19.073   1.990  0.00  0.00     0.073 A 
HETATM   18  C   UNK N   1      19.913  17.704   2.474  0.00  0.00    -0.021 A 
HETATM   19  C   UNK N   1      20.766  17.273   3.391  0.00  0.00     0.014 A 
BRANCH  16  20
HETATM   20  C   UNK N   1      22.232  20.635   2.638  0.00  0.00     0.173 C 
HETATM   21  O   UNK N   1      23.439  20.694   2.524  0.00  0.00    -0.646 OA
BRANCH  20  22
HETATM   22  O   UNK N   1      21.523  21.780   2.612  0.00  0.00    -0.773 OA
HETATM   23  H   UNK N   1      21.590  22.389   3.322  0.00  0.00     0.167 HD
ENDBRANCH  20  22
ENDBRANCH  16  20
ENDBRANCH  12  15
ENDBRANCH   1  11
BRANCH   6  24
HETATM   24  C   UNK N   1      29.202  17.796   7.067  0.00  0.00    -0.017 A 
HETATM   25  C   UNK N   1      30.338  17.223   6.480  0.00  0.00     0.049 A 
HETATM   26  C   UNK N   1      31.573  17.181   7.130  0.00  0.00     0.079 A 
HETATM   27  C   UNK N   1      31.683  17.744   8.403  0.00  0.00     0.037 A 
HETATM   28  C   UNK N   1      30.567  18.329   9.013  0.00  0.00     0.004 A 
HETATM   29  C   UNK N   1      29.333  18.349   8.351  0.00  0.00     0.012 A 
BRANCH  26  30
HETATM   30  O   UNK N   1      32.649  16.567   6.571  0.00  0.00    -0.255 OA
BRANCH  30  31
HETATM   31  C   UNK N   1      33.722  17.200   5.954  0.00  0.00     0.530 C 
HETATM   32  F   UNK N   1      34.434  17.946   6.875  0.00  0.00    -0.144 F 
HETATM   33  F   UNK N   1      34.553  16.236   5.420  0.00  0.00    -0.144 F 
HETATM   34  F   UNK N   1      33.305  18.020   4.917  0.00  0.00    -0.144 F 
ENDBRANCH  30  31
ENDBRANCH  26  30
ENDBRANCH   6  24
TORSDOF 7
ENDMDL
MODEL 3
REMARK VINA RESULT:      -8.2      8.927     14.544
REMARK  7 active torsions:
REMARK  status: ('A' for Active; 'I' for Inactive)
REMARK    1  A    between atoms: O_1  and  C_2 
REMARK    2  A    between atoms: C_2  and  C_4 
REMARK    3  A    between atoms: C_5  and  C_9 
REMARK       I    between atoms: C_9  and  N_11 
REMARK    4  A    between atoms: N_11  and  C_12 
REMARK    5  A    between atoms: C_17  and  C_22 
REMARK    6  A    between atoms: C_24  and  O_25 
REMARK    7  A    between atoms: O_25  and  C_26 
ROOT
HETATM    1  C   UNK N   1      35.804  12.888  13.562  0.00  0.00     0.119 A 
HETATM    2  C   UNK N   1      35.360  12.032  12.550  0.00  0.00     0.185 A 
HETATM    3  F   UNK N   1      34.988  10.766  12.852  0.00  0.00    -0.200 F 
HETATM    4  C   UNK N   1      35.282  12.442  11.229  0.00  0.00     0.171 A 
HETATM    5  F   UNK N   1      34.834  11.534  10.325  0.00  0.00    -0.202 F 
HETATM    6  C   UNK N   1      35.650  13.753  10.852  0.00  0.00     0.058 A 
HETATM    7  C   UNK N   1      36.111  14.631  11.864  0.00  0.00     0.171 A 
HETATM    8  F   UNK N   1      36.487  15.901  11.567  0.00  0.00    -0.202 F 
HETATM    9  C   UNK N   1      36.188  14.208  13.204  0.00  0.00     0.185 A 
HETATM   10  F   UNK N   1      36.636  15.106  14.111  0.00  0.00    -0.200 F 
ENDROOT
BRANCH   1  11
HETATM   11  N   UNK N   1      35.822  12.334  14.885  0.00  0.00    -0.318 N 
HETATM   12  C   UNK N   1      35.032  12.509  15.976  0.00  0.00     0.257 C 
HETATM   13  O   UNK N   1      34.086  13.271  15.948  0.00  0.00    -0.267 OA
HETATM   14  H   UNK N   1      36.558  11.698  15.032  0.00  0.00     0.169 HD
BRANCH  12  15
HETATM   15  C   UNK N   1      35.308  11.756  17.242  0.00  0.00     0.045 A 
HETATM   16  C   UNK N   1      35.345  12.160  18.530  0.00  0.00     0.034 A 
HETATM   17  C   UNK N   1      35.673  11.002  19.432  0.00  0.00     0.073 A 
HETATM   18  C   UNK N   1      35.811   9.894  18.433  0.00  0.00    -0.021 A 
HETATM   19  C   UNK N   1      35.603  10.332  17.200  0.00  0.00     0.014 A 
BRANCH  16  20
HETATM   20  C   UNK N   1      35.122  13.505  19.131  0.00  0.00     0.173 C 
HETATM   21  O   UNK N   1      34.642  13.644  20.237  0.00  0.00    -0.646 OA
BRANCH  20  22
HETATM   22  O   UNK N   1      35.460  14.603  18.429  0.00  0.00    -0.773 OA
HETATM   23  H   UNK N   1      35.345  15.454  18.806  0.00  0.00     0.167 HD
ENDBRANCH  20  22
ENDBRANCH  16  20
ENDBRANCH  12  15
ENDBRANCH   1  11
BRANCH   6  24
HETATM   24  C   UNK N   1      35.546  14.180   9.413  0.00  0.00    -0.017 A 
HETATM   25  C   UNK N   1      34.553  15.090   9.028  0.00  0.00     0.049 A 
HETATM   26  C   UNK N   1      34.401  15.514   7.706  0.00  0.00     0.079 A 
HETATM   27  C   UNK N   1      35.280  15.025   6.736  0.00  0.00     0.037 A 
HETATM   28  C   UNK N   1      36.286  14.119   7.092  0.00  0.00     0.004 A 
HETATM   29  C   UNK N   1      36.414  13.695   8.421  0.00  0.00     0.012 A 
BRANCH  26  30
HETATM   30  O   UNK N   1      33.393  16.350   7.339  0.00  0.00    -0.255 OA
BRANCH  30  31
HETATM   31  C   UNK N   1      33.494  17.726   7.170  0.00  0.00     0.530 C 
HETATM   32  F   UNK N   1      33.258  18.067   5.851  0.00  0.00    -0.144 F 
HETATM   33  F   UNK N   1      32.547  18.337   7.967  0.00  0.00    -0.144 F 
HETATM   34  F   UNK N   1      34.739  18.199   7.556  0.00  0.00    -0.144 F 
ENDBRANCH  30  31
ENDBRANCH  26  30
ENDBRANCH   6  24
TORSDOF 7
ENDMDL
MODEL 4
REMARK VINA RESULT:      -8.2      8.903     14.652
REMARK  7 active torsions:
REMARK  status: ('A' for Active; 'I' for Inactive)
REMARK    1  A    between atoms: O_1  and  C_2 
REMARK    2  A    between atoms: C_2  and  C_4 
REMARK    3  A    between atoms: C_5  and  C_9 
REMARK       I    between atoms: C_9  and  N_11 
REMARK    4  A    between atoms: N_11  and  C_12 
REMARK    5  A    between atoms: C_17  and  C_22 
REMARK    6  A    between atoms: C_24  and  O_25 
REMARK    7  A    between atoms: O_25  and  C_26 
ROOT
HETATM    1  C   UNK N   1      35.741  13.176  13.812  0.00  0.00     0.119 A 
HETATM    2  C   UNK N   1      35.202  12.277  12.887  0.00  0.00     0.185 A 
HETATM    3  F   UNK N   1      34.770  11.062  13.300  0.00  0.00    -0.200 F 
HETATM    4  C   UNK N   1      35.090  12.593  11.543  0.00  0.00     0.171 A 
HETATM    5  F   UNK N   1      34.549  11.651  10.730  0.00  0.00    -0.202 F 
HETATM    6  C   UNK N   1      35.518  13.847  11.052  0.00  0.00     0.058 A 
HETATM    7  C   UNK N   1      36.074  14.766  11.976  0.00  0.00     0.171 A 
HETATM    8  F   UNK N   1      36.511  15.985  11.568  0.00  0.00    -0.202 F 
HETATM    9  C   UNK N   1      36.186  14.440  13.340  0.00  0.00     0.185 A 
HETATM   10  F   UNK N   1      36.727  15.372  14.156  0.00  0.00    -0.200 F 
ENDROOT
BRANCH   1  11
HETATM   11  N   UNK N   1      35.785  12.721  15.172  0.00  0.00    -0.318 N 
HETATM   12  C   UNK N   1      34.916  12.815  16.212  0.00  0.00     0.257 C 
HETATM   13  O   UNK N   1      33.850  13.384  16.087  0.00  0.00    -0.267 OA
HETATM   14  H   UNK N   1      36.616  12.244  15.397  0.00  0.00     0.169 HD
BRANCH  12  15
HETATM   15  C   UNK N   1      35.253  12.210  17.540  0.00  0.00     0.045 A 
HETATM   16  C   UNK N   1      35.699  10.979  17.874  0.00  0.00     0.034 A 
HETATM   17  C   UNK N   1      35.882  10.875  19.363  0.00  0.00     0.073 A 
HETATM   18  C   UNK N   1      35.466  12.247  19.797  0.00  0.00    -0.021 A 
HETATM   19  C   UNK N   1      35.112  12.991  18.760  0.00  0.00     0.014 A 
BRANCH  16  20
HETATM   20  C   UNK N   1      36.006   9.797  17.022  0.00  0.00     0.173 C 
HETATM   21  O   UNK N   1      35.452   8.728  17.179  0.00  0.00    -0.646 OA
BRANCH  20  22
HETATM   22  O   UNK N   1      36.929   9.909  16.047  0.00  0.00    -0.773 OA
HETATM   23  H   UNK N   1      37.283  10.751  15.833  0.00  0.00     0.167 HD
ENDBRANCH  20  22
ENDBRANCH  16  20
ENDBRANCH  12  15
ENDBRANCH   1  11
BRANCH   6  24
HETATM   24  C   UNK N   1      35.375  14.172   9.590  0.00  0.00    -0.017 A 
HETATM   25  C   UNK N   1      34.425  15.117   9.178  0.00  0.00     0.049 A 
HETATM   26  C   UNK N   1      34.240  15.451   7.835  0.00  0.00     0.079 A 
HETATM   27  C   UNK N   1      35.040  14.834   6.870  0.00  0.00     0.037 A 
HETATM   28  C   UNK N   1      36.001  13.891   7.253  0.00  0.00     0.004 A 
HETATM   29  C   UNK N   1      36.163  13.558   8.604  0.00  0.00     0.012 A 
BRANCH  26  30
HETATM   30  O   UNK N   1      33.272  16.324   7.447  0.00  0.00    -0.255 OA
BRANCH  30  31
HETATM   31  C   UNK N   1      33.444  17.684   7.217  0.00  0.00     0.530 C 
HETATM   32  F   UNK N   1      32.561  18.416   7.989  0.00  0.00    -0.144 F 
HETATM   33  F   UNK N   1      34.734  18.029   7.564  0.00  0.00    -0.144 F 
HETATM   34  F   UNK N   1      33.266  18.004   5.880  0.00  0.00    -0.144 F 
ENDBRANCH  30  31
ENDBRANCH  26  30
ENDBRANCH   6  24
TORSDOF 7
ENDMDL
MODEL 5
REMARK VINA RESULT:      -8.1      9.059     14.751
REMARK  7 active torsions:
REMARK  status: ('A' for Active; 'I' for Inactive)
REMARK    1  A    between atoms: O_1  and  C_2 
REMARK    2  A    between atoms: C_2  and  C_4 
REMARK    3  A    between atoms: C_5  and  C_9 
REMARK       I    between atoms: C_9  and  N_11 
REMARK    4  A    between atoms: N_11  and  C_12 
REMARK    5  A    between atoms: C_17  and  C_22 
REMARK    6  A    between atoms: C_24  and  O_25 
REMARK    7  A    between atoms: O_25  and  C_26 
ROOT
HETATM    1  C   UNK N   1      35.508  12.479  13.720  0.00  0.00     0.119 A 
HETATM    2  C   UNK N   1      35.997  13.752  13.411  0.00  0.00     0.185 A 
HETATM    3  F   UNK N   1      36.548  14.517  14.383  0.00  0.00    -0.200 F 
HETATM    4  C   UNK N   1      35.938  14.264  12.126  0.00  0.00     0.171 A 
HETATM    5  F   UNK N   1      36.443  15.508  11.932  0.00  0.00    -0.202 F 
HETATM    6  C   UNK N   1      35.379  13.512  11.068  0.00  0.00     0.058 A 
HETATM    7  C   UNK N   1      34.872  12.222  11.366  0.00  0.00     0.171 A 
HETATM    8  F   UNK N   1      34.316  11.451  10.397  0.00  0.00    -0.202 F 
HETATM    9  C   UNK N   1      34.934  11.708  12.674  0.00  0.00     0.185 A 
HETATM   10  F   UNK N   1      34.430  10.469  12.876  0.00  0.00    -0.200 F 
ENDROOT
BRANCH   1  11
HETATM   11  N   UNK N   1      35.645  12.073  15.089  0.00  0.00    -0.318 N 
HETATM   12  C   UNK N   1      34.944  12.357  16.217  0.00  0.00     0.257 C 
HETATM   13  O   UNK N   1      33.986  13.103  16.188  0.00  0.00    -0.267 OA
HETATM   14  H   UNK N   1      36.402  11.463  15.241  0.00  0.00     0.169 HD
BRANCH  12  15
HETATM   15  C   UNK N   1      35.337  11.749  17.529  0.00  0.00     0.045 A 
HETATM   16  C   UNK N   1      35.397  12.272  18.773  0.00  0.00     0.034 A 
HETATM   17  C   UNK N   1      35.860  11.232  19.756  0.00  0.00     0.073 A 
HETATM   18  C   UNK N   1      36.045  10.051  18.853  0.00  0.00    -0.021 A 
HETATM   19  C   UNK N   1      35.748  10.355  17.599  0.00  0.00     0.014 A 
BRANCH  16  20
HETATM   20  C   UNK N   1      35.090  13.645  19.263  0.00  0.00     0.173 C 
HETATM   21  O   UNK N   1      35.371  14.635  18.619  0.00  0.00    -0.646 OA
BRANCH  20  22
HETATM   22  O   UNK N   1      34.486  13.798  20.456  0.00  0.00    -0.773 OA
HETATM   23  H   UNK N   1      34.820  13.354  21.211  0.00  0.00     0.167 HD
ENDBRANCH  20  22
ENDBRANCH  16  20
ENDBRANCH  12  15
ENDBRANCH   1  11
BRANCH   6  24
HETATM   24  C   UNK N   1      35.338  14.083   9.677  0.00  0.00    -0.017 A 
HETATM   25  C   UNK N   1      34.412  15.089   9.365  0.00  0.00     0.049 A 
HETATM   26  C   UNK N   1      34.320  15.648   8.089  0.00  0.00     0.079 A 
HETATM   27  C   UNK N   1      35.191  15.202   7.093  0.00  0.00     0.037 A 
HETATM   28  C   UNK N   1      36.130  14.203   7.376  0.00  0.00     0.004 A 
HETATM   29  C   UNK N   1      36.199  13.643   8.658  0.00  0.00     0.012 A 
BRANCH  26  30
HETATM   30  O   UNK N   1      33.375  16.579   7.789  0.00  0.00    -0.255 OA
BRANCH  30  31
HETATM   31  C   UNK N   1      33.612  17.915   7.487  0.00  0.00     0.530 C 
HETATM   32  F   UNK N   1      33.518  18.124   6.124  0.00  0.00    -0.144 F 
HETATM   33  F   UNK N   1      32.659  18.684   8.124  0.00  0.00    -0.144 F 
HETATM   34  F   UNK N   1      34.857  18.328   7.935  0.00  0.00    -0.144 F 
ENDBRANCH  30  31
ENDBRANCH  26  30
ENDBRANCH   6  24
TORSDOF 7
ENDMDL
MODEL 6
REMARK VINA RESULT:      -8.1      2.756      9.944
REMARK  7 active torsions:
REMARK  status: ('A' for Active; 'I' for Inactive)
REMARK    1  A    between atoms: O_1  and  C_2 
REMARK    2  A    between atoms: C_2  and  C_4 
REMARK    3  A    between atoms: C_5  and  C_9 
REMARK       I    between atoms: C_9  and  N_11 
REMARK    4  A    between atoms: N_11  and  C_12 
REMARK    5  A    between atoms: C_17  and  C_22 
REMARK    6  A    between atoms: C_24  and  O_25 
REMARK    7  A    between atoms: O_25  and  C_26 
ROOT
HETATM    1  C   UNK N   1      29.272  17.281   6.569  0.00  0.00     0.119 A 
HETATM    2  C   UNK N   1      28.650  18.458   6.993  0.00  0.00     0.185 A 
HETATM    3  F   UNK N   1      29.095  19.094   8.103  0.00  0.00    -0.200 F 
HETATM    4  C   UNK N   1      27.581  19.008   6.305  0.00  0.00     0.171 A 
HETATM    5  F   UNK N   1      27.052  20.156   6.799  0.00  0.00    -0.202 F 
HETATM    6  C   UNK N   1      27.075  18.394   5.136  0.00  0.00     0.058 A 
HETATM    7  C   UNK N   1      27.690  17.195   4.697  0.00  0.00     0.171 A 
HETATM    8  F   UNK N   1      27.247  16.552   3.587  0.00  0.00    -0.202 F 
HETATM    9  C   UNK N   1      28.775  16.641   5.401  0.00  0.00     0.185 A 
HETATM   10  F   UNK N   1      29.306  15.496   4.917  0.00  0.00    -0.200 F 
ENDROOT
BRANCH   1  11
HETATM   11  N   UNK N   1      30.374  16.833   7.370  0.00  0.00    -0.318 N 
HETATM   12  C   UNK N   1      31.711  16.748   7.147  0.00  0.00     0.257 C 
HETATM   13  O   UNK N   1      32.191  17.087   6.083  0.00  0.00    -0.267 OA
HETATM   14  H   UNK N   1      30.105  16.524   8.265  0.00  0.00     0.169 HD
BRANCH  12  15
HETATM   15  C   UNK N   1      32.629  16.237   8.215  0.00  0.00     0.045 A 
HETATM   16  C   UNK N   1      33.809  16.704   8.677  0.00  0.00     0.034 A 
HETATM   17  C   UNK N   1      34.333  15.814   9.770  0.00  0.00     0.073 A 
HETATM   18  C   UNK N   1      33.251  14.780   9.837  0.00  0.00    -0.021 A 
HETATM   19  C   UNK N   1      32.295  15.029   8.955  0.00  0.00     0.014 A 
BRANCH  16  20
HETATM   20  C   UNK N   1      34.604  17.897   8.272  0.00  0.00     0.173 C 
HETATM   21  O   UNK N   1      35.290  18.512   9.063  0.00  0.00    -0.646 OA
BRANCH  20  22
HETATM   22  O   UNK N   1      34.563  18.312   6.992  0.00  0.00    -0.773 OA
HETATM   23  H   UNK N   1      34.833  17.736   6.303  0.00  0.00     0.167 HD
ENDBRANCH  20  22
ENDBRANCH  16  20
ENDBRANCH  12  15
ENDBRANCH   1  11
BRANCH   6  24
HETATM   24  C   UNK N   1      25.921  19.016   4.398  0.00  0.00    -0.017 A 
HETATM   25  C   UNK N   1      24.612  18.603   4.681  0.00  0.00     0.049 A 
HETATM   26  C   UNK N   1      23.503  19.135   4.020  0.00  0.00     0.079 A 
HETATM   27  C   UNK N   1      23.704  20.126   3.055  0.00  0.00     0.037 A 
HETATM   28  C   UNK N   1      25.000  20.562   2.756  0.00  0.00     0.004 A 
HETATM   29  C   UNK N   1      26.102  20.007   3.419  0.00  0.00     0.012 A 
BRANCH  26  30
HETATM   30  O   UNK N   1      22.245  18.680   4.262  0.00  0.00    -0.255 OA
BRANCH  30  31
HETATM   31  C   UNK N   1      21.532  17.788   3.470  0.00  0.00     0.530 C 
HETATM   32  F   UNK N   1      21.033  18.432   2.353  0.00  0.00    -0.144 F 
HETATM   33  F   UNK N   1      22.385  16.783   3.063  0.00  0.00    -0.144 F 
HETATM   34  F   UNK N   1      20.490  17.201   4.170  0.00  0.00    -0.144 F 
ENDBRANCH  30  31
ENDBRANCH  26  30
ENDBRANCH   6  24
TORSDOF 7
ENDMDL
MODEL 7
REMARK VINA RESULT:      -8.1      7.007     10.811
REMARK  7 active torsions:
REMARK  status: ('A' for Active; 'I' for Inactive)
REMARK    1  A    between atoms: O_1  and  C_2 
REMARK    2  A    between atoms: C_2  and  C_4 
REMARK    3  A    between atoms: C_5  and  C_9 
REMARK       I    between atoms: C_9  and  N_11 
REMARK    4  A    between atoms: N_11  and  C_12 
REMARK    5  A    between atoms: C_17  and  C_22 
REMARK    6  A    between atoms: C_24  and  O_25 
REMARK    7  A    between atoms: O_25  and  C_26 
ROOT
HETATM    1  C   UNK N   1      34.062  15.339   9.074  0.00  0.00     0.119 A 
HETATM    2  C   UNK N   1      33.880  13.982   9.353  0.00  0.00     0.185 A 
HETATM    3  F   UNK N   1      33.077  13.231   8.561  0.00  0.00    -0.200 F 
HETATM    4  C   UNK N   1      34.504  13.367  10.426  0.00  0.00     0.171 A 
HETATM    5  F   UNK N   1      34.263  12.044  10.607  0.00  0.00    -0.202 F 
HETATM    6  C   UNK N   1      35.358  14.095  11.285  0.00  0.00     0.058 A 
HETATM    7  C   UNK N   1      35.547  15.474  11.020  0.00  0.00     0.171 A 
HETATM    8  F   UNK N   1      36.349  16.231  11.812  0.00  0.00    -0.202 F 
HETATM    9  C   UNK N   1      34.910  16.093   9.929  0.00  0.00     0.185 A 
HETATM   10  F   UNK N   1      35.143  17.412   9.744  0.00  0.00    -0.200 F 
ENDROOT
BRANCH   1  11
HETATM   11  N   UNK N   1      33.364  15.839   7.925  0.00  0.00    -0.318 N 
HETATM   12  C   UNK N   1      33.777  16.378   6.749  0.00  0.00     0.257 C 
HETATM   13  O   UNK N   1      34.958  16.523   6.507  0.00  0.00    -0.267 OA
HETATM   14  H   UNK N   1      32.385  15.779   8.007  0.00  0.00     0.169 HD
BRANCH  12  15
HETATM   15  C   UNK N   1      32.778  16.803   5.716  0.00  0.00     0.045 A 
HETATM   16  C   UNK N   1      31.474  17.138   5.819  0.00  0.00     0.034 A 
HETATM   17  C   UNK N   1      30.915  17.491   4.469  0.00  0.00     0.073 A 
HETATM   18  C   UNK N   1      32.122  17.297   3.603  0.00  0.00    -0.021 A 
HETATM   19  C   UNK N   1      33.167  16.907   4.318  0.00  0.00     0.014 A 
BRANCH  16  20
HETATM   20  C   UNK N   1      30.580  17.197   7.010  0.00  0.00     0.173 C 
HETATM   21  O   UNK N   1      30.940  17.688   8.060  0.00  0.00    -0.646 OA
BRANCH  20  22
HETATM   22  O   UNK N   1      29.336  16.688   6.925  0.00  0.00    -0.773 OA
HETATM   23  H   UNK N   1      29.069  16.229   6.153  0.00  0.00     0.167 HD
ENDBRANCH  20  22
ENDBRANCH  16  20
ENDBRANCH  12  15
ENDBRANCH   1  11
BRANCH   6  24
HETATM   24  C   UNK N   1      36.036  13.403  12.437  0.00  0.00    -0.017 A 
HETATM   25  C   UNK N   1      35.771  13.818  13.749  0.00  0.00     0.049 A 
HETATM   26  C   UNK N   1      36.379  13.222  14.857  0.00  0.00     0.079 A 
HETATM   27  C   UNK N   1      37.268  12.165  14.650  0.00  0.00     0.037 A 
HETATM   28  C   UNK N   1      37.547  11.725  13.350  0.00  0.00     0.004 A 
HETATM   29  C   UNK N   1      36.939  12.344  12.251  0.00  0.00     0.012 A 
BRANCH  26  30
HETATM   30  O   UNK N   1      36.158  13.677  16.118  0.00  0.00    -0.255 OA
BRANCH  30  31
HETATM   31  C   UNK N   1      35.132  13.273  16.965  0.00  0.00     0.530 C 
HETATM   32  F   UNK N   1      33.922  13.293  16.296  0.00  0.00    -0.144 F 
HETATM   33  F   UNK N   1      35.390  11.984  17.384  0.00  0.00    -0.144 F 
HETATM   34  F   UNK N   1      35.051  14.076  18.091  0.00  0.00    -0.144 F 
ENDBRANCH  30  31
ENDBRANCH  26  30
ENDBRANCH   6  24
TORSDOF 7
ENDMDL
MODEL 8
REMARK VINA RESULT:      -8.1      2.880      9.512
REMARK  7 active torsions:
REMARK  status: ('A' for Active; 'I' for Inactive)
REMARK    1  A    between atoms: O_1  and  C_2 
REMARK    2  A    between atoms: C_2  and  C_4 
REMARK    3  A    between atoms: C_5  and  C_9 
REMARK       I    between atoms: C_9  and  N_11 
REMARK    4  A    between atoms: N_11  and  C_12 
REMARK    5  A    between atoms: C_17  and  C_22 
REMARK    6  A    between atoms: C_24  and  O_25 
REMARK    7  A    between atoms: O_25  and  C_26 
ROOT
HETATM    1  C   UNK N   1      28.282  18.652   4.658  0.00  0.00     0.119 A 
HETATM    2  C   UNK N   1      27.547  17.825   3.805  0.00  0.00     0.185 A 
HETATM    3  F   UNK N   1      28.134  16.742   3.244  0.00  0.00    -0.200 F 
HETATM    4  C   UNK N   1      26.217  18.077   3.512  0.00  0.00     0.171 A 
HETATM    5  F   UNK N   1      25.593  17.211   2.674  0.00  0.00    -0.202 F 
HETATM    6  C   UNK N   1      25.547  19.189   4.071  0.00  0.00     0.058 A 
HETATM    7  C   UNK N   1      26.281  20.042   4.932  0.00  0.00     0.171 A 
HETATM    8  F   UNK N   1      25.698  21.131   5.496  0.00  0.00    -0.202 F 
HETATM    9  C   UNK N   1      27.632  19.781   5.226  0.00  0.00     0.185 A 
HETATM   10  F   UNK N   1      28.261  20.642   6.057  0.00  0.00    -0.200 F 
ENDROOT
BRANCH   1  11
HETATM   11  N   UNK N   1      29.645  18.265   4.882  0.00  0.00    -0.318 N 
HETATM   12  C   UNK N   1      30.227  17.330   5.677  0.00  0.00     0.257 C 
HETATM   13  O   UNK N   1      29.558  16.617   6.398  0.00  0.00    -0.267 OA
HETATM   14  H   UNK N   1      30.291  18.783   4.350  0.00  0.00     0.169 HD
BRANCH  12  15
HETATM   15  C   UNK N   1      31.715  17.152   5.678  0.00  0.00     0.045 A 
HETATM   16  C   UNK N   1      32.578  16.846   4.685  0.00  0.00     0.034 A 
HETATM   17  C   UNK N   1      33.984  16.784   5.215  0.00  0.00     0.073 A 
HETATM   18  C   UNK N   1      33.757  17.107   6.660  0.00  0.00    -0.021 A 
HETATM   19  C   UNK N   1      32.472  17.312   6.910  0.00  0.00     0.014 A 
BRANCH  16  20
HETATM   20  C   UNK N   1      32.336  16.577   3.240  0.00  0.00     0.173 C 
HETATM   21  O   UNK N   1      33.007  15.783   2.613  0.00  0.00    -0.646 OA
BRANCH  20  22
HETATM   22  O   UNK N   1      31.347  17.233   2.605  0.00  0.00    -0.773 OA
HETATM   23  H   UNK N   1      31.117  18.103   2.868  0.00  0.00     0.167 HD
ENDBRANCH  20  22
ENDBRANCH  16  20
ENDBRANCH  12  15
ENDBRANCH   1  11
BRANCH   6  24
HETATM   24  C   UNK N   1      24.098  19.436   3.748  0.00  0.00    -0.017 A 
HETATM   25  C   UNK N   1      23.111  18.612   4.305  0.00  0.00     0.049 A 
HETATM   26  C   UNK N   1      21.752  18.786   4.033  0.00  0.00     0.079 A 
HETATM   27  C   UNK N   1      21.363  19.829   3.188  0.00  0.00     0.037 A 
HETATM   28  C   UNK N   1      22.326  20.672   2.622  0.00  0.00     0.004 A 
HETATM   29  C   UNK N   1      23.686  20.473   2.895  0.00  0.00     0.012 A 
BRANCH  26  30
HETATM   30  O   UNK N   1      20.813  17.940   4.533  0.00  0.00    -0.255 OA
BRANCH  30  31
HETATM   31  C   UNK N   1      19.937  17.160   3.788  0.00  0.00     0.530 C 
HETATM   32  F   UNK N   1      20.627  16.451   2.822  0.00  0.00    -0.144 F 
HETATM   33  F   UNK N   1      19.312  16.269   4.637  0.00  0.00    -0.144 F 
HETATM   34  F   UNK N   1      18.953  17.928   3.185  0.00  0.00    -0.144 F 
ENDBRANCH  30  31
ENDBRANCH  26  30
ENDBRANCH   6  24
TORSDOF 7
ENDMDL
MODEL 9
REMARK VINA RESULT:      -7.9      5.254      7.983
REMARK  7 active torsions:
REMARK  status: ('A' for Active; 'I' for Inactive)
REMARK    1  A    between atoms: O_1  and  C_2 
REMARK    2  A    between atoms: C_2  and  C_4 
REMARK    3  A    between atoms: C_5  and  C_9 
REMARK       I    between atoms: C_9  and  N_11 
REMARK    4  A    between atoms: N_11  and  C_12 
REMARK    5  A    between atoms: C_17  and  C_22 
REMARK    6  A    between atoms: C_24  and  O_25 
REMARK    7  A    between atoms: O_25  and  C_26 
ROOT
HETATM    1  C   UNK N   1      32.124  16.600   7.585  0.00  0.00     0.119 A 
HETATM    2  C   UNK N   1      32.230  15.208   7.655  0.00  0.00     0.185 A 
HETATM    3  F   UNK N   1      31.352  14.430   6.978  0.00  0.00    -0.200 F 
HETATM    4  C   UNK N   1      33.218  14.588   8.401  0.00  0.00     0.171 A 
HETATM    5  F   UNK N   1      33.235  13.231   8.399  0.00  0.00    -0.202 F 
HETATM    6  C   UNK N   1      34.167  15.346   9.124  0.00  0.00     0.058 A 
HETATM    7  C   UNK N   1      34.069  16.758   9.070  0.00  0.00     0.171 A 
HETATM    8  F   UNK N   1      34.945  17.544   9.747  0.00  0.00    -0.202 F 
HETATM    9  C   UNK N   1      33.062  17.383   8.311  0.00  0.00     0.185 A 
HETATM   10  F   UNK N   1      33.037  18.735   8.309  0.00  0.00    -0.200 F 
ENDROOT
BRANCH   1  11
HETATM   11  N   UNK N   1      31.061  17.105   6.765  0.00  0.00    -0.318 N 
HETATM   12  C   UNK N   1      29.751  17.373   7.003  0.00  0.00     0.257 C 
HETATM   13  O   UNK N   1      29.261  17.178   8.098  0.00  0.00    -0.267 OA
HETATM   14  H   UNK N   1      31.339  17.298   5.840  0.00  0.00     0.169 HD
BRANCH  12  15
HETATM   15  C   UNK N   1      28.877  17.921   5.917  0.00  0.00     0.045 A 
HETATM   16  C   UNK N   1      28.010  18.957   5.905  0.00  0.00     0.034 A 
HETATM   17  C   UNK N   1      27.375  19.093   4.549  0.00  0.00     0.073 A 
HETATM   18  C   UNK N   1      28.032  17.965   3.814  0.00  0.00    -0.021 A 
HETATM   19  C   UNK N   1      28.877  17.311   4.596  0.00  0.00     0.014 A 
BRANCH  16  20
HETATM   20  C   UNK N   1      27.626  19.911   6.983  0.00  0.00     0.173 C 
HETATM   21  O   UNK N   1      27.479  21.097   6.770  0.00  0.00    -0.646 OA
BRANCH  20  22
HETATM   22  O   UNK N   1      27.437  19.449   8.234  0.00  0.00    -0.773 OA
HETATM   23  H   UNK N   1      26.747  18.839   8.409  0.00  0.00     0.167 HD
ENDBRANCH  20  22
ENDBRANCH  16  20
ENDBRANCH  12  15
ENDBRANCH   1  11
BRANCH   6  24
HETATM   24  C   UNK N   1      35.240  14.650   9.918  0.00  0.00    -0.017 A 
HETATM   25  C   UNK N   1      34.949  14.158  11.197  0.00  0.00     0.049 A 
HETATM   26  C   UNK N   1      35.907  13.515  11.984  0.00  0.00     0.079 A 
HETATM   27  C   UNK N   1      37.194  13.342  11.472  0.00  0.00     0.037 A 
HETATM   28  C   UNK N   1      37.512  13.817  10.194  0.00  0.00     0.004 A 
HETATM   29  C   UNK N   1      36.542  14.473   9.425  0.00  0.00     0.012 A 
BRANCH  26  30
HETATM   30  O   UNK N   1      35.624  13.098  13.247  0.00  0.00    -0.255 OA
BRANCH  30  31
HETATM   31  C   UNK N   1      36.066  13.694  14.423  0.00  0.00     0.530 C 
HETATM   32  F   UNK N   1      35.079  13.642  15.389  0.00  0.00    -0.144 F 
HETATM   33  F   UNK N   1      37.173  13.004  14.876  0.00  0.00    -0.144 F 
HETATM   34  F   UNK N   1      36.445  15.012  14.218  0.00  0.00    -0.144 F 
ENDBRANCH  30  31
ENDBRANCH  26  30
ENDBRANCH   6  24
TORSDOF 7
ENDMDL
