MODEL 1
REMARK VINA RESULT:      -7.0      0.000      0.000
REMARK  8 active torsions:
REMARK  status: ('A' for Active; 'I' for Inactive)
REMARK    1  A    between atoms: C_2  and  O_21 
REMARK    2  A    between atoms: C_6  and  C_18 
REMARK    3  A    between atoms: C_8  and  C_11 
REMARK       I    between atoms: C_8  and  N_20 
REMARK    4  A    between atoms: C_18  and  C_19 
REMARK       I    between atoms: C_19  and  N_26 
REMARK    5  A    between atoms: O_24  and  C_28 
REMARK    6  A    between atoms: C_27  and  N_26 
REMARK    7  A    between atoms: C_27  and  C_28 
REMARK    8  A    between atoms: C_27  and  C_29 
ROOT
HETATM    1  C   UNK N   1      19.219  16.301   6.777  0.00  0.00     0.051 A 
HETATM    2  C   UNK N   1      19.214  16.629   8.144  0.00  0.00     0.069 A 
HETATM    3  C   UNK N   1      20.141  16.008   9.012  0.00  0.00     0.039 A 
HETATM    4  C   UNK N   1      21.048  15.061   8.521  0.00  0.00     0.034 A 
HETATM    5  C   UNK N   1      20.394  14.906   5.048  0.00  0.00    -0.014 A 
HETATM    6  C   UNK N   1      21.445  14.004   5.160  0.00  0.00     0.024 A 
HETATM    7  C   UNK N   1      22.838  13.023   6.933  0.00  0.00     0.263 C 
HETATM    8  C   UNK N   1      21.020  14.727   7.166  0.00  0.00     0.053 A 
HETATM    9  C   UNK N   1      20.139  15.358   6.322  0.00  0.00     0.003 A 
HETATM   10  C   UNK N   1      22.039  13.268   4.000  0.00  0.00     0.069 C 
HETATM   11  N   UNK N   1      21.819  13.865   6.472  0.00  0.00    -0.281 N 
HETATM   12  O   UNK N   1      23.586  12.495   6.123  0.00  0.00    -0.267 OA
ENDROOT
BRANCH   5  13
HETATM   13  C   UNK N   1      19.691  15.309   3.780  0.00  0.00     0.144 C 
BRANCH  13  14
HETATM   14  C   UNK N   1      20.395  16.431   3.083  0.00  0.00     0.222 C 
HETATM   15  O   UNK N   1      20.957  16.232   2.015  0.00  0.00    -0.273 OA
HETATM   16  N   UNK N   1      20.409  17.662   3.656  0.00  0.00    -0.354 N 
HETATM   17  H   UNK N   1      19.886  17.801   4.480  0.00  0.00     0.162 HD
BRANCH  16  18
HETATM   18  C   UNK N   1      21.154  18.781   3.118  0.00  0.00     0.107 C 
BRANCH  18  19
HETATM   19  C   UNK N   1      20.306  20.044   3.223  0.00  0.00     0.189 C 
BRANCH  19  20
HETATM   20  O   UNK N   1      21.112  21.181   3.154  0.00  0.00    -0.399 OA
HETATM   21  H   UNK N   1      20.829  22.103   3.041  0.00  0.00     0.209 HD
ENDBRANCH  19  20
ENDBRANCH  18  19
BRANCH  18  22
HETATM   22  C   UNK N   1      22.481  18.952   3.867  0.00  0.00     0.023 C 
HETATM   23  C   UNK N   1      22.483  18.229   5.209  0.00  0.00     0.007 C 
ENDBRANCH  18  22
ENDBRANCH  16  18
ENDBRANCH  13  14
ENDBRANCH   5  13
BRANCH   7  24
HETATM   24  C   UNK N   1      23.061  12.691   8.376  0.00  0.00     0.033 A 
HETATM   25  C   UNK N   1      24.242  13.058   9.038  0.00  0.00     0.018 A 
HETATM   26  C   UNK N   1      24.425  12.786  10.392  0.00  0.00     0.025 A 
HETATM   27  C   UNK N   1      23.412  12.163  11.118  0.00  0.00     0.034 A 
HETATM   28  C   UNK N   1      22.205  11.838  10.491  0.00  0.00     0.025 A 
HETATM   29 Cl   UNK N   1      23.657  11.801  12.811  0.00  0.00    -0.084 Cl
HETATM   30  C   UNK N   1      22.024  12.116   9.129  0.00  0.00     0.018 A 
ENDBRANCH   7  24
BRANCH   2  31
HETATM   31  O   UNK N   1      18.328  17.544   8.599  0.00  0.00    -0.356 OA
HETATM   32  C   UNK N   1      17.055  17.218   9.009  0.00  0.00     0.210 C 
ENDBRANCH   2  31
TORSDOF 8
ENDMDL
MODEL 2
REMARK VINA RESULT:      -7.0      9.221     12.702
REMARK  8 active torsions:
REMARK  status: ('A' for Active; 'I' for Inactive)
REMARK    1  A    between atoms: C_2  and  O_21 
REMARK    2  A    between atoms: C_6  and  C_18 
REMARK    3  A    between atoms: C_8  and  C_11 
REMARK       I    between atoms: C_8  and  N_20 
REMARK    4  A    between atoms: C_18  and  C_19 
REMARK       I    between atoms: C_19  and  N_26 
REMARK    5  A    between atoms: O_24  and  C_28 
REMARK    6  A    between atoms: C_27  and  N_26 
REMARK    7  A    between atoms: C_27  and  C_28 
REMARK    8  A    between atoms: C_27  and  C_29 
ROOT
HETATM    1  C   UNK N   1      32.253  15.866   5.994  0.00  0.00     0.051 A 
HETATM    2  C   UNK N   1      32.235  16.238   4.639  0.00  0.00     0.069 A 
HETATM    3  C   UNK N   1      31.264  17.159   4.184  0.00  0.00     0.039 A 
HETATM    4  C   UNK N   1      30.317  17.687   5.069  0.00  0.00     0.034 A 
HETATM    5  C   UNK N   1      31.131  16.269   8.206  0.00  0.00    -0.014 A 
HETATM    6  C   UNK N   1      30.053  17.076   8.552  0.00  0.00     0.024 A 
HETATM    7  C   UNK N   1      28.436  18.552   7.434  0.00  0.00     0.263 C 
HETATM    8  C   UNK N   1      30.332  17.284   6.406  0.00  0.00     0.053 A 
HETATM    9  C   UNK N   1      31.298  16.414   6.849  0.00  0.00     0.003 A 
HETATM   10  C   UNK N   1      29.527  17.210   9.946  0.00  0.00     0.069 C 
HETATM   11  N   UNK N   1      29.535  17.685   7.438  0.00  0.00    -0.281 N 
HETATM   12  O   UNK N   1      27.994  18.958   8.499  0.00  0.00    -0.267 OA
ENDROOT
BRANCH   5  13
HETATM   13  C   UNK N   1      31.950  15.421   9.140  0.00  0.00     0.144 C 
BRANCH  13  14
HETATM   14  C   UNK N   1      33.398  15.801   9.117  0.00  0.00     0.222 C 
HETATM   15  O   UNK N   1      33.720  16.981   9.096  0.00  0.00    -0.273 OA
HETATM   16  N   UNK N   1      34.340  14.824   9.107  0.00  0.00    -0.354 N 
HETATM   17  H   UNK N   1      34.045  13.888   9.196  0.00  0.00     0.162 HD
BRANCH  16  18
HETATM   18  C   UNK N   1      35.758  15.088   8.973  0.00  0.00     0.107 C 
BRANCH  18  19
HETATM   19  C   UNK N   1      36.421  14.967  10.341  0.00  0.00     0.189 C 
BRANCH  19  20
HETATM   20  O   UNK N   1      36.813  16.223  10.807  0.00  0.00    -0.399 OA
HETATM   21  H   UNK N   1      37.413  16.854  10.379  0.00  0.00     0.209 HD
ENDBRANCH  19  20
ENDBRANCH  18  19
BRANCH  18  22
HETATM   22  C   UNK N   1      36.392  14.114   7.972  0.00  0.00     0.023 C 
HETATM   23  C   UNK N   1      35.347  13.325   7.193  0.00  0.00     0.007 C 
ENDBRANCH  18  22
ENDBRANCH  16  18
ENDBRANCH  13  14
ENDBRANCH   5  13
BRANCH   7  24
HETATM   24  C   UNK N   1      27.728  19.001   6.193  0.00  0.00     0.033 A 
HETATM   25  C   UNK N   1      26.925  18.124   5.450  0.00  0.00     0.018 A 
HETATM   26  C   UNK N   1      26.234  18.559   4.321  0.00  0.00     0.025 A 
HETATM   27  C   UNK N   1      26.313  19.893   3.931  0.00  0.00     0.034 A 
HETATM   28  C   UNK N   1      27.064  20.797   4.688  0.00  0.00     0.025 A 
HETATM   29 Cl   UNK N   1      25.463  20.428   2.498  0.00  0.00    -0.084 Cl
HETATM   30  C   UNK N   1      27.756  20.356   5.824  0.00  0.00     0.018 A 
ENDBRANCH   7  24
BRANCH   2  31
HETATM   31  O   UNK N   1      33.157  15.715   3.799  0.00  0.00    -0.356 OA
HETATM   32  C   UNK N   1      33.784  14.511   4.027  0.00  0.00     0.210 C 
ENDBRANCH   2  31
TORSDOF 8
ENDMDL
MODEL 3
REMARK VINA RESULT:      -6.9      4.522      7.119
REMARK  8 active torsions:
REMARK  status: ('A' for Active; 'I' for Inactive)
REMARK    1  A    between atoms: C_2  and  O_21 
REMARK    2  A    between atoms: C_6  and  C_18 
REMARK    3  A    between atoms: C_8  and  C_11 
REMARK       I    between atoms: C_8  and  N_20 
REMARK    4  A    between atoms: C_18  and  C_19 
REMARK       I    between atoms: C_19  and  N_26 
REMARK    5  A    between atoms: O_24  and  C_28 
REMARK    6  A    between atoms: C_27  and  N_26 
REMARK    7  A    between atoms: C_27  and  C_28 
REMARK    8  A    between atoms: C_27  and  C_29 
ROOT
HETATM    1  C   UNK N   1      23.540  15.053   6.601  0.00  0.00     0.051 A 
HETATM    2  C   UNK N   1      24.590  14.281   7.127  0.00  0.00     0.069 A 
HETATM    3  C   UNK N   1      25.927  14.632   6.830  0.00  0.00     0.039 A 
HETATM    4  C   UNK N   1      26.207  15.730   6.008  0.00  0.00     0.034 A 
HETATM    5  C   UNK N   1      23.038  17.082   5.206  0.00  0.00    -0.014 A 
HETATM    6  C   UNK N   1      23.880  17.970   4.546  0.00  0.00     0.024 A 
HETATM    7  C   UNK N   1      26.287  18.246   4.127  0.00  0.00     0.263 C 
HETATM    8  C   UNK N   1      25.150  16.468   5.472  0.00  0.00     0.053 A 
HETATM    9  C   UNK N   1      23.855  16.142   5.790  0.00  0.00     0.003 A 
HETATM   10  C   UNK N   1      23.397  19.153   3.768  0.00  0.00     0.069 C 
HETATM   11  N   UNK N   1      25.187  17.580   4.681  0.00  0.00    -0.281 N 
HETATM   12  O   UNK N   1      26.124  19.353   3.633  0.00  0.00    -0.267 OA
ENDROOT
BRANCH   5  13
HETATM   13  C   UNK N   1      21.537  17.152   5.272  0.00  0.00     0.144 C 
BRANCH  13  14
HETATM   14  C   UNK N   1      21.048  17.390   6.667  0.00  0.00     0.222 C 
HETATM   15  O   UNK N   1      21.210  18.482   7.194  0.00  0.00    -0.273 OA
HETATM   16  N   UNK N   1      20.439  16.379   7.337  0.00  0.00    -0.354 N 
HETATM   17  H   UNK N   1      20.264  15.537   6.855  0.00  0.00     0.162 HD
BRANCH  16  18
HETATM   18  C   UNK N   1      20.033  16.475   8.723  0.00  0.00     0.107 C 
BRANCH  18  19
HETATM   19  C   UNK N   1      18.703  17.216   8.805  0.00  0.00     0.189 C 
BRANCH  19  20
HETATM   20  O   UNK N   1      18.889  18.499   9.325  0.00  0.00    -0.399 OA
HETATM   21  H   UNK N   1      19.722  18.910   9.605  0.00  0.00     0.209 HD
ENDBRANCH  19  20
ENDBRANCH  18  19
BRANCH  18  22
HETATM   22  C   UNK N   1      19.917  15.078   9.346  0.00  0.00     0.023 C 
HETATM   23  C   UNK N   1      21.262  14.368   9.426  0.00  0.00     0.007 C 
ENDBRANCH  18  22
ENDBRANCH  16  18
ENDBRANCH  13  14
ENDBRANCH   5  13
BRANCH   7  24
HETATM   24  C   UNK N   1      27.669  17.674   4.066  0.00  0.00     0.033 A 
HETATM   25  C   UNK N   1      28.009  16.678   3.139  0.00  0.00     0.018 A 
HETATM   26  C   UNK N   1      29.308  16.181   3.057  0.00  0.00     0.025 A 
HETATM   27  C   UNK N   1      30.301  16.695   3.888  0.00  0.00     0.034 A 
HETATM   28  C   UNK N   1      29.996  17.726   4.782  0.00  0.00     0.025 A 
HETATM   29 Cl   UNK N   1      31.924  16.050   3.799  0.00  0.00    -0.084 Cl
HETATM   30  C   UNK N   1      28.689  18.225   4.858  0.00  0.00     0.018 A 
ENDBRANCH   7  24
BRANCH   2  31
HETATM   31  O   UNK N   1      24.299  13.222   7.916  0.00  0.00    -0.356 OA
HETATM   32  C   UNK N   1      24.719  13.121   9.223  0.00  0.00     0.210 C 
ENDBRANCH   2  31
TORSDOF 8
ENDMDL
MODEL 4
REMARK VINA RESULT:      -6.7     10.454     12.920
REMARK  8 active torsions:
REMARK  status: ('A' for Active; 'I' for Inactive)
REMARK    1  A    between atoms: C_2  and  O_21 
REMARK    2  A    between atoms: C_6  and  C_18 
REMARK    3  A    between atoms: C_8  and  C_11 
REMARK       I    between atoms: C_8  and  N_20 
REMARK    4  A    between atoms: C_18  and  C_19 
REMARK       I    between atoms: C_19  and  N_26 
REMARK    5  A    between atoms: O_24  and  C_28 
REMARK    6  A    between atoms: C_27  and  N_26 
REMARK    7  A    between atoms: C_27  and  C_28 
REMARK    8  A    between atoms: C_27  and  C_29 
ROOT
HETATM    1  C   UNK N   1      33.044  14.103   6.168  0.00  0.00     0.051 A 
HETATM    2  C   UNK N   1      33.030  12.790   6.667  0.00  0.00     0.069 A 
HETATM    3  C   UNK N   1      33.576  12.525   7.944  0.00  0.00     0.039 A 
HETATM    4  C   UNK N   1      34.140  13.557   8.702  0.00  0.00     0.034 A 
HETATM    5  C   UNK N   1      33.698  16.463   6.733  0.00  0.00    -0.014 A 
HETATM    6  C   UNK N   1      34.315  16.997   7.859  0.00  0.00     0.024 A 
HETATM    7  C   UNK N   1      35.281  16.196   9.973  0.00  0.00     0.263 C 
HETATM    8  C   UNK N   1      34.170  14.851   8.178  0.00  0.00     0.053 A 
HETATM    9  C   UNK N   1      33.609  15.108   6.952  0.00  0.00     0.003 A 
HETATM   10  C   UNK N   1      34.613  18.453   8.034  0.00  0.00     0.069 C 
HETATM   11  N   UNK N   1      34.637  16.002   8.745  0.00  0.00    -0.281 N 
HETATM   12  O   UNK N   1      35.420  17.334  10.399  0.00  0.00    -0.267 OA
ENDROOT
BRANCH   5  13
HETATM   13  C   UNK N   1      33.217  17.226   5.529  0.00  0.00     0.144 C 
BRANCH  13  14
HETATM   14  C   UNK N   1      31.731  17.409   5.540  0.00  0.00     0.222 C 
HETATM   15  O   UNK N   1      31.149  17.752   4.520  0.00  0.00    -0.273 OA
HETATM   16  N   UNK N   1      31.047  17.202   6.694  0.00  0.00    -0.354 N 
HETATM   17  H   UNK N   1      31.539  16.859   7.475  0.00  0.00     0.162 HD
BRANCH  16  18
HETATM   18  C   UNK N   1      29.629  17.460   6.834  0.00  0.00     0.107 C 
BRANCH  18  19
HETATM   19  C   UNK N   1      28.848  16.257   6.319  0.00  0.00     0.189 C 
BRANCH  19  20
HETATM   20  O   UNK N   1      28.382  16.493   5.024  0.00  0.00    -0.399 OA
HETATM   21  H   UNK N   1      27.716  17.140   4.742  0.00  0.00     0.209 HD
ENDBRANCH  19  20
ENDBRANCH  18  19
BRANCH  18  22
HETATM   22  C   UNK N   1      29.279  17.750   8.299  0.00  0.00     0.023 C 
HETATM   23  C   UNK N   1      30.392  18.497   9.022  0.00  0.00     0.007 C 
ENDBRANCH  18  22
ENDBRANCH  16  18
ENDBRANCH  13  14
ENDBRANCH   5  13
BRANCH   7  24
HETATM   24  C   UNK N   1      35.851  15.089  10.804  0.00  0.00     0.033 A 
HETATM   25  C   UNK N   1      35.188  14.613  11.944  0.00  0.00     0.018 A 
HETATM   26  C   UNK N   1      35.701  13.552  12.688  0.00  0.00     0.025 A 
HETATM   27  C   UNK N   1      36.879  12.928  12.284  0.00  0.00     0.034 A 
HETATM   28  C   UNK N   1      37.528  13.351  11.121  0.00  0.00     0.025 A 
HETATM   29 Cl   UNK N   1      37.532  11.613  13.236  0.00  0.00    -0.084 Cl
HETATM   30  C   UNK N   1      37.007  14.416  10.374  0.00  0.00     0.018 A 
ENDBRANCH   7  24
BRANCH   2  31
HETATM   31  O   UNK N   1      32.483  11.805   5.918  0.00  0.00    -0.356 OA
HETATM   32  C   UNK N   1      32.660  11.710   4.556  0.00  0.00     0.210 C 
ENDBRANCH   2  31
TORSDOF 8
ENDMDL
MODEL 5
REMARK VINA RESULT:      -6.7      4.289      6.459
REMARK  8 active torsions:
REMARK  status: ('A' for Active; 'I' for Inactive)
REMARK    1  A    between atoms: C_2  and  O_21 
REMARK    2  A    between atoms: C_6  and  C_18 
REMARK    3  A    between atoms: C_8  and  C_11 
REMARK       I    between atoms: C_8  and  N_20 
REMARK    4  A    between atoms: C_18  and  C_19 
REMARK       I    between atoms: C_19  and  N_26 
REMARK    5  A    between atoms: O_24  and  C_28 
REMARK    6  A    between atoms: C_27  and  N_26 
REMARK    7  A    between atoms: C_27  and  C_28 
REMARK    8  A    between atoms: C_27  and  C_29 
ROOT
HETATM    1  C   UNK N   1      22.589  16.179   5.947  0.00  0.00     0.051 A 
HETATM    2  C   UNK N   1      23.414  15.255   6.609  0.00  0.00     0.069 A 
HETATM    3  C   UNK N   1      24.818  15.363   6.486  0.00  0.00     0.039 A 
HETATM    4  C   UNK N   1      25.386  16.372   5.699  0.00  0.00     0.034 A 
HETATM    5  C   UNK N   1      22.626  18.221   4.483  0.00  0.00    -0.014 A 
HETATM    6  C   UNK N   1      23.685  18.932   3.930  0.00  0.00     0.024 A 
HETATM    7  C   UNK N   1      26.137  18.780   3.823  0.00  0.00     0.263 C 
HETATM    8  C   UNK N   1      24.549  17.264   5.025  0.00  0.00     0.053 A 
HETATM    9  C   UNK N   1      23.187  17.174   5.175  0.00  0.00     0.003 A 
HETATM   10  C   UNK N   1      23.517  20.157   3.087  0.00  0.00     0.069 C 
HETATM   11  N   UNK N   1      24.878  18.329   4.237  0.00  0.00    -0.281 N 
HETATM   12  O   UNK N   1      26.233  19.883   3.304  0.00  0.00    -0.267 OA
ENDROOT
BRANCH   5  13
HETATM   13  C   UNK N   1      21.163  18.549   4.353  0.00  0.00     0.144 C 
BRANCH  13  14
HETATM   14  C   UNK N   1      20.423  17.507   3.574  0.00  0.00     0.222 C 
HETATM   15  O   UNK N   1      19.427  16.980   4.050  0.00  0.00    -0.273 OA
HETATM   16  N   UNK N   1      20.879  17.148   2.347  0.00  0.00    -0.354 N 
HETATM   17  H   UNK N   1      21.642  17.643   1.968  0.00  0.00     0.162 HD
BRANCH  16  18
HETATM   18  C   UNK N   1      20.299  16.075   1.566  0.00  0.00     0.107 C 
BRANCH  18  19
HETATM   19  C   UNK N   1      19.655  16.659   0.314  0.00  0.00     0.189 C 
BRANCH  19  20
HETATM   20  O   UNK N   1      20.350  17.793  -0.111  0.00  0.00    -0.399 OA
HETATM   21  H   UNK N   1      21.242  17.834  -0.490  0.00  0.00     0.209 HD
ENDBRANCH  19  20
ENDBRANCH  18  19
BRANCH  18  22
HETATM   22  C   UNK N   1      21.371  15.043   1.196  0.00  0.00     0.023 C 
HETATM   23  C   UNK N   1      22.509  15.003   2.209  0.00  0.00     0.007 C 
ENDBRANCH  18  22
ENDBRANCH  16  18
ENDBRANCH  13  14
ENDBRANCH   5  13
BRANCH   7  24
HETATM   24  C   UNK N   1      27.395  17.979   3.947  0.00  0.00     0.033 A 
HETATM   25  C   UNK N   1      27.637  16.865   3.129  0.00  0.00     0.018 A 
HETATM   26  C   UNK N   1      28.829  16.149   3.218  0.00  0.00     0.025 A 
HETATM   27  C   UNK N   1      29.817  16.556   4.111  0.00  0.00     0.034 A 
HETATM   28  C   UNK N   1      29.620  17.695   4.897  0.00  0.00     0.025 A 
HETATM   29 Cl   UNK N   1      31.302  15.639   4.236  0.00  0.00    -0.084 Cl
HETATM   30  C   UNK N   1      28.420  18.413   4.803  0.00  0.00     0.018 A 
ENDBRANCH   7  24
BRANCH   2  31
HETATM   31  O   UNK N   1      22.847  14.286   7.363  0.00  0.00    -0.356 OA
HETATM   32  C   UNK N   1      21.630  14.435   7.988  0.00  0.00     0.210 C 
ENDBRANCH   2  31
TORSDOF 8
ENDMDL
MODEL 6
REMARK VINA RESULT:      -6.7      8.932     11.437
REMARK  8 active torsions:
REMARK  status: ('A' for Active; 'I' for Inactive)
REMARK    1  A    between atoms: C_2  and  O_21 
REMARK    2  A    between atoms: C_6  and  C_18 
REMARK    3  A    between atoms: C_8  and  C_11 
REMARK       I    between atoms: C_8  and  N_20 
REMARK    4  A    between atoms: C_18  and  C_19 
REMARK       I    between atoms: C_19  and  N_26 
REMARK    5  A    between atoms: O_24  and  C_28 
REMARK    6  A    between atoms: C_27  and  N_26 
REMARK    7  A    between atoms: C_27  and  C_28 
REMARK    8  A    between atoms: C_27  and  C_29 
ROOT
HETATM    1  C   UNK N   1      30.553  17.685   7.283  0.00  0.00     0.051 A 
HETATM    2  C   UNK N   1      29.221  17.565   7.713  0.00  0.00     0.069 A 
HETATM    3  C   UNK N   1      28.331  16.730   7.000  0.00  0.00     0.039 A 
HETATM    4  C   UNK N   1      28.766  16.038   5.863  0.00  0.00     0.034 A 
HETATM    5  C   UNK N   1      32.191  16.871   5.559  0.00  0.00    -0.014 A 
HETATM    6  C   UNK N   1      32.034  16.000   4.486  0.00  0.00     0.024 A 
HETATM    7  C   UNK N   1      30.226  14.732   3.405  0.00  0.00     0.263 C 
HETATM    8  C   UNK N   1      30.086  16.191   5.434  0.00  0.00     0.053 A 
HETATM    9  C   UNK N   1      30.953  16.977   6.150  0.00  0.00     0.003 A 
HETATM   10  C   UNK N   1      33.143  15.608   3.563  0.00  0.00     0.069 C 
HETATM   11  N   UNK N   1      30.727  15.598   4.384  0.00  0.00    -0.281 N 
HETATM   12  O   UNK N   1      31.010  14.133   2.683  0.00  0.00    -0.267 OA
ENDROOT
BRANCH   5  13
HETATM   13  C   UNK N   1      33.466  17.545   5.985  0.00  0.00     0.144 C 
BRANCH  13  14
HETATM   14  C   UNK N   1      34.284  16.676   6.889  0.00  0.00     0.222 C 
HETATM   15  O   UNK N   1      35.202  16.010   6.431  0.00  0.00    -0.273 OA
HETATM   16  N   UNK N   1      33.984  16.628   8.212  0.00  0.00    -0.354 N 
HETATM   17  H   UNK N   1      33.284  17.231   8.555  0.00  0.00     0.162 HD
BRANCH  16  18
HETATM   18  C   UNK N   1      34.641  15.737   9.145  0.00  0.00     0.107 C 
BRANCH  18  19
HETATM   19  C   UNK N   1      34.940  16.494  10.435  0.00  0.00     0.189 C 
BRANCH  19  20
HETATM   20  O   UNK N   1      35.646  17.667  10.161  0.00  0.00    -0.399 OA
HETATM   21  H   UNK N   1      35.699  18.468  10.707  0.00  0.00     0.209 HD
ENDBRANCH  19  20
ENDBRANCH  18  19
BRANCH  18  22
HETATM   22  C   UNK N   1      33.764  14.511   9.423  0.00  0.00     0.023 C 
HETATM   23  C   UNK N   1      32.301  14.757   9.077  0.00  0.00     0.007 C 
ENDBRANCH  18  22
ENDBRANCH  16  18
ENDBRANCH  13  14
ENDBRANCH   5  13
BRANCH   7  24
HETATM   24  C   UNK N   1      28.767  14.508   3.152  0.00  0.00     0.033 A 
HETATM   25  C   UNK N   1      28.093  13.402   3.691  0.00  0.00     0.018 A 
HETATM   26  C   UNK N   1      26.726  13.222   3.490  0.00  0.00     0.025 A 
HETATM   27  C   UNK N   1      26.001  14.166   2.766  0.00  0.00     0.034 A 
HETATM   28  C   UNK N   1      26.643  15.303   2.266  0.00  0.00     0.025 A 
HETATM   29 Cl   UNK N   1      24.290  13.922   2.495  0.00  0.00    -0.084 Cl
HETATM   30  C   UNK N   1      28.017  15.481   2.473  0.00  0.00     0.018 A 
ENDBRANCH   7  24
BRANCH   2  31
HETATM   31  O   UNK N   1      28.820  18.245   8.812  0.00  0.00    -0.356 OA
HETATM   32  C   UNK N   1      29.680  18.627   9.816  0.00  0.00     0.210 C 
ENDBRANCH   2  31
TORSDOF 8
ENDMDL
MODEL 7
REMARK VINA RESULT:      -6.6     12.461     14.556
REMARK  8 active torsions:
REMARK  status: ('A' for Active; 'I' for Inactive)
REMARK    1  A    between atoms: C_2  and  O_21 
REMARK    2  A    between atoms: C_6  and  C_18 
REMARK    3  A    between atoms: C_8  and  C_11 
REMARK       I    between atoms: C_8  and  N_20 
REMARK    4  A    between atoms: C_18  and  C_19 
REMARK       I    between atoms: C_19  and  N_26 
REMARK    5  A    between atoms: O_24  and  C_28 
REMARK    6  A    between atoms: C_27  and  N_26 
REMARK    7  A    between atoms: C_27  and  C_28 
REMARK    8  A    between atoms: C_27  and  C_29 
ROOT
HETATM    1  C   UNK N   1      35.313  13.453  13.028  0.00  0.00     0.051 A 
HETATM    2  C   UNK N   1      34.763  12.575  13.978  0.00  0.00     0.069 A 
HETATM    3  C   UNK N   1      34.326  11.294  13.570  0.00  0.00     0.039 A 
HETATM    4  C   UNK N   1      34.425  10.905  12.228  0.00  0.00     0.034 A 
HETATM    5  C   UNK N   1      35.941  13.657  10.604  0.00  0.00    -0.014 A 
HETATM    6  C   UNK N   1      35.804  12.767   9.545  0.00  0.00     0.024 A 
HETATM    7  C   UNK N   1      34.854  10.536   9.136  0.00  0.00     0.263 C 
HETATM    8  C   UNK N   1      34.948  11.800  11.294  0.00  0.00     0.053 A 
HETATM    9  C   UNK N   1      35.401  13.031  11.703  0.00  0.00     0.003 A 
HETATM   10  C   UNK N   1      36.261  13.055   8.150  0.00  0.00     0.069 C 
HETATM   11  N   UNK N   1      35.163  11.627   9.957  0.00  0.00    -0.281 N 
HETATM   12  O   UNK N   1      35.330  10.484   8.012  0.00  0.00    -0.267 OA
ENDROOT
BRANCH   5  13
HETATM   13  C   UNK N   1      36.568  15.023  10.549  0.00  0.00     0.144 C 
BRANCH  13  14
HETATM   14  C   UNK N   1      35.546  16.101  10.361  0.00  0.00     0.222 C 
HETATM   15  O   UNK N   1      35.282  16.861  11.282  0.00  0.00    -0.273 OA
HETATM   16  N   UNK N   1      34.914  16.212   9.165  0.00  0.00    -0.354 N 
HETATM   17  H   UNK N   1      35.203  15.628   8.426  0.00  0.00     0.162 HD
BRANCH  16  18
HETATM   18  C   UNK N   1      33.835  17.147   8.920  0.00  0.00     0.107 C 
BRANCH  18  19
HETATM   19  C   UNK N   1      34.272  18.148   7.856  0.00  0.00     0.189 C 
BRANCH  19  20
HETATM   20  O   UNK N   1      35.066  19.148   8.421  0.00  0.00    -0.399 OA
HETATM   21  H   UNK N   1      35.225  20.042   8.080  0.00  0.00     0.209 HD
ENDBRANCH  19  20
ENDBRANCH  18  19
BRANCH  18  22
HETATM   22  C   UNK N   1      32.569  16.401   8.480  0.00  0.00     0.023 C 
HETATM   23  C   UNK N   1      32.651  14.907   8.764  0.00  0.00     0.007 C 
ENDBRANCH  18  22
ENDBRANCH  16  18
ENDBRANCH  13  14
ENDBRANCH   5  13
BRANCH   7  24
HETATM   24  C   UNK N   1      33.937   9.422   9.535  0.00  0.00     0.033 A 
HETATM   25  C   UNK N   1      32.544   9.548   9.434  0.00  0.00     0.018 A 
HETATM   26  C   UNK N   1      31.697   8.492   9.765  0.00  0.00     0.025 A 
HETATM   27  C   UNK N   1      32.234   7.275  10.178  0.00  0.00     0.034 A 
HETATM   28  C   UNK N   1      33.621   7.110  10.234  0.00  0.00     0.025 A 
HETATM   29 Cl   UNK N   1      31.166   5.961  10.616  0.00  0.00    -0.084 Cl
HETATM   30  C   UNK N   1      34.469   8.174   9.897  0.00  0.00     0.018 A 
ENDBRANCH   7  24
BRANCH   2  31
HETATM   31  O   UNK N   1      34.673  12.970  15.268  0.00  0.00    -0.356 OA
HETATM   32  C   UNK N   1      35.480  12.471  16.265  0.00  0.00     0.210 C 
ENDBRANCH   2  31
TORSDOF 8
ENDMDL
MODEL 8
REMARK VINA RESULT:      -6.6     11.596     14.740
REMARK  8 active torsions:
REMARK  status: ('A' for Active; 'I' for Inactive)
REMARK    1  A    between atoms: C_2  and  O_21 
REMARK    2  A    between atoms: C_6  and  C_18 
REMARK    3  A    between atoms: C_8  and  C_11 
REMARK       I    between atoms: C_8  and  N_20 
REMARK    4  A    between atoms: C_18  and  C_19 
REMARK       I    between atoms: C_19  and  N_26 
REMARK    5  A    between atoms: O_24  and  C_28 
REMARK    6  A    between atoms: C_27  and  N_26 
REMARK    7  A    between atoms: C_27  and  C_28 
REMARK    8  A    between atoms: C_27  and  C_29 
ROOT
HETATM    1  C   UNK N   1      34.184  11.122   9.676  0.00  0.00     0.051 A 
HETATM    2  C   UNK N   1      33.642  10.058  10.418  0.00  0.00     0.069 A 
HETATM    3  C   UNK N   1      33.755  10.064  11.826  0.00  0.00     0.039 A 
HETATM    4  C   UNK N   1      34.414  11.111  12.481  0.00  0.00     0.034 A 
HETATM    5  C   UNK N   1      35.386  13.317   9.893  0.00  0.00    -0.014 A 
HETATM    6  C   UNK N   1      35.851  14.000  11.011  0.00  0.00     0.024 A 
HETATM    7  C   UNK N   1      35.982  13.660  13.442  0.00  0.00     0.263 C 
HETATM    8  C   UNK N   1      34.971  12.145  11.726  0.00  0.00     0.053 A 
HETATM    9  C   UNK N   1      34.829  12.150  10.360  0.00  0.00     0.003 A 
HETATM   10  C   UNK N   1      36.537  15.329  10.950  0.00  0.00     0.069 C 
HETATM   11  N   UNK N   1      35.624  13.268  12.147  0.00  0.00    -0.281 N 
HETATM   12  O   UNK N   1      36.363  14.806  13.633  0.00  0.00    -0.267 OA
ENDROOT
BRANCH   5  13
HETATM   13  C   UNK N   1      35.471  13.779   8.463  0.00  0.00     0.144 C 
BRANCH  13  14
HETATM   14  C   UNK N   1      34.202  14.432   8.011  0.00  0.00     0.222 C 
HETATM   15  O   UNK N   1      33.556  13.945   7.093  0.00  0.00    -0.273 OA
HETATM   16  N   UNK N   1      33.789  15.572   8.622  0.00  0.00    -0.354 N 
HETATM   17  H   UNK N   1      34.297  15.895   9.402  0.00  0.00     0.162 HD
BRANCH  16  18
HETATM   18  C   UNK N   1      32.640  16.337   8.185  0.00  0.00     0.107 C 
BRANCH  18  19
HETATM   19  C   UNK N   1      31.436  15.967   9.045  0.00  0.00     0.189 C 
BRANCH  19  20
HETATM   20  O   UNK N   1      31.845  15.268  10.183  0.00  0.00    -0.399 OA
HETATM   21  H   UNK N   1      32.372  14.454  10.221  0.00  0.00     0.209 HD
ENDBRANCH  19  20
ENDBRANCH  18  19
BRANCH  18  22
HETATM   22  C   UNK N   1      32.931  17.840   8.273  0.00  0.00     0.023 C 
HETATM   23  C   UNK N   1      34.403  18.157   8.043  0.00  0.00     0.007 C 
ENDBRANCH  18  22
ENDBRANCH  16  18
ENDBRANCH  13  14
ENDBRANCH   5  13
BRANCH   7  24
HETATM   24  C   UNK N   1      35.962  12.748  14.629  0.00  0.00     0.033 A 
HETATM   25  C   UNK N   1      36.888  11.703  14.766  0.00  0.00     0.018 A 
HETATM   26  C   UNK N   1      36.892  10.886  15.894  0.00  0.00     0.025 A 
HETATM   27  C   UNK N   1      35.983  11.118  16.923  0.00  0.00     0.034 A 
HETATM   28  C   UNK N   1      35.087  12.187  16.832  0.00  0.00     0.025 A 
HETATM   29 Cl   UNK N   1      35.977  10.073  18.326  0.00  0.00    -0.084 Cl
HETATM   30  C   UNK N   1      35.088  13.010  15.697  0.00  0.00     0.018 A 
ENDBRANCH   7  24
BRANCH   2  31
HETATM   31  O   UNK N   1      33.011   9.054   9.767  0.00  0.00    -0.356 OA
HETATM   32  C   UNK N   1      32.284   9.246   8.614  0.00  0.00     0.210 C 
ENDBRANCH   2  31
TORSDOF 8
ENDMDL
MODEL 9
REMARK VINA RESULT:      -6.6     16.381     17.629
REMARK  8 active torsions:
REMARK  status: ('A' for Active; 'I' for Inactive)
REMARK    1  A    between atoms: C_2  and  O_21 
REMARK    2  A    between atoms: C_6  and  C_18 
REMARK    3  A    between atoms: C_8  and  C_11 
REMARK       I    between atoms: C_8  and  N_20 
REMARK    4  A    between atoms: C_18  and  C_19 
REMARK       I    between atoms: C_19  and  N_26 
REMARK    5  A    between atoms: O_24  and  C_28 
REMARK    6  A    between atoms: C_27  and  N_26 
REMARK    7  A    between atoms: C_27  and  C_28 
REMARK    8  A    between atoms: C_27  and  C_29 
ROOT
HETATM    1  C   UNK N   1      28.614  23.976  -4.698  0.00  0.00     0.051 A 
HETATM    2  C   UNK N   1      29.984  23.678  -4.595  0.00  0.00     0.069 A 
HETATM    3  C   UNK N   1      30.571  22.777  -5.513  0.00  0.00     0.039 A 
HETATM    4  C   UNK N   1      29.794  22.172  -6.508  0.00  0.00     0.034 A 
HETATM    5  C   UNK N   1      26.553  23.515  -6.059  0.00  0.00    -0.014 A 
HETATM    6  C   UNK N   1      26.349  22.694  -7.162  0.00  0.00     0.024 A 
HETATM    7  C   UNK N   1      27.632  21.095  -8.519  0.00  0.00     0.263 C 
HETATM    8  C   UNK N   1      28.430  22.458  -6.578  0.00  0.00     0.053 A 
HETATM    9  C   UNK N   1      27.872  23.359  -5.704  0.00  0.00     0.003 A 
HETATM   10  C   UNK N   1      25.036  22.558  -7.868  0.00  0.00     0.069 C 
HETATM   11  N   UNK N   1      27.498  22.014  -7.471  0.00  0.00    -0.281 N 
HETATM   12  O   UNK N   1      26.736  21.000  -9.345  0.00  0.00    -0.267 OA
ENDROOT
BRANCH   5  13
HETATM   13  C   UNK N   1      25.530  24.401  -5.401  0.00  0.00     0.144 C 
BRANCH  13  14
HETATM   14  C   UNK N   1      25.689  25.834  -5.805  0.00  0.00     0.222 C 
HETATM   15  O   UNK N   1      25.443  26.177  -6.953  0.00  0.00    -0.273 OA
HETATM   16  N   UNK N   1      26.119  26.737  -4.887  0.00  0.00    -0.354 N 
HETATM   17  H   UNK N   1      26.239  26.438  -3.956  0.00  0.00     0.162 HD
BRANCH  16  18
HETATM   18  C   UNK N   1      26.410  28.119  -5.208  0.00  0.00     0.107 C 
BRANCH  18  19
HETATM   19  C   UNK N   1      26.059  28.995  -4.010  0.00  0.00     0.189 C 
BRANCH  19  20
HETATM   20  O   UNK N   1      25.429  28.240  -3.020  0.00  0.00    -0.399 OA
HETATM   21  H   UNK N   1      25.847  27.696  -2.333  0.00  0.00     0.209 HD
ENDBRANCH  19  20
ENDBRANCH  18  19
BRANCH  18  22
HETATM   22  C   UNK N   1      27.887  28.282  -5.587  0.00  0.00     0.023 C 
HETATM   23  C   UNK N   1      28.065  28.783  -7.015  0.00  0.00     0.007 C 
ENDBRANCH  18  22
ENDBRANCH  16  18
ENDBRANCH  13  14
ENDBRANCH   5  13
BRANCH   7  24
HETATM   24  C   UNK N   1      28.804  20.178  -8.684  0.00  0.00     0.033 A 
HETATM   25  C   UNK N   1      28.945  19.021  -7.903  0.00  0.00     0.018 A 
HETATM   26  C   UNK N   1      30.014  18.149  -8.092  0.00  0.00     0.025 A 
HETATM   27  C   UNK N   1      30.952  18.406  -9.089  0.00  0.00     0.034 A 
HETATM   28  C   UNK N   1      30.801  19.524  -9.914  0.00  0.00     0.025 A 
HETATM   29 Cl   UNK N   1      32.307  17.321  -9.305  0.00  0.00    -0.084 Cl
HETATM   30  C   UNK N   1      29.722  20.398  -9.723  0.00  0.00     0.018 A 
ENDBRANCH   7  24
BRANCH   2  31
HETATM   31  O   UNK N   1      30.717  24.270  -3.624  0.00  0.00    -0.356 OA
HETATM   32  C   UNK N   1      30.853  25.635  -3.512  0.00  0.00     0.210 C 
ENDBRANCH   2  31
TORSDOF 8
ENDMDL
