MODEL 1
REMARK VINA RESULT:      -7.6      0.000      0.000
REMARK  8 active torsions:
REMARK  status: ('A' for Active; 'I' for Inactive)
REMARK    1  A    between atoms: C_2  and  O_21 
REMARK    2  A    between atoms: C_6  and  C_18 
REMARK    3  A    between atoms: C_8  and  C_11 
REMARK       I    between atoms: C_8  and  N_20 
REMARK    4  A    between atoms: C_18  and  C_19 
REMARK       I    between atoms: C_19  and  N_26 
REMARK    5  A    between atoms: O_24  and  C_28 
REMARK    6  A    between atoms: C_27  and  N_26 
REMARK    7  A    between atoms: C_27  and  C_28 
REMARK    8  A    between atoms: C_27  and  C_29 
ROOT
HETATM    1  C   UNK N   1      20.784  16.516   6.608  0.00  0.00     0.051 A 
HETATM    2  C   UNK N   1      20.538  16.924   7.930  0.00  0.00     0.069 A 
HETATM    3  C   UNK N   1      20.815  16.036   8.997  0.00  0.00     0.039 A 
HETATM    4  C   UNK N   1      21.344  14.765   8.744  0.00  0.00     0.034 A 
HETATM    5  C   UNK N   1      21.602  14.584   5.220  0.00  0.00    -0.014 A 
HETATM    6  C   UNK N   1      22.067  13.327   5.586  0.00  0.00     0.024 A 
HETATM    7  C   UNK N   1      22.505  12.061   7.646  0.00  0.00     0.263 C 
HETATM    8  C   UNK N   1      21.611  14.388   7.427  0.00  0.00     0.053 A 
HETATM    9  C   UNK N   1      21.312  15.241   6.392  0.00  0.00     0.003 A 
HETATM   10  C   UNK N   1      22.493  12.280   4.605  0.00  0.00     0.069 C 
HETATM   11  N   UNK N   1      22.095  13.204   6.950  0.00  0.00    -0.281 N 
HETATM   12  O   UNK N   1      22.691  11.023   7.027  0.00  0.00    -0.267 OA
ENDROOT
BRANCH   5  13
HETATM   13  C   UNK N   1      21.436  15.100   3.820  0.00  0.00     0.144 C 
BRANCH  13  14
HETATM   14  C   UNK N   1      19.982  15.218   3.455  0.00  0.00     0.222 C 
HETATM   15  O   UNK N   1      19.195  14.387   3.876  0.00  0.00    -0.273 OA
HETATM   16  N   UNK N   1      19.518  16.243   2.693  0.00  0.00    -0.354 N 
HETATM   17  H   UNK N   1      18.545  16.307   2.558  0.00  0.00     0.162 HD
BRANCH  16  18
HETATM   18  C   UNK N   1      20.355  17.250   2.064  0.00  0.00     0.107 C 
BRANCH  18  19
HETATM   19  C   UNK N   1      20.175  17.198   0.546  0.00  0.00     0.189 C 
BRANCH  19  20
HETATM   20  O   UNK N   1      20.350  18.457  -0.033  0.00  0.00    -0.399 OA
HETATM   21  H   UNK N   1      21.018  19.085  -0.349  0.00  0.00     0.209 HD
ENDBRANCH  19  20
ENDBRANCH  18  19
BRANCH  18  22
HETATM   22  C   UNK N   1      20.056  18.640   2.633  0.00  0.00     0.023 C 
HETATM   23  C   UNK N   1      20.895  18.996   3.849  0.00  0.00     0.007 C 
ENDBRANCH  18  22
ENDBRANCH  16  18
ENDBRANCH  13  14
ENDBRANCH   5  13
BRANCH   7  24
HETATM   24  C   UNK N   1      22.750  12.022   9.120  0.00  0.00     0.033 A 
HETATM   25  C   UNK N   1      21.692  11.991  10.039  0.00  0.00     0.018 A 
HETATM   26  C   UNK N   1      21.929  12.000  11.413  0.00  0.00     0.025 A 
HETATM   27  C   UNK N   1      23.236  12.064  11.890  0.00  0.00     0.034 A 
HETATM   28  C   UNK N   1      24.304  12.145  10.991  0.00  0.00     0.025 A 
HETATM   29 Cl   UNK N   1      23.532  12.048  13.614  0.00  0.00    -0.084 Cl
HETATM   30  C   UNK N   1      24.060  12.143   9.612  0.00  0.00     0.018 A 
ENDBRANCH   7  24
BRANCH   2  31
HETATM   31  O   UNK N   1      20.032  18.158   8.159  0.00  0.00    -0.356 OA
HETATM   32  C   UNK N   1      19.463  18.526   9.358  0.00  0.00     0.210 C 
ENDBRANCH   2  31
TORSDOF 8
ENDMDL
MODEL 2
REMARK VINA RESULT:      -7.3     10.181     13.174
REMARK  8 active torsions:
REMARK  status: ('A' for Active; 'I' for Inactive)
REMARK    1  A    between atoms: C_2  and  O_21 
REMARK    2  A    between atoms: C_6  and  C_18 
REMARK    3  A    between atoms: C_8  and  C_11 
REMARK       I    between atoms: C_8  and  N_20 
REMARK    4  A    between atoms: C_18  and  C_19 
REMARK       I    between atoms: C_19  and  N_26 
REMARK    5  A    between atoms: O_24  and  C_28 
REMARK    6  A    between atoms: C_27  and  N_26 
REMARK    7  A    between atoms: C_27  and  C_28 
REMARK    8  A    between atoms: C_27  and  C_29 
ROOT
HETATM    1  C   UNK N   1      32.804  16.310   5.580  0.00  0.00     0.051 A 
HETATM    2  C   UNK N   1      32.558  16.494   4.208  0.00  0.00     0.069 A 
HETATM    3  C   UNK N   1      31.310  17.010   3.785  0.00  0.00     0.039 A 
HETATM    4  C   UNK N   1      30.329  17.351   4.723  0.00  0.00     0.034 A 
HETATM    5  C   UNK N   1      31.761  16.547   7.857  0.00  0.00    -0.014 A 
HETATM    6  C   UNK N   1      30.510  17.009   8.247  0.00  0.00     0.024 A 
HETATM    7  C   UNK N   1      28.493  17.945   7.202  0.00  0.00     0.263 C 
HETATM    8  C   UNK N   1      30.601  17.191   6.082  0.00  0.00     0.053 A 
HETATM    9  C   UNK N   1      31.802  16.661   6.487  0.00  0.00     0.003 A 
HETATM   10  C   UNK N   1      30.047  17.054   9.669  0.00  0.00     0.069 C 
HETATM   11  N   UNK N   1      29.794  17.429   7.158  0.00  0.00    -0.281 N 
HETATM   12  O   UNK N   1      27.858  17.867   8.244  0.00  0.00    -0.267 OA
ENDROOT
BRANCH   5  13
HETATM   13  C   UNK N   1      32.836  16.012   8.759  0.00  0.00     0.144 C 
BRANCH  13  14
HETATM   14  C   UNK N   1      33.791  17.099   9.167  0.00  0.00     0.222 C 
HETATM   15  O   UNK N   1      33.633  18.225   8.724  0.00  0.00    -0.273 OA
HETATM   16  N   UNK N   1      34.808  16.867  10.037  0.00  0.00    -0.354 N 
HETATM   17  H   UNK N   1      35.347  17.639  10.325  0.00  0.00     0.162 HD
BRANCH  16  18
HETATM   18  C   UNK N   1      35.155  15.562  10.573  0.00  0.00     0.107 C 
BRANCH  18  19
HETATM   19  C   UNK N   1      36.298  14.955   9.759  0.00  0.00     0.189 C 
BRANCH  19  20
HETATM   20  O   UNK N   1      37.544  15.328  10.268  0.00  0.00    -0.399 OA
HETATM   21  H   UNK N   1      38.087  16.091  10.522  0.00  0.00     0.209 HD
ENDBRANCH  19  20
ENDBRANCH  18  19
BRANCH  18  22
HETATM   22  C   UNK N   1      35.496  15.659  12.064  0.00  0.00     0.023 C 
HETATM   23  C   UNK N   1      35.597  14.309  12.756  0.00  0.00     0.007 C 
ENDBRANCH  18  22
ENDBRANCH  16  18
ENDBRANCH  13  14
ENDBRANCH   5  13
BRANCH   7  24
HETATM   24  C   UNK N   1      27.817  18.610   6.046  0.00  0.00     0.033 A 
HETATM   25  C   UNK N   1      27.906  19.994   5.843  0.00  0.00     0.018 A 
HETATM   26  C   UNK N   1      27.236  20.613   4.788  0.00  0.00     0.025 A 
HETATM   27  C   UNK N   1      26.442  19.854   3.931  0.00  0.00     0.034 A 
HETATM   28  C   UNK N   1      26.300  18.480   4.145  0.00  0.00     0.025 A 
HETATM   29 Cl   UNK N   1      25.624  20.629   2.593  0.00  0.00    -0.084 Cl
HETATM   30  C   UNK N   1      26.970  17.864   5.210  0.00  0.00     0.018 A 
ENDBRANCH   7  24
BRANCH   2  31
HETATM   31  O   UNK N   1      33.520  16.165   3.314  0.00  0.00    -0.356 OA
HETATM   32  C   UNK N   1      33.648  14.902   2.780  0.00  0.00     0.210 C 
ENDBRANCH   2  31
TORSDOF 8
ENDMDL
MODEL 3
REMARK VINA RESULT:      -7.2     16.013     17.553
REMARK  8 active torsions:
REMARK  status: ('A' for Active; 'I' for Inactive)
REMARK    1  A    between atoms: C_2  and  O_21 
REMARK    2  A    between atoms: C_6  and  C_18 
REMARK    3  A    between atoms: C_8  and  C_11 
REMARK       I    between atoms: C_8  and  N_20 
REMARK    4  A    between atoms: C_18  and  C_19 
REMARK       I    between atoms: C_19  and  N_26 
REMARK    5  A    between atoms: O_24  and  C_28 
REMARK    6  A    between atoms: C_27  and  N_26 
REMARK    7  A    between atoms: C_27  and  C_28 
REMARK    8  A    between atoms: C_27  and  C_29 
ROOT
HETATM    1  C   UNK N   1      30.510  22.917  -3.484  0.00  0.00     0.051 A 
HETATM    2  C   UNK N   1      31.345  21.791  -3.383  0.00  0.00     0.069 A 
HETATM    3  C   UNK N   1      31.278  20.782  -4.375  0.00  0.00     0.039 A 
HETATM    4  C   UNK N   1      30.400  20.908  -5.458  0.00  0.00     0.034 A 
HETATM    5  C   UNK N   1      28.709  23.964  -4.893  0.00  0.00    -0.014 A 
HETATM    6  C   UNK N   1      28.106  23.539  -6.071  0.00  0.00     0.024 A 
HETATM    7  C   UNK N   1      28.283  21.666  -7.650  0.00  0.00     0.263 C 
HETATM    8  C   UNK N   1      29.601  22.048  -5.558  0.00  0.00     0.053 A 
HETATM    9  C   UNK N   1      29.646  23.009  -4.577  0.00  0.00     0.003 A 
HETATM   10  C   UNK N   1      27.015  24.293  -6.764  0.00  0.00     0.069 C 
HETATM   11  N   UNK N   1      28.666  22.366  -6.500  0.00  0.00    -0.281 N 
HETATM   12  O   UNK N   1      27.267  22.004  -8.242  0.00  0.00    -0.267 OA
ENDROOT
BRANCH   5  13
HETATM   13  C   UNK N   1      28.378  25.208  -4.120  0.00  0.00     0.144 C 
BRANCH  13  14
HETATM   14  C   UNK N   1      27.003  25.122  -3.518  0.00  0.00     0.222 C 
HETATM   15  O   UNK N   1      26.688  24.121  -2.896  0.00  0.00    -0.273 OA
HETATM   16  N   UNK N   1      26.111  26.142  -3.626  0.00  0.00    -0.354 N 
HETATM   17  H   UNK N   1      25.259  26.055  -3.141  0.00  0.00     0.162 HD
BRANCH  16  18
HETATM   18  C   UNK N   1      26.327  27.350  -4.403  0.00  0.00     0.107 C 
BRANCH  18  19
HETATM   19  C   UNK N   1      25.404  27.353  -5.622  0.00  0.00     0.189 C 
BRANCH  19  20
HETATM   20  O   UNK N   1      24.437  26.349  -5.535  0.00  0.00    -0.399 OA
HETATM   21  H   UNK N   1      23.665  26.050  -5.029  0.00  0.00     0.209 HD
ENDBRANCH  19  20
ENDBRANCH  18  19
BRANCH  18  22
HETATM   22  C   UNK N   1      26.139  28.598  -3.535  0.00  0.00     0.023 C 
HETATM   23  C   UNK N   1      27.399  29.026  -2.799  0.00  0.00     0.007 C 
ENDBRANCH  18  22
ENDBRANCH  16  18
ENDBRANCH  13  14
ENDBRANCH   5  13
BRANCH   7  24
HETATM   24  C   UNK N   1      29.052  20.521  -8.228  0.00  0.00     0.033 A 
HETATM   25  C   UNK N   1      28.875  19.211  -7.763  0.00  0.00     0.018 A 
HETATM   26  C   UNK N   1      29.628  18.155  -8.276  0.00  0.00     0.025 A 
HETATM   27  C   UNK N   1      30.592  18.401  -9.251  0.00  0.00     0.034 A 
HETATM   28  C   UNK N   1      30.818  19.708  -9.694  0.00  0.00     0.025 A 
HETATM   29 Cl   UNK N   1      31.516  17.072  -9.912  0.00  0.00    -0.084 Cl
HETATM   30  C   UNK N   1      30.064  20.766  -9.171  0.00  0.00     0.018 A 
ENDBRANCH   7  24
BRANCH   2  31
HETATM   31  O   UNK N   1      32.193  21.687  -2.334  0.00  0.00    -0.356 OA
HETATM   32  C   UNK N   1      33.437  21.104  -2.429  0.00  0.00     0.210 C 
ENDBRANCH   2  31
TORSDOF 8
ENDMDL
MODEL 4
REMARK VINA RESULT:      -7.2     10.002     12.864
REMARK  8 active torsions:
REMARK  status: ('A' for Active; 'I' for Inactive)
REMARK    1  A    between atoms: C_2  and  O_21 
REMARK    2  A    between atoms: C_6  and  C_18 
REMARK    3  A    between atoms: C_8  and  C_11 
REMARK       I    between atoms: C_8  and  N_20 
REMARK    4  A    between atoms: C_18  and  C_19 
REMARK       I    between atoms: C_19  and  N_26 
REMARK    5  A    between atoms: O_24  and  C_28 
REMARK    6  A    between atoms: C_27  and  N_26 
REMARK    7  A    between atoms: C_27  and  C_28 
REMARK    8  A    between atoms: C_27  and  C_29 
ROOT
HETATM    1  C   UNK N   1      32.670  16.568   5.473  0.00  0.00     0.051 A 
HETATM    2  C   UNK N   1      32.304  16.513   4.116  0.00  0.00     0.069 A 
HETATM    3  C   UNK N   1      31.011  16.934   3.725  0.00  0.00     0.039 A 
HETATM    4  C   UNK N   1      30.104  17.417   4.675  0.00  0.00     0.034 A 
HETATM    5  C   UNK N   1      31.819  17.174   7.760  0.00  0.00    -0.014 A 
HETATM    6  C   UNK N   1      30.593  17.680   8.176  0.00  0.00     0.024 A 
HETATM    7  C   UNK N   1      28.470  18.399   7.172  0.00  0.00     0.263 C 
HETATM    8  C   UNK N   1      30.495  17.493   6.013  0.00  0.00     0.053 A 
HETATM    9  C   UNK N   1      31.740  17.055   6.393  0.00  0.00     0.003 A 
HETATM   10  C   UNK N   1      30.251  17.959   9.606  0.00  0.00     0.069 C 
HETATM   11  N   UNK N   1      29.775  17.900   7.100  0.00  0.00    -0.281 N 
HETATM   12  O   UNK N   1      27.927  18.491   8.264  0.00  0.00    -0.267 OA
ENDROOT
BRANCH   5  13
HETATM   13  C   UNK N   1      32.980  16.814   8.642  0.00  0.00     0.144 C 
BRANCH  13  14
HETATM   14  C   UNK N   1      32.911  15.373   9.066  0.00  0.00     0.222 C 
HETATM   15  O   UNK N   1      31.821  14.867   9.275  0.00  0.00    -0.273 OA
HETATM   16  N   UNK N   1      34.030  14.613   9.196  0.00  0.00    -0.354 N 
HETATM   17  H   UNK N   1      33.911  13.657   9.397  0.00  0.00     0.162 HD
BRANCH  16  18
HETATM   18  C   UNK N   1      35.387  15.109   9.056  0.00  0.00     0.107 C 
BRANCH  18  19
HETATM   19  C   UNK N   1      36.116  15.011  10.396  0.00  0.00     0.189 C 
BRANCH  19  20
HETATM   20  O   UNK N   1      36.703  16.228  10.751  0.00  0.00    -0.399 OA
HETATM   21  H   UNK N   1      36.972  17.094  10.407  0.00  0.00     0.209 HD
ENDBRANCH  19  20
ENDBRANCH  18  19
BRANCH  18  22
HETATM   22  C   UNK N   1      36.129  14.364   7.941  0.00  0.00     0.023 C 
HETATM   23  C   UNK N   1      35.713  14.789   6.541  0.00  0.00     0.007 C 
ENDBRANCH  18  22
ENDBRANCH  16  18
ENDBRANCH  13  14
ENDBRANCH   5  13
BRANCH   7  24
HETATM   24  C   UNK N   1      27.680  18.850   5.984  0.00  0.00     0.033 A 
HETATM   25  C   UNK N   1      27.750  20.169   5.516  0.00  0.00     0.018 A 
HETATM   26  C   UNK N   1      26.977  20.593   4.436  0.00  0.00     0.025 A 
HETATM   27  C   UNK N   1      26.098  19.704   3.821  0.00  0.00     0.034 A 
HETATM   28  C   UNK N   1      25.977  18.397   4.304  0.00  0.00     0.025 A 
HETATM   29 Cl   UNK N   1      25.149  20.231   2.450  0.00  0.00    -0.084 Cl
HETATM   30  C   UNK N   1      26.751  17.978   5.393  0.00  0.00     0.018 A 
ENDBRANCH   7  24
BRANCH   2  31
HETATM   31  O   UNK N   1      33.196  16.050   3.209  0.00  0.00    -0.356 OA
HETATM   32  C   UNK N   1      33.800  14.817   3.313  0.00  0.00     0.210 C 
ENDBRANCH   2  31
TORSDOF 8
ENDMDL
MODEL 5
REMARK VINA RESULT:      -7.0     16.036     18.194
REMARK  8 active torsions:
REMARK  status: ('A' for Active; 'I' for Inactive)
REMARK    1  A    between atoms: C_2  and  O_21 
REMARK    2  A    between atoms: C_6  and  C_18 
REMARK    3  A    between atoms: C_8  and  C_11 
REMARK       I    between atoms: C_8  and  N_20 
REMARK    4  A    between atoms: C_18  and  C_19 
REMARK       I    between atoms: C_19  and  N_26 
REMARK    5  A    between atoms: O_24  and  C_28 
REMARK    6  A    between atoms: C_27  and  N_26 
REMARK    7  A    between atoms: C_27  and  C_28 
REMARK    8  A    between atoms: C_27  and  C_29 
ROOT
HETATM    1  C   UNK N   1      35.415  10.379  14.904  0.00  0.00     0.051 A 
HETATM    2  C   UNK N   1      35.560   8.993  15.090  0.00  0.00     0.069 A 
HETATM    3  C   UNK N   1      35.670   8.474  16.403  0.00  0.00     0.039 A 
HETATM    4  C   UNK N   1      35.620   9.327  17.511  0.00  0.00     0.034 A 
HETATM    5  C   UNK N   1      35.281  12.569  16.134  0.00  0.00    -0.014 A 
HETATM    6  C   UNK N   1      35.315  12.859  17.493  0.00  0.00     0.024 A 
HETATM    7  C   UNK N   1      35.457  11.645  19.624  0.00  0.00     0.263 C 
HETATM    8  C   UNK N   1      35.445  10.697  17.308  0.00  0.00     0.053 A 
HETATM    9  C   UNK N   1      35.370  11.201  16.032  0.00  0.00     0.003 A 
HETATM   10  C   UNK N   1      35.247  14.246  18.049  0.00  0.00     0.069 C 
HETATM   11  N   UNK N   1      35.396  11.705  18.227  0.00  0.00    -0.281 N 
HETATM   12  O   UNK N   1      35.627  12.678  20.258  0.00  0.00    -0.267 OA
ENDROOT
BRANCH   5  13
HETATM   13  C   UNK N   1      35.185  13.563  15.013  0.00  0.00     0.144 C 
BRANCH  13  14
HETATM   14  C   UNK N   1      36.550  14.011  14.569  0.00  0.00     0.222 C 
HETATM   15  O   UNK N   1      37.438  14.122  15.398  0.00  0.00    -0.273 OA
HETATM   16  N   UNK N   1      36.827  14.267  13.264  0.00  0.00    -0.354 N 
HETATM   17  H   UNK N   1      37.760  14.477  13.028  0.00  0.00     0.162 HD
BRANCH  16  18
HETATM   18  C   UNK N   1      35.848  14.251  12.192  0.00  0.00     0.107 C 
BRANCH  18  19
HETATM   19  C   UNK N   1      35.754  15.638  11.555  0.00  0.00     0.189 C 
BRANCH  19  20
HETATM   20  O   UNK N   1      36.964  16.015  10.967  0.00  0.00    -0.399 OA
HETATM   21  H   UNK N   1      37.897  15.767  10.873  0.00  0.00     0.209 HD
ENDBRANCH  19  20
ENDBRANCH  18  19
BRANCH  18  22
HETATM   22  C   UNK N   1      36.182  13.166  11.163  0.00  0.00     0.023 C 
HETATM   23  C   UNK N   1      37.399  12.331  11.529  0.00  0.00     0.007 C 
ENDBRANCH  18  22
ENDBRANCH  16  18
ENDBRANCH  13  14
ENDBRANCH   5  13
BRANCH   7  24
HETATM   24  C   UNK N   1      35.311  10.384  20.414  0.00  0.00     0.033 A 
HETATM   25  C   UNK N   1      36.428   9.662  20.856  0.00  0.00     0.018 A 
HETATM   26  C   UNK N   1      36.283   8.463  21.554  0.00  0.00     0.025 A 
HETATM   27  C   UNK N   1      35.010   7.955  21.800  0.00  0.00     0.034 A 
HETATM   28  C   UNK N   1      33.883   8.634  21.326  0.00  0.00     0.025 A 
HETATM   29 Cl   UNK N   1      34.830   6.465  22.699  0.00  0.00    -0.084 Cl
HETATM   30  C   UNK N   1      34.035   9.834  20.620  0.00  0.00     0.018 A 
ENDBRANCH   7  24
BRANCH   2  31
HETATM   31  O   UNK N   1      35.599   8.181  14.009  0.00  0.00    -0.356 OA
HETATM   32  C   UNK N   1      35.512   8.648  12.716  0.00  0.00     0.210 C 
ENDBRANCH   2  31
TORSDOF 8
ENDMDL
MODEL 6
REMARK VINA RESULT:      -6.9      9.497     11.895
REMARK  8 active torsions:
REMARK  status: ('A' for Active; 'I' for Inactive)
REMARK    1  A    between atoms: C_2  and  O_21 
REMARK    2  A    between atoms: C_6  and  C_18 
REMARK    3  A    between atoms: C_8  and  C_11 
REMARK       I    between atoms: C_8  and  N_20 
REMARK    4  A    between atoms: C_18  and  C_19 
REMARK       I    between atoms: C_19  and  N_26 
REMARK    5  A    between atoms: O_24  and  C_28 
REMARK    6  A    between atoms: C_27  and  N_26 
REMARK    7  A    between atoms: C_27  and  C_28 
REMARK    8  A    between atoms: C_27  and  C_29 
ROOT
HETATM    1  C   UNK N   1      30.975  17.457   8.175  0.00  0.00     0.051 A 
HETATM    2  C   UNK N   1      29.661  17.400   8.673  0.00  0.00     0.069 A 
HETATM    3  C   UNK N   1      28.589  17.146   7.785  0.00  0.00     0.039 A 
HETATM    4  C   UNK N   1      28.830  16.936   6.422  0.00  0.00     0.034 A 
HETATM    5  C   UNK N   1      32.333  17.285   6.065  0.00  0.00    -0.014 A 
HETATM    6  C   UNK N   1      31.954  17.036   4.751  0.00  0.00     0.024 A 
HETATM    7  C   UNK N   1      29.901  16.546   3.496  0.00  0.00     0.263 C 
HETATM    8  C   UNK N   1      30.143  16.965   5.951  0.00  0.00     0.053 A 
HETATM    9  C   UNK N   1      31.178  17.243   6.811  0.00  0.00     0.003 A 
HETATM   10  C   UNK N   1      32.914  16.996   3.604  0.00  0.00     0.069 C 
HETATM   11  N   UNK N   1      30.605  16.817   4.674  0.00  0.00    -0.281 N 
HETATM   12  O   UNK N   1      30.468  16.679   2.420  0.00  0.00    -0.267 OA
ENDROOT
BRANCH   5  13
HETATM   13  C   UNK N   1      33.725  17.561   6.555  0.00  0.00     0.144 C 
BRANCH  13  14
HETATM   14  C   UNK N   1      34.516  16.289   6.683  0.00  0.00     0.222 C 
HETATM   15  O   UNK N   1      35.073  15.834   5.697  0.00  0.00    -0.273 OA
HETATM   16  N   UNK N   1      34.652  15.649   7.874  0.00  0.00    -0.354 N 
HETATM   17  H   UNK N   1      35.249  14.868   7.906  0.00  0.00     0.162 HD
BRANCH  16  18
HETATM   18  C   UNK N   1      33.980  16.037   9.102  0.00  0.00     0.107 C 
BRANCH  18  19
HETATM   19  C   UNK N   1      33.157  14.864   9.635  0.00  0.00     0.189 C 
BRANCH  19  20
HETATM   20  O   UNK N   1      32.737  15.088  10.948  0.00  0.00    -0.399 OA
HETATM   21  H   UNK N   1      32.299  15.729  11.529  0.00  0.00     0.209 HD
ENDBRANCH  19  20
ENDBRANCH  18  19
BRANCH  18  22
HETATM   22  C   UNK N   1      34.986  16.552  10.135  0.00  0.00     0.023 C 
HETATM   23  C   UNK N   1      36.126  15.584  10.414  0.00  0.00     0.007 C 
ENDBRANCH  18  22
ENDBRANCH  16  18
ENDBRANCH  13  14
ENDBRANCH   5  13
BRANCH   7  24
HETATM   24  C   UNK N   1      28.479  16.083   3.457  0.00  0.00     0.033 A 
HETATM   25  C   UNK N   1      28.153  14.720   3.458  0.00  0.00     0.018 A 
HETATM   26  C   UNK N   1      26.827  14.296   3.377  0.00  0.00     0.025 A 
HETATM   27  C   UNK N   1      25.804  15.236   3.269  0.00  0.00     0.034 A 
HETATM   28  C   UNK N   1      26.111  16.599   3.218  0.00  0.00     0.025 A 
HETATM   29 Cl   UNK N   1      24.140  14.702   3.194  0.00  0.00    -0.084 Cl
HETATM   30  C   UNK N   1      27.445  17.019   3.293  0.00  0.00     0.018 A 
ENDBRANCH   7  24
BRANCH   2  31
HETATM   31  O   UNK N   1      29.445  17.598   9.995  0.00  0.00    -0.356 OA
HETATM   32  C   UNK N   1      29.258  16.566  10.888  0.00  0.00     0.210 C 
ENDBRANCH   2  31
TORSDOF 8
ENDMDL
MODEL 7
REMARK VINA RESULT:      -6.8     15.953     18.110
REMARK  8 active torsions:
REMARK  status: ('A' for Active; 'I' for Inactive)
REMARK    1  A    between atoms: C_2  and  O_21 
REMARK    2  A    between atoms: C_6  and  C_18 
REMARK    3  A    between atoms: C_8  and  C_11 
REMARK       I    between atoms: C_8  and  N_20 
REMARK    4  A    between atoms: C_18  and  C_19 
REMARK       I    between atoms: C_19  and  N_26 
REMARK    5  A    between atoms: O_24  and  C_28 
REMARK    6  A    between atoms: C_27  and  N_26 
REMARK    7  A    between atoms: C_27  and  C_28 
REMARK    8  A    between atoms: C_27  and  C_29 
ROOT
HETATM    1  C   UNK N   1      29.016  21.083  -7.521  0.00  0.00     0.051 A 
HETATM    2  C   UNK N   1      27.953  21.776  -8.126  0.00  0.00     0.069 A 
HETATM    3  C   UNK N   1      27.369  22.879  -7.457  0.00  0.00     0.039 A 
HETATM    4  C   UNK N   1      27.852  23.289  -6.210  0.00  0.00     0.034 A 
HETATM    5  C   UNK N   1      30.450  21.008  -5.456  0.00  0.00    -0.014 A 
HETATM    6  C   UNK N   1      30.462  21.810  -4.321  0.00  0.00     0.024 A 
HETATM    7  C   UNK N   1      29.290  23.791  -3.463  0.00  0.00     0.263 C 
HETATM    8  C   UNK N   1      28.928  22.609  -5.638  0.00  0.00     0.053 A 
HETATM    9  C   UNK N   1      29.472  21.520  -6.276  0.00  0.00     0.003 A 
HETATM   10  C   UNK N   1      31.384  21.596  -3.162  0.00  0.00     0.069 C 
HETATM   11  N   UNK N   1      29.538  22.815  -4.434  0.00  0.00    -0.281 N 
HETATM   12  O   UNK N   1      29.790  23.667  -2.353  0.00  0.00    -0.267 OA
ENDROOT
BRANCH   5  13
HETATM   13  C   UNK N   1      31.322  19.813  -5.713  0.00  0.00     0.144 C 
BRANCH  13  14
HETATM   14  C   UNK N   1      32.549  20.195  -6.492  0.00  0.00     0.222 C 
HETATM   15  O   UNK N   1      32.441  20.462  -7.677  0.00  0.00    -0.273 OA
HETATM   16  N   UNK N   1      33.771  20.279  -5.904  0.00  0.00    -0.354 N 
HETATM   17  H   UNK N   1      34.518  20.613  -6.450  0.00  0.00     0.162 HD
BRANCH  16  18
HETATM   18  C   UNK N   1      34.052  19.912  -4.527  0.00  0.00     0.107 C 
BRANCH  18  19
HETATM   19  C   UNK N   1      34.604  18.487  -4.473  0.00  0.00     0.189 C 
BRANCH  19  20
HETATM   20  O   UNK N   1      33.813  17.661  -3.670  0.00  0.00    -0.399 OA
HETATM   21  H   UNK N   1      33.155  17.664  -2.958  0.00  0.00     0.209 HD
ENDBRANCH  19  20
ENDBRANCH  18  19
BRANCH  18  22
HETATM   22  C   UNK N   1      35.001  20.923  -3.876  0.00  0.00     0.023 C 
HETATM   23  C   UNK N   1      35.668  21.862  -4.869  0.00  0.00     0.007 C 
ENDBRANCH  18  22
ENDBRANCH  16  18
ENDBRANCH  13  14
ENDBRANCH   5  13
BRANCH   7  24
HETATM   24  C   UNK N   1      28.452  25.008  -3.694  0.00  0.00     0.033 A 
HETATM   25  C   UNK N   1      29.011  26.202  -4.170  0.00  0.00     0.018 A 
HETATM   26  C   UNK N   1      28.231  27.346  -4.341  0.00  0.00     0.025 A 
HETATM   27  C   UNK N   1      26.877  27.316  -4.012  0.00  0.00     0.034 A 
HETATM   28  C   UNK N   1      26.311  26.150  -3.490  0.00  0.00     0.025 A 
HETATM   29 Cl   UNK N   1      25.896  28.744  -4.252  0.00  0.00    -0.084 Cl
HETATM   30  C   UNK N   1      27.100  25.006  -3.314  0.00  0.00     0.018 A 
ENDBRANCH   7  24
BRANCH   2  31
HETATM   31  O   UNK N   1      27.502  21.371  -9.336  0.00  0.00    -0.356 OA
HETATM   32  C   UNK N   1      26.318  21.815  -9.883  0.00  0.00     0.210 C 
ENDBRANCH   2  31
TORSDOF 8
ENDMDL
MODEL 8
REMARK VINA RESULT:      -6.8      6.697      7.458
REMARK  8 active torsions:
REMARK  status: ('A' for Active; 'I' for Inactive)
REMARK    1  A    between atoms: C_2  and  O_21 
REMARK    2  A    between atoms: C_6  and  C_18 
REMARK    3  A    between atoms: C_8  and  C_11 
REMARK       I    between atoms: C_8  and  N_20 
REMARK    4  A    between atoms: C_18  and  C_19 
REMARK       I    between atoms: C_19  and  N_26 
REMARK    5  A    between atoms: O_24  and  C_28 
REMARK    6  A    between atoms: C_27  and  N_26 
REMARK    7  A    between atoms: C_27  and  C_28 
REMARK    8  A    between atoms: C_27  and  C_29 
ROOT
HETATM    1  C   UNK N   1      25.581  20.225   5.635  0.00  0.00     0.051 A 
HETATM    2  C   UNK N   1      26.509  20.849   6.486  0.00  0.00     0.069 A 
HETATM    3  C   UNK N   1      27.764  20.237   6.718  0.00  0.00     0.039 A 
HETATM    4  C   UNK N   1      28.090  19.027   6.095  0.00  0.00     0.034 A 
HETATM    5  C   UNK N   1      25.219  18.188   4.204  0.00  0.00    -0.014 A 
HETATM    6  C   UNK N   1      26.045  17.105   3.930  0.00  0.00     0.024 A 
HETATM    7  C   UNK N   1      28.316  16.345   4.475  0.00  0.00     0.263 C 
HETATM    8  C   UNK N   1      27.168  18.437   5.229  0.00  0.00     0.053 A 
HETATM    9  C   UNK N   1      25.939  19.018   5.031  0.00  0.00     0.003 A 
HETATM   10  C   UNK N   1      25.644  15.954   3.062  0.00  0.00     0.069 C 
HETATM   11  N   UNK N   1      27.259  17.260   4.543  0.00  0.00    -0.281 N 
HETATM   12  O   UNK N   1      28.117  15.240   3.990  0.00  0.00    -0.267 OA
ENDROOT
BRANCH   5  13
HETATM   13  C   UNK N   1      23.816  18.389   3.707  0.00  0.00     0.144 C 
BRANCH  13  14
HETATM   14  C   UNK N   1      22.812  17.849   4.687  0.00  0.00     0.222 C 
HETATM   15  O   UNK N   1      23.209  17.297   5.700  0.00  0.00    -0.273 OA
HETATM   16  N   UNK N   1      21.475  17.984   4.487  0.00  0.00    -0.354 N 
HETATM   17  H   UNK N   1      20.874  17.681   5.204  0.00  0.00     0.162 HD
BRANCH  16  18
HETATM   18  C   UNK N   1      20.871  18.546   3.291  0.00  0.00     0.107 C 
BRANCH  18  19
HETATM   19  C   UNK N   1      19.570  17.808   2.973  0.00  0.00     0.189 C 
BRANCH  19  20
HETATM   20  O   UNK N   1      19.268  17.866   1.610  0.00  0.00    -0.399 OA
HETATM   21  H   UNK N   1      19.593  17.627   0.728  0.00  0.00     0.209 HD
ENDBRANCH  19  20
ENDBRANCH  18  19
BRANCH  18  22
HETATM   22  C   UNK N   1      20.655  20.054   3.445  0.00  0.00     0.023 C 
HETATM   23  C   UNK N   1      21.037  20.856   2.211  0.00  0.00     0.007 C 
ENDBRANCH  18  22
ENDBRANCH  16  18
ENDBRANCH  13  14
ENDBRANCH   5  13
BRANCH   7  24
HETATM   24  C   UNK N   1      29.704  16.633   4.952  0.00  0.00     0.033 A 
HETATM   25  C   UNK N   1      30.649  17.255   4.123  0.00  0.00     0.018 A 
HETATM   26  C   UNK N   1      31.954  17.480   4.559  0.00  0.00     0.025 A 
HETATM   27  C   UNK N   1      32.342  17.061   5.831  0.00  0.00     0.034 A 
HETATM   28  C   UNK N   1      31.429  16.396   6.654  0.00  0.00     0.025 A 
HETATM   29 Cl   UNK N   1      33.972  17.368   6.385  0.00  0.00    -0.084 Cl
HETATM   30  C   UNK N   1      30.121  16.166   6.209  0.00  0.00     0.018 A 
ENDBRANCH   7  24
BRANCH   2  31
HETATM   31  O   UNK N   1      26.182  22.023   7.076  0.00  0.00    -0.356 OA
HETATM   32  C   UNK N   1      25.535  22.098   8.289  0.00  0.00     0.210 C 
ENDBRANCH   2  31
TORSDOF 8
ENDMDL
MODEL 9
REMARK VINA RESULT:      -6.8      3.700      8.486
REMARK  8 active torsions:
REMARK  status: ('A' for Active; 'I' for Inactive)
REMARK    1  A    between atoms: C_2  and  O_21 
REMARK    2  A    between atoms: C_6  and  C_18 
REMARK    3  A    between atoms: C_8  and  C_11 
REMARK       I    between atoms: C_8  and  N_20 
REMARK    4  A    between atoms: C_18  and  C_19 
REMARK       I    between atoms: C_19  and  N_26 
REMARK    5  A    between atoms: O_24  and  C_28 
REMARK    6  A    between atoms: C_27  and  N_26 
REMARK    7  A    between atoms: C_27  and  C_28 
REMARK    8  A    between atoms: C_27  and  C_29 
ROOT
HETATM    1  C   UNK N   1      24.864  13.997   5.144  0.00  0.00     0.051 A 
HETATM    2  C   UNK N   1      25.148  14.331   3.808  0.00  0.00     0.069 A 
HETATM    3  C   UNK N   1      24.302  15.235   3.121  0.00  0.00     0.039 A 
HETATM    4  C   UNK N   1      23.199  15.805   3.767  0.00  0.00     0.034 A 
HETATM    5  C   UNK N   1      23.234  14.405   7.016  0.00  0.00    -0.014 A 
HETATM    6  C   UNK N   1      22.103  15.208   7.084  0.00  0.00     0.024 A 
HETATM    7  C   UNK N   1      20.883  16.786   5.649  0.00  0.00     0.263 C 
HETATM    8  C   UNK N   1      22.950  15.486   5.102  0.00  0.00     0.053 A 
HETATM    9  C   UNK N   1      23.756  14.585   5.756  0.00  0.00     0.003 A 
HETATM   10  C   UNK N   1      21.225  15.307   8.293  0.00  0.00     0.069 C 
HETATM   11  N   UNK N   1      21.931  15.896   5.912  0.00  0.00    -0.281 N 
HETATM   12  O   UNK N   1      19.943  16.846   6.429  0.00  0.00    -0.267 OA
ENDROOT
BRANCH   5  13
HETATM   13  C   UNK N   1      23.759  13.508   8.100  0.00  0.00     0.144 C 
BRANCH  13  14
HETATM   14  C   UNK N   1      23.012  12.204   8.133  0.00  0.00     0.222 C 
HETATM   15  O   UNK N   1      22.927  11.543   7.112  0.00  0.00    -0.273 OA
HETATM   16  N   UNK N   1      22.455  11.729   9.278  0.00  0.00    -0.354 N 
HETATM   17  H   UNK N   1      22.051  10.832   9.250  0.00  0.00     0.162 HD
BRANCH  16  18
HETATM   18  C   UNK N   1      22.414  12.449  10.538  0.00  0.00     0.107 C 
BRANCH  18  19
HETATM   19  C   UNK N   1      21.043  12.274  11.191  0.00  0.00     0.189 C 
BRANCH  19  20
HETATM   20  O   UNK N   1      20.047  12.949  10.482  0.00  0.00    -0.399 OA
HETATM   21  H   UNK N   1      19.154  13.321  10.553  0.00  0.00     0.209 HD
ENDBRANCH  19  20
ENDBRANCH  18  19
BRANCH  18  22
HETATM   22  C   UNK N   1      23.553  12.002  11.459  0.00  0.00     0.023 C 
HETATM   23  C   UNK N   1      23.147  11.882  12.920  0.00  0.00     0.007 C 
ENDBRANCH  18  22
ENDBRANCH  16  18
ENDBRANCH  13  14
ENDBRANCH   5  13
BRANCH   7  24
HETATM   24  C   UNK N   1      20.838  17.698   4.465  0.00  0.00     0.033 A 
HETATM   25  C   UNK N   1      20.111  17.368   3.313  0.00  0.00     0.018 A 
HETATM   26  C   UNK N   1      20.110  18.203   2.197  0.00  0.00     0.025 A 
HETATM   27  C   UNK N   1      20.861  19.377   2.208  0.00  0.00     0.034 A 
HETATM   28  C   UNK N   1      21.632  19.700   3.329  0.00  0.00     0.025 A 
HETATM   29 Cl   UNK N   1      20.837  20.435   0.816  0.00  0.00    -0.084 Cl
HETATM   30  C   UNK N   1      21.635  18.855   4.445  0.00  0.00     0.018 A 
ENDBRANCH   7  24
BRANCH   2  31
HETATM   31  O   UNK N   1      26.222  13.776   3.201  0.00  0.00    -0.356 OA
HETATM   32  C   UNK N   1      27.010  14.457   2.299  0.00  0.00     0.210 C 
ENDBRANCH   2  31
TORSDOF 8
ENDMDL
