REMARK  6 active torsions:
REMARK  status: ('A' for Active; 'I' for Inactive)
REMARK    1  A    between atoms: C_2  and  N_4 
REMARK    2  A    between atoms: C_10  and  C_11 
REMARK       I    between atoms: C_16  and  N_17 
REMARK    3  A    between atoms: N_17  and  C_18 
REMARK    4  A    between atoms: C_21  and  N_24 
REMARK       I    between atoms: N_27  and  C_30 
REMARK    5  A    between atoms: C_30  and  C_32 
REMARK    6  A    between atoms: C_32  and  O_33 
ROOT
HETATM    1  C   UNK N   1      -1.186  10.219  -0.204  0.00  0.00     0.078 A 
HETATM    2  C   UNK N   1      -2.192   9.266  -0.374  0.00  0.00     0.050 A 
HETATM    3  C   UNK N   1      -3.526   9.678  -0.347  0.00  0.00     0.108 A 
HETATM    4  N   UNK N   1      -3.833  10.991  -0.164  0.00  0.00    -0.202 N 
ATOM      5  HN  UNK N   1      -4.810  11.284  -0.151  1.00  0.00     0.183 HD
HETATM    6  C   UNK N   1      -2.851  11.913   0.003  0.00  0.00     0.683 A 
HETATM    7  N   UNK N   1      -3.188  13.299   0.115  0.00  0.00    -0.192 N 
HETATM    8  N   UNK N   1      -1.542  11.517  -0.027  0.00  0.00    -0.189 N 
ATOM      9  HN  UNK N   1      -0.811  12.219   0.088  1.00  0.00     0.184 HD
HETATM   10  H   UNK N   1      -4.134  13.569   0.078  0.00  0.00     0.184 HD
ENDROOT
BRANCH   7  11
HETATM   11  C   UNK N   1      -2.186  14.292   0.278  0.00  0.00     0.049 A 
HETATM   12  C   UNK N   1      -2.321  15.548  -0.334  0.00  0.00     0.032 A 
HETATM   13  C   UNK N   1      -1.221  16.424  -0.378  0.00  0.00     0.031 A 
HETATM   14  C   UNK N   1       0.013  16.028   0.176  0.00  0.00     0.030 A 
HETATM   15  C   UNK N   1       0.093  14.814   0.851  0.00  0.00     0.031 A 
HETATM   16  C   UNK N   1      -0.989  13.966   0.909  0.00  0.00     0.032 A 
BRANCH  14  17
HETATM   17  N   UNK N   1       1.202  16.782  -0.013  0.00  0.00    -0.378 N 
HETATM   18  C   UNK N   1       1.151  18.169  -0.412  0.00  0.00     0.143 C 
HETATM   19  C   UNK N   1       2.191  18.902   0.416  0.00  0.00     0.145 C 
HETATM   20  N   UNK N   1       3.498  18.404   0.029  0.00  0.00    -0.347 N 
HETATM   21  C   UNK N   1       3.697  16.979  -0.186  0.00  0.00     0.145 C 
HETATM   22  C   UNK N   1       4.519  19.278  -0.200  0.00  0.00     0.243 C 
HETATM   23  C   UNK N   1       2.489  16.132   0.222  0.00  0.00     0.143 C 
HETATM   24  O   UNK N   1       4.352  20.475  -0.019  0.00  0.00    -0.271 OA
BRANCH  22  25
HETATM   25  C   UNK N   1       5.858  18.808  -0.696  0.00  0.00     0.267 C 
BRANCH  25  26
HETATM   26  O   UNK N   1       6.449  17.943   0.225  0.00  0.00    -0.392 OA
HETATM   27  H   UNK N   1       6.134  17.286   0.865  0.00  0.00     0.210 HD
ENDBRANCH  25  26
ENDBRANCH  22  25
ENDBRANCH  14  17
ENDBRANCH   7  11
BRANCH   1  28
HETATM   28  C   UNK N   1       0.247   9.813  -0.224  0.00  0.00     0.079 A 
HETATM   29  N   UNK N   1       1.326  10.600  -0.018  0.00  0.00    -0.330 N 
HETATM   30  C   UNK N   1       2.397   9.786  -0.129  0.00  0.00     0.080 A 
HETATM   31  C   UNK N   1       3.818  10.214   0.030  0.00  0.00     0.089 C 
HETATM   32  N   UNK N   1       2.039   8.515  -0.398  0.00  0.00    -0.354 N 
HETATM   33  C   UNK N   1       0.690   8.521  -0.458  0.00  0.00     0.121 A 
ATOM     34  HN  UNK N   1       2.658   7.715  -0.529  1.00  0.00     0.166 HD
BRANCH  29  35
HETATM   35  C   UNK N   1       1.351  12.033   0.278  0.00  0.00     0.083 C 
HETATM   36  C   UNK N   1       2.108  12.796  -0.797  0.00  0.00     0.032 C 
HETATM   37  C   UNK N   1       1.981  12.291   1.638  0.00  0.00     0.032 C 
ENDBRANCH  29  35
ENDBRANCH   1  28
TORSDOF 6
