MODEL 1
REMARK VINA RESULT:      -7.8      0.000      0.000
REMARK  6 active torsions:
REMARK  status: ('A' for Active; 'I' for Inactive)
REMARK    1  A    between atoms: C_2  and  N_4 
REMARK    2  A    between atoms: C_10  and  C_11 
REMARK       I    between atoms: C_16  and  N_17 
REMARK    3  A    between atoms: N_17  and  C_18 
REMARK    4  A    between atoms: C_21  and  N_24 
REMARK       I    between atoms: N_27  and  C_30 
REMARK    5  A    between atoms: C_30  and  C_32 
REMARK    6  A    between atoms: C_32  and  O_33 
ROOT
HETATM    1  C   UNK N   1      26.267  19.445   4.833  0.00  0.00     0.078 A 
HETATM    2  C   UNK N   1      26.623  20.413   3.892  0.00  0.00     0.050 A 
HETATM    3  C   UNK N   1      25.714  20.743   2.885  0.00  0.00     0.108 A 
HETATM    4  N   UNK N   1      24.500  20.132   2.831  0.00  0.00    -0.202 N 
ATOM      5  HN  UNK N   1      23.840  20.383   2.095  1.00  0.00     0.183 HD
HETATM    6  C   UNK N   1      24.160  19.189   3.747  0.00  0.00     0.683 A 
HETATM    7  N   UNK N   1      22.851  18.613   3.723  0.00  0.00    -0.192 N 
HETATM    8  N   UNK N   1      25.044  18.864   4.740  0.00  0.00    -0.189 N 
ATOM      9  HN  UNK N   1      24.775  18.163   5.430  1.00  0.00     0.184 HD
HETATM   10  H   UNK N   1      22.210  18.903   3.034  0.00  0.00     0.184 HD
ENDROOT
BRANCH   7  11
HETATM   11  C   UNK N   1      22.457  17.635   4.674  0.00  0.00     0.049 A 
HETATM   12  C   UNK N   1      21.605  17.975   5.736  0.00  0.00     0.032 A 
HETATM   13  C   UNK N   1      21.426  17.074   6.802  0.00  0.00     0.031 A 
HETATM   14  C   UNK N   1      22.118  15.846   6.806  0.00  0.00     0.030 A 
HETATM   15  C   UNK N   1      22.888  15.500   5.700  0.00  0.00     0.031 A 
HETATM   16  C   UNK N   1      23.047  16.374   4.649  0.00  0.00     0.032 A 
BRANCH  14  17
HETATM   17  N   UNK N   1      22.132  14.992   7.941  0.00  0.00    -0.378 N 
HETATM   18  C   UNK N   1      21.128  15.104   8.973  0.00  0.00     0.143 C 
HETATM   19  C   UNK N   1      20.728  13.690   9.351  0.00  0.00     0.145 C 
HETATM   20  N   UNK N   1      21.881  13.049   9.958  0.00  0.00    -0.347 N 
HETATM   21  C   UNK N   1      23.203  13.239   9.381  0.00  0.00     0.145 C 
HETATM   22  C   UNK N   1      21.734  12.329  11.106  0.00  0.00     0.243 C 
HETATM   23  C   UNK N   1      23.177  13.976   8.040  0.00  0.00     0.143 C 
HETATM   24  O   UNK N   1      20.623  12.169  11.590  0.00  0.00    -0.271 OA
BRANCH  22  25
HETATM   25  C   UNK N   1      22.917  11.733  11.816  0.00  0.00     0.267 C 
BRANCH  25  26
HETATM   26  O   UNK N   1      22.549  11.255  13.073  0.00  0.00    -0.392 OA
HETATM   27  H   UNK N   1      21.849  11.450  13.715  0.00  0.00     0.210 HD
ENDBRANCH  25  26
ENDBRANCH  22  25
ENDBRANCH  14  17
ENDBRANCH   7  11
BRANCH   1  28
HETATM   28  C   UNK N   1      27.214  19.066   5.919  0.00  0.00     0.079 A 
HETATM   29  N   UNK N   1      27.955  17.939   6.006  0.00  0.00    -0.330 N 
HETATM   30  C   UNK N   1      28.655  18.052   7.155  0.00  0.00     0.080 A 
HETATM   31  C   UNK N   1      29.623  17.039   7.670  0.00  0.00     0.089 C 
HETATM   32  N   UNK N   1      28.387  19.205   7.799  0.00  0.00    -0.354 N 
HETATM   33  C   UNK N   1      27.484  19.850   7.029  0.00  0.00     0.121 A 
ATOM     34  HN  UNK N   1      28.783  19.523   8.683  1.00  0.00     0.166 HD
BRANCH  29  35
HETATM   35  C   UNK N   1      28.012  16.824   5.060  0.00  0.00     0.083 C 
HETATM   36  C   UNK N   1      28.234  17.327   3.643  0.00  0.00     0.032 C 
HETATM   37  C   UNK N   1      26.736  15.999   5.123  0.00  0.00     0.032 C 
ENDBRANCH  29  35
ENDBRANCH   1  28
TORSDOF 6
ENDMDL
MODEL 2
REMARK VINA RESULT:      -7.5      5.028      8.051
REMARK  6 active torsions:
REMARK  status: ('A' for Active; 'I' for Inactive)
REMARK    1  A    between atoms: C_2  and  N_4 
REMARK    2  A    between atoms: C_10  and  C_11 
REMARK       I    between atoms: C_16  and  N_17 
REMARK    3  A    between atoms: N_17  and  C_18 
REMARK    4  A    between atoms: C_21  and  N_24 
REMARK       I    between atoms: N_27  and  C_30 
REMARK    5  A    between atoms: C_30  and  C_32 
REMARK    6  A    between atoms: C_32  and  O_33 
ROOT
HETATM    1  C   UNK N   1      31.961  16.584   6.255  0.00  0.00     0.078 A 
HETATM    2  C   UNK N   1      32.797  16.373   7.352  0.00  0.00     0.050 A 
HETATM    3  C   UNK N   1      32.377  16.796   8.615  0.00  0.00     0.108 A 
HETATM    4  N   UNK N   1      31.166  17.398   8.767  0.00  0.00    -0.202 N 
ATOM      5  HN  UNK N   1      30.865  17.700   9.694  1.00  0.00     0.183 HD
HETATM    6  C   UNK N   1      30.358  17.604   7.696  0.00  0.00     0.683 A 
HETATM    7  N   UNK N   1      29.056  18.166   7.885  0.00  0.00    -0.192 N 
HETATM    8  N   UNK N   1      30.762  17.187   6.457  0.00  0.00    -0.189 N 
ATOM      9  HN  UNK N   1      30.142  17.336   5.660  1.00  0.00     0.184 HD
HETATM   10  H   UNK N   1      28.763  18.408   8.793  0.00  0.00     0.184 HD
ENDROOT
BRANCH   7  11
HETATM   11  C   UNK N   1      28.179  18.383   6.789  0.00  0.00     0.049 A 
HETATM   12  C   UNK N   1      27.972  19.677   6.287  0.00  0.00     0.032 A 
HETATM   13  C   UNK N   1      26.923  19.914   5.381  0.00  0.00     0.031 A 
HETATM   14  C   UNK N   1      26.075  18.855   4.997  0.00  0.00     0.030 A 
HETATM   15  C   UNK N   1      26.357  17.568   5.444  0.00  0.00     0.031 A 
HETATM   16  C   UNK N   1      27.395  17.335   6.316  0.00  0.00     0.032 A 
BRANCH  14  17
HETATM   17  N   UNK N   1      24.888  19.072   4.248  0.00  0.00    -0.378 N 
HETATM   18  C   UNK N   1      23.923  18.015   4.057  0.00  0.00     0.143 C 
HETATM   19  C   UNK N   1      22.550  18.638   4.233  0.00  0.00     0.145 C 
HETATM   20  N   UNK N   1      22.351  19.586   3.152  0.00  0.00    -0.347 N 
HETATM   21  C   UNK N   1      23.438  20.465   2.748  0.00  0.00     0.145 C 
HETATM   22  C   UNK N   1      21.170  19.604   2.471  0.00  0.00     0.243 C 
HETATM   23  C   UNK N   1      24.648  20.397   3.683  0.00  0.00     0.143 C 
HETATM   24  O   UNK N   1      20.256  18.866   2.811  0.00  0.00    -0.271 OA
BRANCH  22  25
HETATM   25  C   UNK N   1      20.961  20.503   1.285  0.00  0.00     0.267 C 
BRANCH  25  26
HETATM   26  O   UNK N   1      20.596  19.760   0.162  0.00  0.00    -0.392 OA
HETATM   27  H   UNK N   1      20.828  18.893  -0.206  0.00  0.00     0.210 HD
ENDBRANCH  25  26
ENDBRANCH  22  25
ENDBRANCH  14  17
ENDBRANCH   7  11
BRANCH   1  28
HETATM   28  C   UNK N   1      32.380  16.148   4.894  0.00  0.00     0.079 A 
HETATM   29  N   UNK N   1      32.594  14.884   4.466  0.00  0.00    -0.330 N 
HETATM   30  C   UNK N   1      32.948  14.994   3.168  0.00  0.00     0.080 A 
HETATM   31  C   UNK N   1      33.276  13.847   2.270  0.00  0.00     0.089 C 
HETATM   32  N   UNK N   1      32.967  16.277   2.757  0.00  0.00    -0.354 N 
HETATM   33  C   UNK N   1      32.610  17.010   3.833  0.00  0.00     0.121 A 
ATOM     34  HN  UNK N   1      33.202  16.622   1.827  1.00  0.00     0.166 HD
BRANCH  29  35
HETATM   35  C   UNK N   1      32.463  13.642   5.229  0.00  0.00     0.083 C 
HETATM   36  C   UNK N   1      33.781  12.885   5.263  0.00  0.00     0.032 C 
HETATM   37  C   UNK N   1      31.374  12.760   4.639  0.00  0.00     0.032 C 
ENDBRANCH  29  35
ENDBRANCH   1  28
TORSDOF 6
ENDMDL
MODEL 3
REMARK VINA RESULT:      -7.5      4.239      7.893
REMARK  6 active torsions:
REMARK  status: ('A' for Active; 'I' for Inactive)
REMARK    1  A    between atoms: C_2  and  N_4 
REMARK    2  A    between atoms: C_10  and  C_11 
REMARK       I    between atoms: C_16  and  N_17 
REMARK    3  A    between atoms: N_17  and  C_18 
REMARK    4  A    between atoms: C_21  and  N_24 
REMARK       I    between atoms: N_27  and  C_30 
REMARK    5  A    between atoms: C_30  and  C_32 
REMARK    6  A    between atoms: C_32  and  O_33 
ROOT
HETATM    1  C   UNK N   1      22.309  18.690   4.322  0.00  0.00     0.078 A 
HETATM    2  C   UNK N   1      21.508  19.449   3.467  0.00  0.00     0.050 A 
HETATM    3  C   UNK N   1      22.106  20.427   2.670  0.00  0.00     0.108 A 
HETATM    4  N   UNK N   1      23.451  20.627   2.727  0.00  0.00    -0.202 N 
ATOM      5  HN  UNK N   1      23.880  21.341   2.137  1.00  0.00     0.183 HD
HETATM    6  C   UNK N   1      24.224  19.888   3.562  0.00  0.00     0.683 A 
HETATM    7  N   UNK N   1      25.645  20.058   3.551  0.00  0.00    -0.192 N 
HETATM    8  N   UNK N   1      23.646  18.925   4.342  0.00  0.00    -0.189 N 
ATOM      9  HN  UNK N   1      24.237  18.367   4.958  1.00  0.00     0.184 HD
HETATM   10  H   UNK N   1      26.047  20.718   2.942  0.00  0.00     0.184 HD
ENDROOT
BRANCH   7  11
HETATM   11  C   UNK N   1      26.486  19.293   4.402  0.00  0.00     0.049 A 
HETATM   12  C   UNK N   1      26.815  19.758   5.685  0.00  0.00     0.032 A 
HETATM   13  C   UNK N   1      27.839  19.127   6.415  0.00  0.00     0.031 A 
HETATM   14  C   UNK N   1      28.540  18.045   5.846  0.00  0.00     0.030 A 
HETATM   15  C   UNK N   1      28.135  17.551   4.610  0.00  0.00     0.031 A 
HETATM   16  C   UNK N   1      27.121  18.158   3.905  0.00  0.00     0.032 A 
BRANCH  14  17
HETATM   17  N   UNK N   1      29.706  17.500   6.448  0.00  0.00    -0.378 N 
HETATM   18  C   UNK N   1      30.666  16.750   5.673  0.00  0.00     0.143 C 
HETATM   19  C   UNK N   1      32.043  17.200   6.125  0.00  0.00     0.145 C 
HETATM   20  N   UNK N   1      32.212  16.792   7.507  0.00  0.00    -0.347 N 
HETATM   21  C   UNK N   1      31.115  16.948   8.449  0.00  0.00     0.145 C 
HETATM   22  C   UNK N   1      33.374  16.200   7.905  0.00  0.00     0.243 C 
HETATM   23  C   UNK N   1      29.931  17.729   7.874  0.00  0.00     0.143 C 
HETATM   24  O   UNK N   1      34.296  16.069   7.114  0.00  0.00    -0.271 OA
BRANCH  22  25
HETATM   25  C   UNK N   1      33.549  15.676   9.303  0.00  0.00     0.267 C 
BRANCH  25  26
HETATM   26  O   UNK N   1      34.217  16.607  10.098  0.00  0.00    -0.392 OA
HETATM   27  H   UNK N   1      34.857  17.320   9.947  0.00  0.00     0.210 HD
ENDBRANCH  25  26
ENDBRANCH  22  25
ENDBRANCH  14  17
ENDBRANCH   7  11
BRANCH   1  28
HETATM   28  C   UNK N   1      21.702  17.641   5.189  0.00  0.00     0.079 A 
HETATM   29  N   UNK N   1      21.517  16.336   4.890  0.00  0.00    -0.330 N 
HETATM   30  C   UNK N   1      20.944  15.790   5.983  0.00  0.00     0.080 A 
HETATM   31  C   UNK N   1      20.558  14.354   6.121  0.00  0.00     0.089 C 
HETATM   32  N   UNK N   1      20.758  16.697   6.962  0.00  0.00    -0.354 N 
HETATM   33  C   UNK N   1      21.233  17.863   6.473  0.00  0.00     0.121 A 
ATOM     34  HN  UNK N   1      20.345  16.537   7.881  1.00  0.00     0.166 HD
BRANCH  29  35
HETATM   35  C   UNK N   1      21.868  15.638   3.652  0.00  0.00     0.083 C 
HETATM   36  C   UNK N   1      23.355  15.761   3.363  0.00  0.00     0.032 C 
HETATM   37  C   UNK N   1      21.064  16.181   2.481  0.00  0.00     0.032 C 
ENDBRANCH  29  35
ENDBRANCH   1  28
TORSDOF 6
ENDMDL
MODEL 4
REMARK VINA RESULT:      -7.4      3.301      6.918
REMARK  6 active torsions:
REMARK  status: ('A' for Active; 'I' for Inactive)
REMARK    1  A    between atoms: C_2  and  N_4 
REMARK    2  A    between atoms: C_10  and  C_11 
REMARK       I    between atoms: C_16  and  N_17 
REMARK    3  A    between atoms: N_17  and  C_18 
REMARK    4  A    between atoms: C_21  and  N_24 
REMARK       I    between atoms: N_27  and  C_30 
REMARK    5  A    between atoms: C_30  and  C_32 
REMARK    6  A    between atoms: C_32  and  O_33 
ROOT
HETATM    1  C   UNK N   1      21.618  18.563   4.268  0.00  0.00     0.078 A 
HETATM    2  C   UNK N   1      20.492  19.006   3.572  0.00  0.00     0.050 A 
HETATM    3  C   UNK N   1      20.640  20.019   2.621  0.00  0.00     0.108 A 
HETATM    4  N   UNK N   1      21.866  20.555   2.378  0.00  0.00    -0.202 N 
ATOM      5  HN  UNK N   1      21.966  21.290   1.678  1.00  0.00     0.183 HD
HETATM    6  C   UNK N   1      22.957  20.121   3.059  0.00  0.00     0.683 A 
HETATM    7  N   UNK N   1      24.251  20.640   2.734  0.00  0.00    -0.192 N 
HETATM    8  N   UNK N   1      22.821  19.127   3.988  0.00  0.00    -0.189 N 
ATOM      9  HN  UNK N   1      23.649  18.800   4.486  1.00  0.00     0.184 HD
HETATM   10  H   UNK N   1      24.334  21.315   2.023  0.00  0.00     0.184 HD
ENDROOT
BRANCH   7  11
HETATM   11  C   UNK N   1      25.415  20.200   3.417  0.00  0.00     0.049 A 
HETATM   12  C   UNK N   1      25.998  18.960   3.108  0.00  0.00     0.032 A 
HETATM   13  C   UNK N   1      26.987  18.424   3.953  0.00  0.00     0.031 A 
HETATM   14  C   UNK N   1      27.373  19.126   5.113  0.00  0.00     0.030 A 
HETATM   15  C   UNK N   1      26.842  20.391   5.347  0.00  0.00     0.031 A 
HETATM   16  C   UNK N   1      25.888  20.921   4.510  0.00  0.00     0.032 A 
BRANCH  14  17
HETATM   17  N   UNK N   1      28.215  18.547   6.100  0.00  0.00    -0.378 N 
HETATM   18  C   UNK N   1      28.176  18.998   7.472  0.00  0.00     0.143 C 
HETATM   19  C   UNK N   1      28.240  17.756   8.342  0.00  0.00     0.145 C 
HETATM   20  N   UNK N   1      29.539  17.140   8.142  0.00  0.00    -0.347 N 
HETATM   21  C   UNK N   1      30.099  17.048   6.803  0.00  0.00     0.145 C 
HETATM   22  C   UNK N   1      30.263  16.712   9.216  0.00  0.00     0.243 C 
HETATM   23  C   UNK N   1      29.117  17.468   5.707  0.00  0.00     0.143 C 
HETATM   24  O   UNK N   1      29.792  16.790  10.341  0.00  0.00    -0.271 OA
BRANCH  22  25
HETATM   25  C   UNK N   1      31.651  16.160   9.056  0.00  0.00     0.267 C 
BRANCH  25  26
HETATM   26  O   UNK N   1      31.947  15.264  10.084  0.00  0.00    -0.392 OA
HETATM   27  H   UNK N   1      31.436  14.755  10.732  0.00  0.00     0.210 HD
ENDBRANCH  25  26
ENDBRANCH  22  25
ENDBRANCH  14  17
ENDBRANCH   7  11
BRANCH   1  28
HETATM   28  C   UNK N   1      21.496  17.487   5.291  0.00  0.00     0.079 A 
HETATM   29  N   UNK N   1      21.742  16.168   5.129  0.00  0.00    -0.330 N 
HETATM   30  C   UNK N   1      21.499  15.602   6.330  0.00  0.00     0.080 A 
HETATM   31  C   UNK N   1      21.646  14.149   6.637  0.00  0.00     0.089 C 
HETATM   32  N   UNK N   1      21.109  16.510   7.246  0.00  0.00    -0.354 N 
HETATM   33  C   UNK N   1      21.105  17.698   6.604  0.00  0.00     0.121 A 
ATOM     34  HN  UNK N   1      20.866  16.336   8.222  1.00  0.00     0.166 HD
BRANCH  29  35
HETATM   35  C   UNK N   1      22.190  15.479   3.919  0.00  0.00     0.083 C 
HETATM   36  C   UNK N   1      23.599  15.908   3.540  0.00  0.00     0.032 C 
HETATM   37  C   UNK N   1      21.239  15.746   2.763  0.00  0.00     0.032 C 
ENDBRANCH  29  35
ENDBRANCH   1  28
TORSDOF 6
ENDMDL
MODEL 5
REMARK VINA RESULT:      -7.1      4.065      7.865
REMARK  6 active torsions:
REMARK  status: ('A' for Active; 'I' for Inactive)
REMARK    1  A    between atoms: C_2  and  N_4 
REMARK    2  A    between atoms: C_10  and  C_11 
REMARK       I    between atoms: C_16  and  N_17 
REMARK    3  A    between atoms: N_17  and  C_18 
REMARK    4  A    between atoms: C_21  and  N_24 
REMARK       I    between atoms: N_27  and  C_30 
REMARK    5  A    between atoms: C_30  and  C_32 
REMARK    6  A    between atoms: C_32  and  O_33 
ROOT
HETATM    1  C   UNK N   1      23.516  18.259   4.911  0.00  0.00     0.078 A 
HETATM    2  C   UNK N   1      22.736  19.001   4.022  0.00  0.00     0.050 A 
HETATM    3  C   UNK N   1      23.345  19.997   3.256  0.00  0.00     0.108 A 
HETATM    4  N   UNK N   1      24.681  20.230   3.375  0.00  0.00    -0.202 N 
ATOM      5  HN  UNK N   1      25.119  20.956   2.807  1.00  0.00     0.183 HD
HETATM    6  C   UNK N   1      25.434  19.507   4.242  0.00  0.00     0.683 A 
HETATM    7  N   UNK N   1      26.849  19.711   4.297  0.00  0.00    -0.192 N 
HETATM    8  N   UNK N   1      24.844  18.527   4.992  0.00  0.00    -0.189 N 
ATOM      9  HN  UNK N   1      25.421  17.981   5.633  1.00  0.00     0.184 HD
HETATM   10  H   UNK N   1      27.262  20.383   3.708  0.00  0.00     0.184 HD
ENDROOT
BRANCH   7  11
HETATM   11  C   UNK N   1      27.669  18.964   5.183  0.00  0.00     0.049 A 
HETATM   12  C   UNK N   1      27.708  19.275   6.551  0.00  0.00     0.032 A 
HETATM   13  C   UNK N   1      28.702  18.704   7.368  0.00  0.00     0.031 A 
HETATM   14  C   UNK N   1      29.662  17.840   6.804  0.00  0.00     0.030 A 
HETATM   15  C   UNK N   1      29.546  17.483   5.464  0.00  0.00     0.031 A 
HETATM   16  C   UNK N   1      28.563  18.028   4.670  0.00  0.00     0.032 A 
BRANCH  14  17
HETATM   17  N   UNK N   1      30.797  17.395   7.532  0.00  0.00    -0.378 N 
HETATM   18  C   UNK N   1      30.686  16.986   8.912  0.00  0.00     0.143 C 
HETATM   19  C   UNK N   1      31.534  15.737   9.070  0.00  0.00     0.145 C 
HETATM   20  N   UNK N   1      32.919  16.110   8.855  0.00  0.00    -0.347 N 
HETATM   21  C   UNK N   1      33.266  17.022   7.776  0.00  0.00     0.145 C 
HETATM   22  C   UNK N   1      33.885  15.661   9.706  0.00  0.00     0.243 C 
HETATM   23  C   UNK N   1      32.089  17.339   6.851  0.00  0.00     0.143 C 
HETATM   24  O   UNK N   1      33.594  14.895  10.612  0.00  0.00    -0.271 OA
BRANCH  22  25
HETATM   25  C   UNK N   1      35.315  16.104   9.574  0.00  0.00     0.267 C 
BRANCH  25  26
HETATM   26  O   UNK N   1      35.564  17.214  10.382  0.00  0.00    -0.392 OA
HETATM   27  H   UNK N   1      35.144  18.075  10.532  0.00  0.00     0.210 HD
ENDBRANCH  25  26
ENDBRANCH  22  25
ENDBRANCH  14  17
ENDBRANCH   7  11
BRANCH   1  28
HETATM   28  C   UNK N   1      22.897  17.191   5.745  0.00  0.00     0.079 A 
HETATM   29  N   UNK N   1      23.416  15.980   6.046  0.00  0.00    -0.330 N 
HETATM   30  C   UNK N   1      22.497  15.374   6.828  0.00  0.00     0.080 A 
HETATM   31  C   UNK N   1      22.638  14.009   7.414  0.00  0.00     0.089 C 
HETATM   32  N   UNK N   1      21.418  16.154   7.035  0.00  0.00    -0.354 N 
HETATM   33  C   UNK N   1      21.660  17.298   6.360  0.00  0.00     0.121 A 
ATOM     34  HN  UNK N   1      20.590  15.927   7.586  1.00  0.00     0.166 HD
BRANCH  29  35
HETATM   35  C   UNK N   1      24.705  15.426   5.632  0.00  0.00     0.083 C 
HETATM   36  C   UNK N   1      24.523  14.084   4.941  0.00  0.00     0.032 C 
HETATM   37  C   UNK N   1      25.634  15.272   6.826  0.00  0.00     0.032 C 
ENDBRANCH  29  35
ENDBRANCH   1  28
TORSDOF 6
ENDMDL
MODEL 6
REMARK VINA RESULT:      -7.0      4.310      8.454
REMARK  6 active torsions:
REMARK  status: ('A' for Active; 'I' for Inactive)
REMARK    1  A    between atoms: C_2  and  N_4 
REMARK    2  A    between atoms: C_10  and  C_11 
REMARK       I    between atoms: C_16  and  N_17 
REMARK    3  A    between atoms: N_17  and  C_18 
REMARK    4  A    between atoms: C_21  and  N_24 
REMARK       I    between atoms: N_27  and  C_30 
REMARK    5  A    between atoms: C_30  and  C_32 
REMARK    6  A    between atoms: C_32  and  O_33 
ROOT
HETATM    1  C   UNK N   1      21.931  15.270   5.909  0.00  0.00     0.078 A 
HETATM    2  C   UNK N   1      20.837  15.196   5.045  0.00  0.00     0.050 A 
HETATM    3  C   UNK N   1      20.997  15.594   3.716  0.00  0.00     0.108 A 
HETATM    4  N   UNK N   1      22.205  16.039   3.275  0.00  0.00    -0.202 N 
ATOM      5  HN  UNK N   1      22.314  16.323   2.302  1.00  0.00     0.183 HD
HETATM    6  C   UNK N   1      23.264  16.111   4.121  0.00  0.00     0.683 A 
HETATM    7  N   UNK N   1      24.546  16.506   3.622  0.00  0.00    -0.192 N 
HETATM    8  N   UNK N   1      23.116  15.718   5.423  0.00  0.00    -0.189 N 
ATOM      9  HN  UNK N   1      23.921  15.765   6.047  1.00  0.00     0.184 HD
HETATM   10  H   UNK N   1      24.644  16.731   2.669  0.00  0.00     0.184 HD
ENDROOT
BRANCH   7  11
HETATM   11  C   UNK N   1      25.679  16.580   4.475  0.00  0.00     0.049 A 
HETATM   12  C   UNK N   1      26.052  17.800   5.061  0.00  0.00     0.032 A 
HETATM   13  C   UNK N   1      27.305  17.917   5.690  0.00  0.00     0.031 A 
HETATM   14  C   UNK N   1      28.184  16.816   5.712  0.00  0.00     0.030 A 
HETATM   15  C   UNK N   1      27.753  15.596   5.200  0.00  0.00     0.031 A 
HETATM   16  C   UNK N   1      26.520  15.478   4.601  0.00  0.00     0.032 A 
BRANCH  14  17
HETATM   17  N   UNK N   1      29.529  16.933   6.154  0.00  0.00    -0.378 N 
HETATM   18  C   UNK N   1      30.622  16.417   5.362  0.00  0.00     0.143 C 
HETATM   19  C   UNK N   1      31.728  17.455   5.415  0.00  0.00     0.145 C 
HETATM   20  N   UNK N   1      32.203  17.529   6.784  0.00  0.00    -0.347 N 
HETATM   21  C   UNK N   1      31.251  17.511   7.884  0.00  0.00     0.145 C 
HETATM   22  C   UNK N   1      33.542  17.546   7.040  0.00  0.00     0.243 C 
HETATM   23  C   UNK N   1      29.794  17.604   7.424  0.00  0.00     0.143 C 
HETATM   24  O   UNK N   1      34.342  17.563   6.116  0.00  0.00    -0.271 OA
BRANCH  22  25
HETATM   25  C   UNK N   1      34.072  17.525   8.447  0.00  0.00     0.267 C 
BRANCH  25  26
HETATM   26  O   UNK N   1      34.878  18.637   8.687  0.00  0.00    -0.392 OA
HETATM   27  H   UNK N   1      34.868  19.384   9.306  0.00  0.00     0.210 HD
ENDBRANCH  25  26
ENDBRANCH  22  25
ENDBRANCH  14  17
ENDBRANCH   7  11
BRANCH   1  28
HETATM   28  C   UNK N   1      21.795  14.857   7.334  0.00  0.00     0.079 A 
HETATM   29  N   UNK N   1      22.445  13.853   7.963  0.00  0.00    -0.330 N 
HETATM   30  C   UNK N   1      21.997  13.871   9.237  0.00  0.00     0.080 A 
HETATM   31  C   UNK N   1      22.443  12.940  10.315  0.00  0.00     0.089 C 
HETATM   32  N   UNK N   1      21.089  14.846   9.438  0.00  0.00    -0.354 N 
HETATM   33  C   UNK N   1      20.956  15.472   8.249  0.00  0.00     0.121 A 
ATOM     34  HN  UNK N   1      20.603  15.065  10.308  1.00  0.00     0.166 HD
BRANCH  29  35
HETATM   35  C   UNK N   1      23.439  12.936   7.405  0.00  0.00     0.083 C 
HETATM   36  C   UNK N   1      23.043  11.489   7.655  0.00  0.00     0.032 C 
HETATM   37  C   UNK N   1      24.814  13.207   7.996  0.00  0.00     0.032 C 
ENDBRANCH  29  35
ENDBRANCH   1  28
TORSDOF 6
ENDMDL
MODEL 7
REMARK VINA RESULT:      -6.9      5.049      8.050
REMARK  6 active torsions:
REMARK  status: ('A' for Active; 'I' for Inactive)
REMARK    1  A    between atoms: C_2  and  N_4 
REMARK    2  A    between atoms: C_10  and  C_11 
REMARK       I    between atoms: C_16  and  N_17 
REMARK    3  A    between atoms: N_17  and  C_18 
REMARK    4  A    between atoms: C_21  and  N_24 
REMARK       I    between atoms: N_27  and  C_30 
REMARK    5  A    between atoms: C_30  and  C_32 
REMARK    6  A    between atoms: C_32  and  O_33 
ROOT
HETATM    1  C   UNK N   1      31.184  15.002   5.399  0.00  0.00     0.078 A 
HETATM    2  C   UNK N   1      32.148  14.783   6.385  0.00  0.00     0.050 A 
HETATM    3  C   UNK N   1      32.103  15.541   7.556  0.00  0.00     0.108 A 
HETATM    4  N   UNK N   1      31.126  16.473   7.731  0.00  0.00    -0.202 N 
ATOM      5  HN  UNK N   1      31.097  17.019   8.592  1.00  0.00     0.183 HD
HETATM    6  C   UNK N   1      30.193  16.684   6.768  0.00  0.00     0.683 A 
HETATM    7  N   UNK N   1      29.128  17.611   7.000  0.00  0.00    -0.192 N 
HETATM    8  N   UNK N   1      30.229  15.941   5.620  0.00  0.00    -0.189 N 
ATOM      9  HN  UNK N   1      29.517  16.099   4.907  1.00  0.00     0.184 HD
HETATM   10  H   UNK N   1      29.089  18.094   7.857  0.00  0.00     0.184 HD
ENDROOT
BRANCH   7  11
HETATM   11  C   UNK N   1      28.127  17.847   6.021  0.00  0.00     0.049 A 
HETATM   12  C   UNK N   1      28.140  19.025   5.258  0.00  0.00     0.032 A 
HETATM   13  C   UNK N   1      27.018  19.365   4.480  0.00  0.00     0.031 A 
HETATM   14  C   UNK N   1      25.883  18.529   4.486  0.00  0.00     0.030 A 
HETATM   15  C   UNK N   1      25.932  17.326   5.182  0.00  0.00     0.031 A 
HETATM   16  C   UNK N   1      27.037  16.986   5.928  0.00  0.00     0.032 A 
BRANCH  14  17
HETATM   17  N   UNK N   1      24.657  18.918   3.883  0.00  0.00    -0.378 N 
HETATM   18  C   UNK N   1      23.547  17.999   3.788  0.00  0.00     0.143 C 
HETATM   19  C   UNK N   1      22.295  18.785   4.133  0.00  0.00     0.145 C 
HETATM   20  N   UNK N   1      22.100  19.784   3.098  0.00  0.00    -0.347 N 
HETATM   21  C   UNK N   1      23.238  20.530   2.585  0.00  0.00     0.145 C 
HETATM   22  C   UNK N   1      20.861  19.973   2.559  0.00  0.00     0.243 C 
HETATM   23  C   UNK N   1      24.528  20.280   3.371  0.00  0.00     0.143 C 
HETATM   24  O   UNK N   1      19.905  19.346   2.991  0.00  0.00    -0.271 OA
BRANCH  22  25
HETATM   25  C   UNK N   1      20.639  20.927   1.420  0.00  0.00     0.267 C 
BRANCH  25  26
HETATM   26  O   UNK N   1      20.675  20.254   0.199  0.00  0.00    -0.392 OA
HETATM   27  H   UNK N   1      20.390  20.442  -0.709  0.00  0.00     0.210 HD
ENDBRANCH  25  26
ENDBRANCH  22  25
ENDBRANCH  14  17
ENDBRANCH   7  11
BRANCH   1  28
HETATM   28  C   UNK N   1      31.206  14.213   4.136  0.00  0.00     0.079 A 
HETATM   29  N   UNK N   1      30.150  13.858   3.372  0.00  0.00    -0.330 N 
HETATM   30  C   UNK N   1      30.667  13.163   2.336  0.00  0.00     0.080 A 
HETATM   31  C   UNK N   1      29.872  12.571   1.220  0.00  0.00     0.089 C 
HETATM   32  N   UNK N   1      32.008  13.063   2.415  0.00  0.00    -0.354 N 
HETATM   33  C   UNK N   1      32.357  13.722   3.541  0.00  0.00     0.121 A 
ATOM     34  HN  UNK N   1      32.630  12.590   1.760  1.00  0.00     0.166 HD
BRANCH  29  35
HETATM   35  C   UNK N   1      28.736  14.163   3.594  0.00  0.00     0.083 C 
HETATM   36  C   UNK N   1      27.931  12.889   3.792  0.00  0.00     0.032 C 
HETATM   37  C   UNK N   1      28.167  14.959   2.430  0.00  0.00     0.032 C 
ENDBRANCH  29  35
ENDBRANCH   1  28
TORSDOF 6
ENDMDL
MODEL 8
REMARK VINA RESULT:      -6.9      3.571      7.365
REMARK  6 active torsions:
REMARK  status: ('A' for Active; 'I' for Inactive)
REMARK    1  A    between atoms: C_2  and  N_4 
REMARK    2  A    between atoms: C_10  and  C_11 
REMARK       I    between atoms: C_16  and  N_17 
REMARK    3  A    between atoms: N_17  and  C_18 
REMARK    4  A    between atoms: C_21  and  N_24 
REMARK       I    between atoms: N_27  and  C_30 
REMARK    5  A    between atoms: C_30  and  C_32 
REMARK    6  A    between atoms: C_32  and  O_33 
ROOT
HETATM    1  C   UNK N   1      22.879  17.142   5.464  0.00  0.00     0.078 A 
HETATM    2  C   UNK N   1      21.624  17.532   4.991  0.00  0.00     0.050 A 
HETATM    3  C   UNK N   1      21.527  18.672   4.191  0.00  0.00     0.108 A 
HETATM    4  N   UNK N   1      22.644  19.383   3.874  0.00  0.00    -0.202 N 
ATOM      5  HN  UNK N   1      22.564  20.211   3.284  1.00  0.00     0.183 HD
HETATM    6  C   UNK N   1      23.860  19.000   4.338  0.00  0.00     0.683 A 
HETATM    7  N   UNK N   1      25.033  19.713   3.932  0.00  0.00    -0.192 N 
HETATM    8  N   UNK N   1      23.963  17.882   5.119  0.00  0.00    -0.189 N 
ATOM      9  HN  UNK N   1      24.884  17.596   5.454  1.00  0.00     0.184 HD
HETATM   10  H   UNK N   1      24.943  20.482   3.324  0.00  0.00     0.184 HD
ENDROOT
BRANCH   7  11
HETATM   11  C   UNK N   1      26.323  19.333   4.388  0.00  0.00     0.049 A 
HETATM   12  C   UNK N   1      27.079  18.385   3.680  0.00  0.00     0.032 A 
HETATM   13  C   UNK N   1      28.231  17.832   4.268  0.00  0.00     0.031 A 
HETATM   14  C   UNK N   1      28.609  18.220   5.569  0.00  0.00     0.030 A 
HETATM   15  C   UNK N   1      27.891  19.224   6.211  0.00  0.00     0.031 A 
HETATM   16  C   UNK N   1      26.774  19.776   5.628  0.00  0.00     0.032 A 
BRANCH  14  17
HETATM   17  N   UNK N   1      29.640  17.555   6.285  0.00  0.00    -0.378 N 
HETATM   18  C   UNK N   1      30.639  16.770   5.599  0.00  0.00     0.143 C 
HETATM   19  C   UNK N   1      31.972  17.086   6.253  0.00  0.00     0.145 C 
HETATM   20  N   UNK N   1      31.922  16.598   7.619  0.00  0.00    -0.347 N 
HETATM   21  C   UNK N   1      30.722  16.794   8.417  0.00  0.00     0.145 C 
HETATM   22  C   UNK N   1      32.974  15.895   8.129  0.00  0.00     0.243 C 
HETATM   23  C   UNK N   1      29.686  17.694   7.738  0.00  0.00     0.143 C 
HETATM   24  O   UNK N   1      33.982  15.731   7.459  0.00  0.00    -0.271 OA
BRANCH  22  25
HETATM   25  C   UNK N   1      32.920  15.290   9.504  0.00  0.00     0.267 C 
BRANCH  25  26
HETATM   26  O   UNK N   1      32.534  13.951   9.439  0.00  0.00    -0.392 OA
HETATM   27  H   UNK N   1      32.379  13.305   8.733  0.00  0.00     0.210 HD
ENDBRANCH  25  26
ENDBRANCH  22  25
ENDBRANCH  14  17
ENDBRANCH   7  11
BRANCH   1  28
HETATM   28  C   UNK N   1      23.017  15.933   6.323  0.00  0.00     0.079 A 
HETATM   29  N   UNK N   1      24.121  15.174   6.501  0.00  0.00    -0.330 N 
HETATM   30  C   UNK N   1      23.761  14.204   7.367  0.00  0.00     0.080 A 
HETATM   31  C   UNK N   1      24.663  13.127   7.870  0.00  0.00     0.089 C 
HETATM   32  N   UNK N   1      22.472  14.318   7.744  0.00  0.00    -0.354 N 
HETATM   33  C   UNK N   1      21.996  15.402   7.095  0.00  0.00     0.121 A 
ATOM     34  HN  UNK N   1      21.962  13.711   8.386  1.00  0.00     0.166 HD
BRANCH  29  35
HETATM   35  C   UNK N   1      25.444  15.356   5.901  0.00  0.00     0.083 C 
HETATM   36  C   UNK N   1      25.853  14.126   5.107  0.00  0.00     0.032 C 
HETATM   37  C   UNK N   1      26.484  15.653   6.970  0.00  0.00     0.032 C 
ENDBRANCH  29  35
ENDBRANCH   1  28
TORSDOF 6
ENDMDL
MODEL 9
REMARK VINA RESULT:      -6.8      4.655      8.852
REMARK  6 active torsions:
REMARK  status: ('A' for Active; 'I' for Inactive)
REMARK    1  A    between atoms: C_2  and  N_4 
REMARK    2  A    between atoms: C_10  and  C_11 
REMARK       I    between atoms: C_16  and  N_17 
REMARK    3  A    between atoms: N_17  and  C_18 
REMARK    4  A    between atoms: C_21  and  N_24 
REMARK       I    between atoms: N_27  and  C_30 
REMARK    5  A    between atoms: C_30  and  C_32 
REMARK    6  A    between atoms: C_32  and  O_33 
ROOT
HETATM    1  C   UNK N   1      24.044  15.974   5.779  0.00  0.00     0.078 A 
HETATM    2  C   UNK N   1      23.077  16.430   4.881  0.00  0.00     0.050 A 
HETATM    3  C   UNK N   1      23.429  17.407   3.947  0.00  0.00     0.108 A 
HETATM    4  N   UNK N   1      24.697  17.898   3.914  0.00  0.00    -0.202 N 
ATOM      5  HN  UNK N   1      24.947  18.607   3.224  1.00  0.00     0.183 HD
HETATM    6  C   UNK N   1      25.633  17.452   4.790  0.00  0.00     0.683 A 
HETATM    7  N   UNK N   1      26.981  17.920   4.690  0.00  0.00    -0.192 N 
HETATM    8  N   UNK N   1      25.297  16.492   5.705  0.00  0.00    -0.189 N 
ATOM      9  HN  UNK N   1      26.010  16.155   6.352  1.00  0.00     0.184 HD
HETATM   10  H   UNK N   1      27.215  18.570   3.989  0.00  0.00     0.184 HD
ENDROOT
BRANCH   7  11
HETATM   11  C   UNK N   1      27.989  17.466   5.583  0.00  0.00     0.049 A 
HETATM   12  C   UNK N   1      28.237  18.148   6.784  0.00  0.00     0.032 A 
HETATM   13  C   UNK N   1      29.391  17.848   7.531  0.00  0.00     0.031 A 
HETATM   14  C   UNK N   1      30.298  16.878   7.059  0.00  0.00     0.030 A 
HETATM   15  C   UNK N   1      29.983  16.158   5.911  0.00  0.00     0.031 A 
HETATM   16  C   UNK N   1      28.845  16.440   5.191  0.00  0.00     0.032 A 
BRANCH  14  17
HETATM   17  N   UNK N   1      31.568  16.676   7.662  0.00  0.00    -0.378 N 
HETATM   18  C   UNK N   1      32.567  17.719   7.667  0.00  0.00     0.143 C 
HETATM   19  C   UNK N   1      33.196  17.717   9.049  0.00  0.00     0.145 C 
HETATM   20  N   UNK N   1      33.904  16.461   9.213  0.00  0.00    -0.347 N 
HETATM   21  C   UNK N   1      33.298  15.221   8.752  0.00  0.00     0.145 C 
HETATM   22  C   UNK N   1      35.164  16.453   9.734  0.00  0.00     0.243 C 
HETATM   23  C   UNK N   1      31.845  15.391   8.299  0.00  0.00     0.143 C 
HETATM   24  O   UNK N   1      35.673  17.494  10.121  0.00  0.00    -0.271 OA
BRANCH  22  25
HETATM   25  C   UNK N   1      35.965  15.184   9.829  0.00  0.00     0.267 C 
BRANCH  25  26
HETATM   26  O   UNK N   1      37.169  15.411  10.495  0.00  0.00    -0.392 OA
HETATM   27  H   UNK N   1      37.773  16.162  10.607  0.00  0.00     0.210 HD
ENDBRANCH  25  26
ENDBRANCH  22  25
ENDBRANCH  14  17
ENDBRANCH   7  11
BRANCH   1  28
HETATM   28  C   UNK N   1      23.703  14.936   6.790  0.00  0.00     0.079 A 
HETATM   29  N   UNK N   1      22.515  14.750   7.407  0.00  0.00    -0.330 N 
HETATM   30  C   UNK N   1      22.691  13.691   8.225  0.00  0.00     0.080 A 
HETATM   31  C   UNK N   1      21.639  13.109   9.110  0.00  0.00     0.089 C 
HETATM   32  N   UNK N   1      23.943  13.200   8.152  0.00  0.00    -0.354 N 
HETATM   33  C   UNK N   1      24.587  13.974   7.252  0.00  0.00     0.121 A 
ATOM     34  HN  UNK N   1      24.326  12.408   8.669  1.00  0.00     0.166 HD
BRANCH  29  35
HETATM   35  C   UNK N   1      21.280  15.515   7.229  0.00  0.00     0.083 C 
HETATM   36  C   UNK N   1      20.747  16.003   8.567  0.00  0.00     0.032 C 
HETATM   37  C   UNK N   1      20.224  14.677   6.525  0.00  0.00     0.032 C 
ENDBRANCH  29  35
ENDBRANCH   1  28
TORSDOF 6
ENDMDL
