MODEL 1
REMARK VINA RESULT:      -7.3      0.000      0.000
REMARK  5 active torsions:
REMARK  status: ('A' for Active; 'I' for Inactive)
REMARK       I    between atoms: N_1  and  C_10 
REMARK    1  A    between atoms: C_3  and  C_18 
REMARK    2  A    between atoms: C_6  and  O_22 
REMARK    3  A    between atoms: C_10  and  C_11 
REMARK    4  A    between atoms: C_18  and  C_19 
REMARK    5  A    between atoms: C_19  and  O_24 
ROOT
HETATM    1  N   UNK N   1      28.660  22.478  -6.341  0.00  0.00    -0.281 N 
HETATM    2  C   UNK N   1      29.895  22.481  -5.733  0.00  0.00     0.024 A 
HETATM    3  C   UNK N   1      29.880  23.309  -4.616  0.00  0.00    -0.013 A 
HETATM    4  C   UNK N   1      28.621  23.843  -4.548  0.00  0.00     0.003 A 
HETATM    5  C   UNK N   1      28.081  24.757  -3.646  0.00  0.00     0.051 A 
HETATM    6  C   UNK N   1      26.750  25.169  -3.832  0.00  0.00     0.069 A 
HETATM    7  C   UNK N   1      25.997  24.642  -4.914  0.00  0.00     0.039 A 
HETATM    8  C   UNK N   1      26.570  23.718  -5.805  0.00  0.00     0.034 A 
HETATM    9  C   UNK N   1      27.902  23.337  -5.602  0.00  0.00     0.053 A 
HETATM   10  C   UNK N   1      28.208  21.819  -7.491  0.00  0.00     0.263 C 
HETATM   11  C   UNK N   1      31.146  21.823  -6.207  0.00  0.00     0.069 C 
HETATM   12  O   UNK N   1      27.122  22.133  -7.962  0.00  0.00    -0.267 OA
ENDROOT
BRANCH  10  13
HETATM   13  C   UNK N   1      28.949  20.729  -8.198  0.00  0.00     0.033 A 
HETATM   14  C   UNK N   1      29.465  20.972  -9.484  0.00  0.00     0.018 A 
HETATM   15  C   UNK N   1      30.128  19.963 -10.190  0.00  0.00     0.019 A 
HETATM   16  C   UNK N   1      30.254  18.689  -9.632  0.00  0.00     0.006 A 
HETATM   17  C   UNK N   1      29.702  18.421  -8.380  0.00  0.00     0.019 A 
HETATM   18  I   UNK N   1      31.273  17.170 -10.671  0.00  0.00    -0.045 I 
HETATM   19  C   UNK N   1      29.046  19.433  -7.678  0.00  0.00     0.018 A 
ENDBRANCH  10  13
BRANCH   3  20
HETATM   20  C   UNK N   1      31.024  23.625  -3.692  0.00  0.00     0.151 C 
BRANCH  20  21
HETATM   21  C   UNK N   1      31.089  22.765  -2.458  0.00  0.00     0.143 C 
HETATM   22  O   UNK N   1      31.867  21.827  -2.379  0.00  0.00    -0.650 OA
BRANCH  21  23
HETATM   23  O   UNK N   1      30.280  23.044  -1.420  0.00  0.00    -0.776 OA
HETATM   24  H   UNK N   1      29.621  22.434  -1.153  0.00  0.00     0.167 HD
ENDBRANCH  21  23
ENDBRANCH  20  21
ENDBRANCH   3  20
BRANCH   6  25
HETATM   25  O   UNK N   1      26.221  26.073  -2.973  0.00  0.00    -0.356 OA
HETATM   26  C   UNK N   1      25.951  27.376  -3.323  0.00  0.00     0.210 C 
ENDBRANCH   6  25
TORSDOF 5
ENDMDL
MODEL 2
REMARK VINA RESULT:      -7.1     11.601     13.463
REMARK  5 active torsions:
REMARK  status: ('A' for Active; 'I' for Inactive)
REMARK       I    between atoms: N_1  and  C_10 
REMARK    1  A    between atoms: C_3  and  C_18 
REMARK    2  A    between atoms: C_6  and  O_22 
REMARK    3  A    between atoms: C_10  and  C_11 
REMARK    4  A    between atoms: C_18  and  C_19 
REMARK    5  A    between atoms: C_19  and  O_24 
ROOT
HETATM    1  N   UNK N   1      29.847  16.054   4.802  0.00  0.00    -0.281 N 
HETATM    2  C   UNK N   1      29.054  16.217   5.915  0.00  0.00     0.024 A 
HETATM    3  C   UNK N   1      29.780  16.811   6.942  0.00  0.00    -0.013 A 
HETATM    4  C   UNK N   1      31.049  16.996   6.460  0.00  0.00     0.003 A 
HETATM    5  C   UNK N   1      32.179  17.519   7.085  0.00  0.00     0.051 A 
HETATM    6  C   UNK N   1      33.381  17.563   6.359  0.00  0.00     0.069 A 
HETATM    7  C   UNK N   1      33.411  17.087   5.021  0.00  0.00     0.039 A 
HETATM    8  C   UNK N   1      32.251  16.568   4.418  0.00  0.00     0.034 A 
HETATM    9  C   UNK N   1      31.072  16.525   5.172  0.00  0.00     0.053 A 
HETATM   10  C   UNK N   1      29.564  15.493   3.552  0.00  0.00     0.263 C 
HETATM   11  C   UNK N   1      27.655  15.743   6.116  0.00  0.00     0.069 C 
HETATM   12  O   UNK N   1      30.490  15.265   2.784  0.00  0.00    -0.267 OA
ENDROOT
BRANCH  10  13
HETATM   13  C   UNK N   1      28.193  15.155   3.057  0.00  0.00     0.033 A 
HETATM   14  C   UNK N   1      27.855  13.807   2.839  0.00  0.00     0.018 A 
HETATM   15  C   UNK N   1      26.596  13.459   2.339  0.00  0.00     0.019 A 
HETATM   16  C   UNK N   1      25.672  14.456   2.021  0.00  0.00     0.006 A 
HETATM   17  C   UNK N   1      26.013  15.797   2.183  0.00  0.00     0.019 A 
HETATM   18  I   UNK N   1      23.766  13.944   1.294  0.00  0.00    -0.045 I 
HETATM   19  C   UNK N   1      27.269  16.140   2.687  0.00  0.00     0.018 A 
ENDBRANCH  10  13
BRANCH   3  20
HETATM   20  C   UNK N   1      29.309  17.132   8.333  0.00  0.00     0.151 C 
BRANCH  20  21
HETATM   21  C   UNK N   1      28.349  18.289   8.420  0.00  0.00     0.143 C 
HETATM   22  O   UNK N   1      28.379  19.199   7.606  0.00  0.00    -0.650 OA
BRANCH  21  23
HETATM   23  O   UNK N   1      27.438  18.313   9.408  0.00  0.00    -0.776 OA
HETATM   24  H   UNK N   1      27.339  17.580   9.983  0.00  0.00     0.167 HD
ENDBRANCH  21  23
ENDBRANCH  20  21
ENDBRANCH   3  20
BRANCH   6  25
HETATM   25  O   UNK N   1      34.491  18.050   6.962  0.00  0.00    -0.356 OA
HETATM   26  C   UNK N   1      34.562  18.309   8.313  0.00  0.00     0.210 C 
ENDBRANCH   6  25
TORSDOF 5
ENDMDL
MODEL 3
REMARK VINA RESULT:      -6.8      3.680      6.933
REMARK  5 active torsions:
REMARK  status: ('A' for Active; 'I' for Inactive)
REMARK       I    between atoms: N_1  and  C_10 
REMARK    1  A    between atoms: C_3  and  C_18 
REMARK    2  A    between atoms: C_6  and  O_22 
REMARK    3  A    between atoms: C_10  and  C_11 
REMARK    4  A    between atoms: C_18  and  C_19 
REMARK    5  A    between atoms: C_19  and  O_24 
ROOT
HETATM    1  N   UNK N   1      28.159  24.193  -5.752  0.00  0.00    -0.281 N 
HETATM    2  C   UNK N   1      29.270  24.294  -4.945  0.00  0.00     0.024 A 
HETATM    3  C   UNK N   1      30.081  23.174  -5.100  0.00  0.00    -0.013 A 
HETATM    4  C   UNK N   1      29.447  22.361  -6.000  0.00  0.00     0.003 A 
HETATM    5  C   UNK N   1      29.808  21.104  -6.483  0.00  0.00     0.051 A 
HETATM    6  C   UNK N   1      28.943  20.466  -7.389  0.00  0.00     0.069 A 
HETATM    7  C   UNK N   1      27.745  21.113  -7.790  0.00  0.00     0.039 A 
HETATM    8  C   UNK N   1      27.411  22.382  -7.286  0.00  0.00     0.034 A 
HETATM    9  C   UNK N   1      28.286  22.987  -6.375  0.00  0.00     0.053 A 
HETATM   10  C   UNK N   1      27.069  25.055  -5.919  0.00  0.00     0.263 C 
HETATM   11  C   UNK N   1      29.572  25.349  -3.936  0.00  0.00     0.069 C 
HETATM   12  O   UNK N   1      26.091  24.656  -6.539  0.00  0.00    -0.267 OA
ENDROOT
BRANCH  10  13
HETATM   13  C   UNK N   1      27.003  26.458  -5.405  0.00  0.00     0.033 A 
HETATM   14  C   UNK N   1      26.282  26.725  -4.227  0.00  0.00     0.018 A 
HETATM   15  C   UNK N   1      26.166  28.031  -3.741  0.00  0.00     0.019 A 
HETATM   16  C   UNK N   1      26.741  29.091  -4.445  0.00  0.00     0.006 A 
HETATM   17  C   UNK N   1      27.414  28.847  -5.641  0.00  0.00     0.019 A 
HETATM   18  I   UNK N   1      26.598  31.056  -3.710  0.00  0.00    -0.045 I 
HETATM   19  C   UNK N   1      27.531  27.541  -6.119  0.00  0.00     0.018 A 
ENDBRANCH  10  13
BRANCH   3  20
HETATM   20  C   UNK N   1      31.365  22.865  -4.382  0.00  0.00     0.151 C 
BRANCH  20  21
HETATM   21  C   UNK N   1      31.204  22.036  -3.136  0.00  0.00     0.143 C 
HETATM   22  O   UNK N   1      31.055  22.558  -2.041  0.00  0.00    -0.650 OA
BRANCH  21  23
HETATM   23  O   UNK N   1      31.217  20.694  -3.234  0.00  0.00    -0.776 OA
HETATM   24  H   UNK N   1      31.910  20.257  -3.687  0.00  0.00     0.167 HD
ENDBRANCH  21  23
ENDBRANCH  20  21
ENDBRANCH   3  20
BRANCH   6  25
HETATM   25  O   UNK N   1      29.273  19.236  -7.849  0.00  0.00    -0.356 OA
HETATM   26  C   UNK N   1      30.186  19.029  -8.859  0.00  0.00     0.210 C 
ENDBRANCH   6  25
TORSDOF 5
ENDMDL
MODEL 4
REMARK VINA RESULT:      -6.5     11.059     13.129
REMARK  5 active torsions:
REMARK  status: ('A' for Active; 'I' for Inactive)
REMARK       I    between atoms: N_1  and  C_10 
REMARK    1  A    between atoms: C_3  and  C_18 
REMARK    2  A    between atoms: C_6  and  O_22 
REMARK    3  A    between atoms: C_10  and  C_11 
REMARK    4  A    between atoms: C_18  and  C_19 
REMARK    5  A    between atoms: C_19  and  O_24 
ROOT
HETATM    1  N   UNK N   1      26.464  18.242   4.807  0.00  0.00    -0.281 N 
HETATM    2  C   UNK N   1      25.761  17.127   5.202  0.00  0.00     0.024 A 
HETATM    3  C   UNK N   1      24.441  17.213   4.770  0.00  0.00    -0.013 A 
HETATM    4  C   UNK N   1      24.326  18.411   4.118  0.00  0.00     0.003 A 
HETATM    5  C   UNK N   1      23.215  19.005   3.523  0.00  0.00     0.051 A 
HETATM    6  C   UNK N   1      23.369  20.277   2.945  0.00  0.00     0.069 A 
HETATM    7  C   UNK N   1      24.639  20.911   2.974  0.00  0.00     0.039 A 
HETATM    8  C   UNK N   1      25.742  20.283   3.580  0.00  0.00     0.034 A 
HETATM    9  C   UNK N   1      25.553  19.022   4.158  0.00  0.00     0.053 A 
HETATM   10  C   UNK N   1      27.799  18.606   5.024  0.00  0.00     0.263 C 
HETATM   11  C   UNK N   1      26.232  16.011   6.071  0.00  0.00     0.069 C 
HETATM   12  O   UNK N   1      28.150  19.748   4.756  0.00  0.00    -0.267 OA
ENDROOT
BRANCH  10  13
HETATM   13  C   UNK N   1      28.858  17.692   5.553  0.00  0.00     0.033 A 
HETATM   14  C   UNK N   1      29.235  17.788   6.905  0.00  0.00     0.018 A 
HETATM   15  C   UNK N   1      30.251  16.976   7.422  0.00  0.00     0.019 A 
HETATM   16  C   UNK N   1      30.923  16.083   6.586  0.00  0.00     0.006 A 
HETATM   17  C   UNK N   1      30.594  16.015   5.233  0.00  0.00     0.019 A 
HETATM   18  I   UNK N   1      32.433  14.837   7.357  0.00  0.00    -0.045 I 
HETATM   19  C   UNK N   1      29.577  16.823   4.723  0.00  0.00     0.018 A 
ENDBRANCH  10  13
BRANCH   3  20
HETATM   20  C   UNK N   1      23.330  16.231   5.018  0.00  0.00     0.151 C 
BRANCH  20  21
HETATM   21  C   UNK N   1      22.578  16.444   6.305  0.00  0.00     0.143 C 
HETATM   22  O   UNK N   1      22.393  15.527   7.090  0.00  0.00    -0.650 OA
BRANCH  21  23
HETATM   23  O   UNK N   1      22.111  17.672   6.597  0.00  0.00    -0.776 OA
HETATM   24  H   UNK N   1      21.636  18.164   5.958  0.00  0.00     0.167 HD
ENDBRANCH  21  23
ENDBRANCH  20  21
ENDBRANCH   3  20
BRANCH   6  25
HETATM   25  O   UNK N   1      22.292  20.873   2.382  0.00  0.00    -0.356 OA
HETATM   26  C   UNK N   1      20.997  20.611   2.769  0.00  0.00     0.210 C 
ENDBRANCH   6  25
TORSDOF 5
ENDMDL
MODEL 5
REMARK VINA RESULT:      -6.4     11.297     14.081
REMARK  5 active torsions:
REMARK  status: ('A' for Active; 'I' for Inactive)
REMARK       I    between atoms: N_1  and  C_10 
REMARK    1  A    between atoms: C_3  and  C_18 
REMARK    2  A    between atoms: C_6  and  O_22 
REMARK    3  A    between atoms: C_10  and  C_11 
REMARK    4  A    between atoms: C_18  and  C_19 
REMARK    5  A    between atoms: C_19  and  O_24 
ROOT
HETATM    1  N   UNK N   1      29.540  17.825   6.579  0.00  0.00    -0.281 N 
HETATM    2  C   UNK N   1      29.894  17.002   5.534  0.00  0.00     0.024 A 
HETATM    3  C   UNK N   1      29.103  17.268   4.422  0.00  0.00    -0.013 A 
HETATM    4  C   UNK N   1      28.232  18.257   4.796  0.00  0.00     0.003 A 
HETATM    5  C   UNK N   1      27.207  18.868   4.077  0.00  0.00     0.051 A 
HETATM    6  C   UNK N   1      26.431  19.845   4.725  0.00  0.00     0.069 A 
HETATM    7  C   UNK N   1      26.714  20.185   6.074  0.00  0.00     0.039 A 
HETATM    8  C   UNK N   1      27.758  19.551   6.770  0.00  0.00     0.034 A 
HETATM    9  C   UNK N   1      28.505  18.573   6.102  0.00  0.00     0.053 A 
HETATM   10  C   UNK N   1      30.036  17.909   7.886  0.00  0.00     0.263 C 
HETATM   11  C   UNK N   1      30.879  15.883   5.548  0.00  0.00     0.069 C 
HETATM   12  O   UNK N   1      29.422  18.578   8.708  0.00  0.00    -0.267 OA
ENDROOT
BRANCH  10  13
HETATM   13  C   UNK N   1      31.288  17.248   8.369  0.00  0.00     0.033 A 
HETATM   14  C   UNK N   1      32.522  17.895   8.180  0.00  0.00     0.018 A 
HETATM   15  C   UNK N   1      33.716  17.288   8.584  0.00  0.00     0.019 A 
HETATM   16  C   UNK N   1      33.692  16.012   9.151  0.00  0.00     0.006 A 
HETATM   17  C   UNK N   1      32.480  15.339   9.297  0.00  0.00     0.019 A 
HETATM   18  I   UNK N   1      35.476  15.099   9.787  0.00  0.00    -0.045 I 
HETATM   19  C   UNK N   1      31.291  15.951   8.897  0.00  0.00     0.018 A 
ENDBRANCH  10  13
BRANCH   3  20
HETATM   20  C   UNK N   1      29.133  16.575   3.088  0.00  0.00     0.151 C 
BRANCH  20  21
HETATM   21  C   UNK N   1      28.126  15.466   2.934  0.00  0.00     0.143 C 
HETATM   22  O   UNK N   1      27.137  15.601   2.230  0.00  0.00    -0.650 OA
BRANCH  21  23
HETATM   23  O   UNK N   1      28.327  14.303   3.579  0.00  0.00    -0.776 OA
HETATM   24  H   UNK N   1      27.950  13.509   3.257  0.00  0.00     0.167 HD
ENDBRANCH  21  23
ENDBRANCH  20  21
ENDBRANCH   3  20
BRANCH   6  25
HETATM   25  O   UNK N   1      25.418  20.431   4.043  0.00  0.00    -0.356 OA
HETATM   26  C   UNK N   1      25.323  20.411   2.670  0.00  0.00     0.210 C 
ENDBRANCH   6  25
TORSDOF 5
ENDMDL
MODEL 6
REMARK VINA RESULT:      -6.2     16.159     19.465
REMARK  5 active torsions:
REMARK  status: ('A' for Active; 'I' for Inactive)
REMARK       I    between atoms: N_1  and  C_10 
REMARK    1  A    between atoms: C_3  and  C_18 
REMARK    2  A    between atoms: C_6  and  O_22 
REMARK    3  A    between atoms: C_10  and  C_11 
REMARK    4  A    between atoms: C_18  and  C_19 
REMARK    5  A    between atoms: C_19  and  O_24 
ROOT
HETATM    1  N   UNK N   1      34.629  14.769  10.001  0.00  0.00    -0.281 N 
HETATM    2  C   UNK N   1      34.345  13.560   9.408  0.00  0.00     0.024 A 
HETATM    3  C   UNK N   1      34.707  12.514  10.251  0.00  0.00    -0.013 A 
HETATM    4  C   UNK N   1      35.244  13.091  11.372  0.00  0.00     0.003 A 
HETATM    5  C   UNK N   1      35.793  12.501  12.509  0.00  0.00     0.051 A 
HETATM    6  C   UNK N   1      36.312  13.340  13.509  0.00  0.00     0.069 A 
HETATM    7  C   UNK N   1      36.257  14.749  13.341  0.00  0.00     0.039 A 
HETATM    8  C   UNK N   1      35.694  15.313  12.183  0.00  0.00     0.034 A 
HETATM    9  C   UNK N   1      35.197  14.450  11.198  0.00  0.00     0.053 A 
HETATM   10  C   UNK N   1      34.459  16.078   9.533  0.00  0.00     0.263 C 
HETATM   11  C   UNK N   1      33.841  13.316   8.027  0.00  0.00     0.069 C 
HETATM   12  O   UNK N   1      34.980  16.998  10.153  0.00  0.00    -0.267 OA
ENDROOT
BRANCH  10  13
HETATM   13  C   UNK N   1      33.666  16.458   8.323  0.00  0.00     0.033 A 
HETATM   14  C   UNK N   1      32.262  16.399   8.376  0.00  0.00     0.018 A 
HETATM   15  C   UNK N   1      31.492  16.708   7.251  0.00  0.00     0.019 A 
HETATM   16  C   UNK N   1      32.117  17.049   6.049  0.00  0.00     0.006 A 
HETATM   17  C   UNK N   1      33.508  17.061   5.969  0.00  0.00     0.019 A 
HETATM   18  I   UNK N   1      30.970  17.543   4.357  0.00  0.00    -0.045 I 
HETATM   19  C   UNK N   1      34.273  16.756   7.096  0.00  0.00     0.018 A 
ENDBRANCH  10  13
BRANCH   3  20
HETATM   20  C   UNK N   1      34.604  11.039   9.980  0.00  0.00     0.151 C 
BRANCH  20  21
HETATM   21  C   UNK N   1      33.294  10.417  10.384  0.00  0.00     0.143 C 
HETATM   22  O   UNK N   1      33.232   9.604  11.293  0.00  0.00    -0.650 OA
BRANCH  21  23
HETATM   23  O   UNK N   1      32.171  10.772   9.734  0.00  0.00    -0.776 OA
HETATM   24  H   UNK N   1      31.752  10.175   9.146  0.00  0.00     0.167 HD
ENDBRANCH  21  23
ENDBRANCH  20  21
ENDBRANCH   3  20
BRANCH   6  25
HETATM   25  O   UNK N   1      36.866  12.779  14.610  0.00  0.00    -0.356 OA
HETATM   26  C   UNK N   1      36.153  12.501  15.754  0.00  0.00     0.210 C 
ENDBRANCH   6  25
TORSDOF 5
ENDMDL
MODEL 7
REMARK VINA RESULT:      -6.2     12.268     14.904
REMARK  5 active torsions:
REMARK  status: ('A' for Active; 'I' for Inactive)
REMARK       I    between atoms: N_1  and  C_10 
REMARK    1  A    between atoms: C_3  and  C_18 
REMARK    2  A    between atoms: C_6  and  O_22 
REMARK    3  A    between atoms: C_10  and  C_11 
REMARK    4  A    between atoms: C_18  and  C_19 
REMARK    5  A    between atoms: C_19  and  O_24 
ROOT
HETATM    1  N   UNK N   1      31.549  16.109   6.284  0.00  0.00    -0.281 N 
HETATM    2  C   UNK N   1      31.408  16.713   7.513  0.00  0.00     0.024 A 
HETATM    3  C   UNK N   1      30.283  17.531   7.521  0.00  0.00    -0.013 A 
HETATM    4  C   UNK N   1      29.736  17.447   6.268  0.00  0.00     0.003 A 
HETATM    5  C   UNK N   1      28.623  18.090   5.730  0.00  0.00     0.051 A 
HETATM    6  C   UNK N   1      28.299  17.845   4.385  0.00  0.00     0.069 A 
HETATM    7  C   UNK N   1      29.098  16.953   3.621  0.00  0.00     0.039 A 
HETATM    8  C   UNK N   1      30.213  16.317   4.195  0.00  0.00     0.034 A 
HETATM    9  C   UNK N   1      30.518  16.592   5.534  0.00  0.00     0.053 A 
HETATM   10  C   UNK N   1      32.528  15.230   5.805  0.00  0.00     0.263 C 
HETATM   11  C   UNK N   1      32.342  16.652   8.672  0.00  0.00     0.069 C 
HETATM   12  O   UNK N   1      32.564  14.985   4.605  0.00  0.00    -0.267 OA
ENDROOT
BRANCH  10  13
HETATM   13  C   UNK N   1      33.544  14.536   6.655  0.00  0.00     0.033 A 
HETATM   14  C   UNK N   1      34.880  14.977   6.625  0.00  0.00     0.018 A 
HETATM   15  C   UNK N   1      35.863  14.325   7.377  0.00  0.00     0.019 A 
HETATM   16  C   UNK N   1      35.529  13.206   8.141  0.00  0.00     0.006 A 
HETATM   17  C   UNK N   1      34.220  12.728   8.139  0.00  0.00     0.019 A 
HETATM   18  I   UNK N   1      36.993  12.234   9.298  0.00  0.00    -0.045 I 
HETATM   19  C   UNK N   1      33.241  13.384   7.391  0.00  0.00     0.018 A 
ENDBRANCH  10  13
BRANCH   3  20
HETATM   20  C   UNK N   1      29.787  18.398   8.645  0.00  0.00     0.151 C 
BRANCH  20  21
HETATM   21  C   UNK N   1      28.708  17.773   9.489  0.00  0.00     0.143 C 
HETATM   22  O   UNK N   1      28.959  16.868  10.270  0.00  0.00    -0.650 OA
BRANCH  21  23
HETATM   23  O   UNK N   1      27.447  18.228   9.386  0.00  0.00    -0.776 OA
HETATM   24  H   UNK N   1      26.732  17.732   9.732  0.00  0.00     0.167 HD
ENDBRANCH  21  23
ENDBRANCH  20  21
ENDBRANCH   3  20
BRANCH   6  25
HETATM   25  O   UNK N   1      27.231  18.479   3.845  0.00  0.00    -0.356 OA
HETATM   26  C   UNK N   1      27.085  19.848   3.852  0.00  0.00     0.210 C 
ENDBRANCH   6  25
TORSDOF 5
ENDMDL
MODEL 8
REMARK VINA RESULT:      -6.1     19.109     22.320
REMARK  5 active torsions:
REMARK  status: ('A' for Active; 'I' for Inactive)
REMARK       I    between atoms: N_1  and  C_10 
REMARK    1  A    between atoms: C_3  and  C_18 
REMARK    2  A    between atoms: C_6  and  O_22 
REMARK    3  A    between atoms: C_10  and  C_11 
REMARK    4  A    between atoms: C_18  and  C_19 
REMARK    5  A    between atoms: C_19  and  O_24 
ROOT
HETATM    1  N   UNK N   1      35.126  12.538  12.494  0.00  0.00    -0.281 N 
HETATM    2  C   UNK N   1      34.913  11.439  11.692  0.00  0.00     0.024 A 
HETATM    3  C   UNK N   1      34.787  11.830  10.364  0.00  0.00    -0.013 A 
HETATM    4  C   UNK N   1      34.902  13.194  10.350  0.00  0.00     0.003 A 
HETATM    5  C   UNK N   1      34.817  14.091   9.287  0.00  0.00     0.051 A 
HETATM    6  C   UNK N   1      34.939  15.464   9.563  0.00  0.00     0.069 A 
HETATM    7  C   UNK N   1      35.152  15.895  10.899  0.00  0.00     0.039 A 
HETATM    8  C   UNK N   1      35.235  14.963  11.950  0.00  0.00     0.034 A 
HETATM    9  C   UNK N   1      35.096  13.604  11.644  0.00  0.00     0.053 A 
HETATM   10  C   UNK N   1      35.291  12.640  13.880  0.00  0.00     0.263 C 
HETATM   11  C   UNK N   1      34.710  10.025  12.118  0.00  0.00     0.069 C 
HETATM   12  O   UNK N   1      35.258  13.749  14.398  0.00  0.00    -0.267 OA
ENDROOT
BRANCH  10  13
HETATM   13  C   UNK N   1      35.524  11.484  14.801  0.00  0.00     0.033 A 
HETATM   14  C   UNK N   1      34.444  10.964  15.536  0.00  0.00     0.018 A 
HETATM   15  C   UNK N   1      34.635   9.910  16.436  0.00  0.00     0.019 A 
HETATM   16  C   UNK N   1      35.914   9.386  16.635  0.00  0.00     0.006 A 
HETATM   17  C   UNK N   1      37.001   9.927  15.951  0.00  0.00     0.019 A 
HETATM   18  I   UNK N   1      36.209   7.783  17.964  0.00  0.00    -0.045 I 
HETATM   19  C   UNK N   1      36.804  10.975  15.050  0.00  0.00     0.018 A 
ENDBRANCH  10  13
BRANCH   3  20
HETATM   20  C   UNK N   1      34.510  10.955   9.172  0.00  0.00     0.151 C 
BRANCH  20  21
HETATM   21  C   UNK N   1      33.075  10.952   8.715  0.00  0.00     0.143 C 
HETATM   22  O   UNK N   1      32.788  10.868   7.531  0.00  0.00    -0.650 OA
BRANCH  21  23
HETATM   23  O   UNK N   1      32.095  11.035   9.632  0.00  0.00    -0.776 OA
HETATM   24  H   UNK N   1      31.431  11.693   9.561  0.00  0.00     0.167 HD
ENDBRANCH  21  23
ENDBRANCH  20  21
ENDBRANCH   3  20
BRANCH   6  25
HETATM   25  O   UNK N   1      34.838  16.347   8.541  0.00  0.00    -0.356 OA
HETATM   26  C   UNK N   1      34.180  17.551   8.648  0.00  0.00     0.210 C 
ENDBRANCH   6  25
TORSDOF 5
ENDMDL
MODEL 9
REMARK VINA RESULT:      -6.0     11.344     13.681
REMARK  5 active torsions:
REMARK  status: ('A' for Active; 'I' for Inactive)
REMARK       I    between atoms: N_1  and  C_10 
REMARK    1  A    between atoms: C_3  and  C_18 
REMARK    2  A    between atoms: C_6  and  O_22 
REMARK    3  A    between atoms: C_10  and  C_11 
REMARK    4  A    between atoms: C_18  and  C_19 
REMARK    5  A    between atoms: C_19  and  O_24 
ROOT
HETATM    1  N   UNK N   1      27.172  18.191   5.437  0.00  0.00    -0.281 N 
HETATM    2  C   UNK N   1      27.306  17.187   4.505  0.00  0.00     0.024 A 
HETATM    3  C   UNK N   1      28.371  16.358   4.841  0.00  0.00    -0.013 A 
HETATM    4  C   UNK N   1      28.915  16.874   5.987  0.00  0.00     0.003 A 
HETATM    5  C   UNK N   1      30.018  16.450   6.726  0.00  0.00     0.051 A 
HETATM    6  C   UNK N   1      30.385  17.196   7.860  0.00  0.00     0.069 A 
HETATM    7  C   UNK N   1      29.627  18.340   8.223  0.00  0.00     0.039 A 
HETATM    8  C   UNK N   1      28.517  18.739   7.457  0.00  0.00     0.034 A 
HETATM    9  C   UNK N   1      28.185  17.984   6.326  0.00  0.00     0.053 A 
HETATM   10  C   UNK N   1      26.267  19.257   5.508  0.00  0.00     0.263 C 
HETATM   11  C   UNK N   1      26.548  17.015   3.234  0.00  0.00     0.069 C 
HETATM   12  O   UNK N   1      26.472  20.150   6.321  0.00  0.00    -0.267 OA
ENDROOT
BRANCH  10  13
HETATM   13  C   UNK N   1      25.038  19.393   4.667  0.00  0.00     0.033 A 
HETATM   14  C   UNK N   1      24.976  20.412   3.700  0.00  0.00     0.018 A 
HETATM   15  C   UNK N   1      23.826  20.592   2.925  0.00  0.00     0.019 A 
HETATM   16  C   UNK N   1      22.712  19.776   3.130  0.00  0.00     0.006 A 
HETATM   17  C   UNK N   1      22.742  18.795   4.120  0.00  0.00     0.019 A 
HETATM   18  I   UNK N   1      20.987  20.018   1.952  0.00  0.00    -0.045 I 
HETATM   19  C   UNK N   1      23.894  18.616   4.888  0.00  0.00     0.018 A 
ENDBRANCH  10  13
BRANCH   3  20
HETATM   20  C   UNK N   1      28.885  15.168   4.078  0.00  0.00     0.151 C 
BRANCH  20  21
HETATM   21  C   UNK N   1      28.619  13.839   4.734  0.00  0.00     0.143 C 
HETATM   22  O   UNK N   1      27.487  13.498   5.040  0.00  0.00    -0.650 OA
BRANCH  21  23
HETATM   23  O   UNK N   1      29.650  13.011   4.980  0.00  0.00    -0.776 OA
HETATM   24  H   UNK N   1      30.437  13.333   5.373  0.00  0.00     0.167 HD
ENDBRANCH  21  23
ENDBRANCH  20  21
ENDBRANCH   3  20
BRANCH   6  25
HETATM   25  O   UNK N   1      31.467  16.806   8.575  0.00  0.00    -0.356 OA
HETATM   26  C   UNK N   1      32.762  17.024   8.161  0.00  0.00     0.210 C 
ENDBRANCH   6  25
TORSDOF 5
ENDMDL
