MODEL 1
REMARK VINA RESULT:      -6.9      0.000      0.000
REMARK  11 active torsions:
REMARK  status: ('A' for Active; 'I' for Inactive)
REMARK    1  A    between atoms: C_4  and  C_7 
REMARK    2  A    between atoms: C_6  and  C_11 
REMARK    3  A    between atoms: C_7  and  C_8 
REMARK    4  A    between atoms: C_7  and  C_24 
REMARK    5  A    between atoms: C_8  and  C_9 
REMARK    6  A    between atoms: C_9  and  C_10 
REMARK    7  A    between atoms: C_11  and  N_14 
REMARK    8  A    between atoms: C_17  and  C_18 
REMARK    9  A    between atoms: C_18  and  N_23 
REMARK   10  A    between atoms: C_24  and  C_25 
REMARK   11  A    between atoms: C_25  and  O_27 
ROOT
HETATM    1  C   UNK N   1      26.293  23.643  -6.812  0.00  0.00     0.028 C 
ENDROOT
BRANCH   1   2
HETATM    2  C   UNK N   1      27.122  23.685  -5.532  0.00  0.00    -0.053 A 
HETATM    3  C   UNK N   1      26.582  24.117  -4.306  0.00  0.00     0.007 A 
HETATM    4  C   UNK N   1      27.366  24.135  -3.149  0.00  0.00     0.002 A 
HETATM    5  C   UNK N   1      28.699  23.720  -3.202  0.00  0.00     0.015 A 
HETATM    6  C   UNK N   1      29.251  23.283  -4.413  0.00  0.00     0.007 A 
HETATM    7  C   UNK N   1      28.455  23.265  -5.562  0.00  0.00     0.022 A 
BRANCH   6   8
HETATM    8  C   UNK N   1      30.660  22.847  -4.497  0.00  0.00     0.102 C 
HETATM    9  N   UNK N   1      31.126  22.359  -5.589  0.00  0.00    -0.385 N 
HETATM   10  H   UNK N   1      30.543  22.245  -6.374  0.00  0.00     0.157 HD
ATOM     11  HN  UNK N   1      32.108  22.089  -5.644  1.00  0.00     0.157 HD
BRANCH   8  12
HETATM   12  N   UNK N   1      31.505  22.950  -3.368  0.00  0.00    -0.385 N 
HETATM   13  H   UNK N   1      31.697  23.831  -2.971  0.00  0.00     0.157 HD
HETATM   14  H   UNK N   1      31.902  22.140  -2.977  0.00  0.00     0.157 HD
ENDBRANCH   8  12
ENDBRANCH   6   8
ENDBRANCH   1   2
BRANCH   1  15
HETATM   15  C   UNK N   1      26.743  24.666  -7.866  0.00  0.00     0.014 C 
BRANCH  15  16
HETATM   16  C   UNK N   1      25.798  25.855  -8.011  0.00  0.00     0.039 C 
BRANCH  16  17
HETATM   17  C   UNK N   1      25.979  26.791  -6.868  0.00  0.00    -0.058 A 
HETATM   18  C   UNK N   1      24.988  26.885  -5.885  0.00  0.00     0.008 A 
HETATM   19  C   UNK N   1      25.155  27.756  -4.804  0.00  0.00     0.016 A 
HETATM   20  C   UNK N   1      26.319  28.532  -4.692  0.00  0.00     0.007 A 
HETATM   21  C   UNK N   1      27.308  28.431  -5.682  0.00  0.00     0.016 A 
HETATM   22  C   UNK N   1      27.137  27.568  -6.767  0.00  0.00     0.008 A 
BRANCH  20  23
HETATM   23  C   UNK N   1      26.517  29.436  -3.539  0.00  0.00     0.102 C 
HETATM   24  N   UNK N   1      27.091  29.010  -2.471  0.00  0.00    -0.385 N 
HETATM   25  H   UNK N   1      27.315  29.640  -1.748  0.00  0.00     0.157 HD
ATOM     26  HN  UNK N   1      27.314  28.020  -2.373  1.00  0.00     0.157 HD
BRANCH  23  27
HETATM   27  N   UNK N   1      26.104  30.784  -3.613  0.00  0.00    -0.385 N 
HETATM   28  H   UNK N   1      26.219  31.383  -2.840  0.00  0.00     0.157 HD
HETATM   29  H   UNK N   1      25.697  31.128  -4.442  0.00  0.00     0.157 HD
ENDBRANCH  23  27
ENDBRANCH  20  23
ENDBRANCH  16  17
ENDBRANCH  15  16
ENDBRANCH   1  15
BRANCH   1  30
HETATM   30  C   UNK N   1      26.271  22.243  -7.453  0.00  0.00     0.120 C 
BRANCH  30  31
HETATM   31  C   UNK N   1      25.128  22.021  -8.411  0.00  0.00     0.259 C 
HETATM   32  O   UNK N   1      23.983  22.305  -8.089  0.00  0.00    -0.265 OA
BRANCH  31  33
HETATM   33  O   UNK N   1      25.382  21.484  -9.629  0.00  0.00    -0.326 OA
HETATM   34  C   UNK N   1      26.597  21.629 -10.257  0.00  0.00     0.213 C 
ENDBRANCH  31  33
ENDBRANCH  30  31
ENDBRANCH   1  30
TORSDOF 11
ENDMDL
MODEL 2
REMARK VINA RESULT:      -6.5      2.299      3.634
REMARK  11 active torsions:
REMARK  status: ('A' for Active; 'I' for Inactive)
REMARK    1  A    between atoms: C_4  and  C_7 
REMARK    2  A    between atoms: C_6  and  C_11 
REMARK    3  A    between atoms: C_7  and  C_8 
REMARK    4  A    between atoms: C_7  and  C_24 
REMARK    5  A    between atoms: C_8  and  C_9 
REMARK    6  A    between atoms: C_9  and  C_10 
REMARK    7  A    between atoms: C_11  and  N_14 
REMARK    8  A    between atoms: C_17  and  C_18 
REMARK    9  A    between atoms: C_18  and  N_23 
REMARK   10  A    between atoms: C_24  and  C_25 
REMARK   11  A    between atoms: C_25  and  O_27 
ROOT
HETATM    1  C   UNK N   1      26.844  24.099  -6.183  0.00  0.00     0.028 C 
ENDROOT
BRANCH   1   2
HETATM    2  C   UNK N   1      27.625  22.876  -6.652  0.00  0.00    -0.053 A 
HETATM    3  C   UNK N   1      27.135  22.013  -7.650  0.00  0.00     0.007 A 
HETATM    4  C   UNK N   1      27.880  20.906  -8.063  0.00  0.00     0.002 A 
HETATM    5  C   UNK N   1      29.127  20.648  -7.488  0.00  0.00     0.015 A 
HETATM    6  C   UNK N   1      29.632  21.499  -6.497  0.00  0.00     0.007 A 
HETATM    7  C   UNK N   1      28.879  22.606  -6.095  0.00  0.00     0.022 A 
BRANCH   6   8
HETATM    8  C   UNK N   1      30.944  21.244  -5.867  0.00  0.00     0.102 C 
HETATM    9  N   UNK N   1      32.027  21.611  -6.448  0.00  0.00    -0.385 N 
HETATM   10  H   UNK N   1      31.998  22.043  -7.332  0.00  0.00     0.157 HD
ATOM     11  HN  UNK N   1      32.926  21.456  -5.990  1.00  0.00     0.157 HD
BRANCH   8  12
HETATM   12  N   UNK N   1      31.016  20.578  -4.621  0.00  0.00    -0.385 N 
HETATM   13  H   UNK N   1      30.244  20.066  -4.287  0.00  0.00     0.157 HD
HETATM   14  H   UNK N   1      31.841  20.627  -4.086  0.00  0.00     0.157 HD
ENDBRANCH   8  12
ENDBRANCH   6   8
ENDBRANCH   1   2
BRANCH   1  15
HETATM   15  C   UNK N   1      25.757  24.547  -7.172  0.00  0.00     0.014 C 
BRANCH  15  16
HETATM   16  C   UNK N   1      25.986  25.940  -7.749  0.00  0.00     0.039 C 
BRANCH  16  17
HETATM   17  C   UNK N   1      26.140  26.928  -6.648  0.00  0.00    -0.058 A 
HETATM   18  C   UNK N   1      27.294  27.716  -6.578  0.00  0.00     0.008 A 
HETATM   19  C   UNK N   1      27.441  28.653  -5.551  0.00  0.00     0.016 A 
HETATM   20  C   UNK N   1      26.432  28.816  -4.590  0.00  0.00     0.007 A 
HETATM   21  C   UNK N   1      25.278  28.022  -4.666  0.00  0.00     0.016 A 
HETATM   22  C   UNK N   1      25.135  27.080  -5.688  0.00  0.00     0.008 A 
BRANCH  20  23
HETATM   23  C   UNK N   1      26.567  29.823  -3.515  0.00  0.00     0.102 C 
HETATM   24  N   UNK N   1      25.999  30.969  -3.625  0.00  0.00    -0.385 N 
HETATM   25  H   UNK N   1      26.003  31.596  -2.864  0.00  0.00     0.157 HD
ATOM     26  HN  UNK N   1      25.544  31.231  -4.499  1.00  0.00     0.157 HD
BRANCH  23  27
HETATM   27  N   UNK N   1      27.297  29.520  -2.345  0.00  0.00    -0.385 N 
HETATM   28  H   UNK N   1      27.148  30.034  -1.519  0.00  0.00     0.157 HD
HETATM   29  H   UNK N   1      27.959  28.790  -2.354  0.00  0.00     0.157 HD
ENDBRANCH  23  27
ENDBRANCH  20  23
ENDBRANCH  16  17
ENDBRANCH  15  16
ENDBRANCH   1  15
BRANCH   1  30
HETATM   30  C   UNK N   1      26.204  23.894  -4.798  0.00  0.00     0.120 C 
BRANCH  30  31
HETATM   31  C   UNK N   1      27.013  24.454  -3.655  0.00  0.00     0.259 C 
HETATM   32  O   UNK N   1      26.982  23.923  -2.554  0.00  0.00    -0.265 OA
BRANCH  31  33
HETATM   33  O   UNK N   1      27.761  25.564  -3.858  0.00  0.00    -0.326 OA
HETATM   34  C   UNK N   1      29.137  25.532  -3.872  0.00  0.00     0.213 C 
ENDBRANCH  31  33
ENDBRANCH  30  31
ENDBRANCH   1  30
TORSDOF 11
ENDMDL
MODEL 3
REMARK VINA RESULT:      -6.4     15.548     19.185
REMARK  11 active torsions:
REMARK  status: ('A' for Active; 'I' for Inactive)
REMARK    1  A    between atoms: C_4  and  C_7 
REMARK    2  A    between atoms: C_6  and  C_11 
REMARK    3  A    between atoms: C_7  and  C_8 
REMARK    4  A    between atoms: C_7  and  C_24 
REMARK    5  A    between atoms: C_8  and  C_9 
REMARK    6  A    between atoms: C_9  and  C_10 
REMARK    7  A    between atoms: C_11  and  N_14 
REMARK    8  A    between atoms: C_17  and  C_18 
REMARK    9  A    between atoms: C_18  and  N_23 
REMARK   10  A    between atoms: C_24  and  C_25 
REMARK   11  A    between atoms: C_25  and  O_27 
ROOT
HETATM    1  C   UNK N   1      33.175  16.605   7.026  0.00  0.00     0.028 C 
ENDROOT
BRANCH   1   2
HETATM    2  C   UNK N   1      31.703  16.981   6.894  0.00  0.00    -0.053 A 
HETATM    3  C   UNK N   1      31.069  17.089   5.642  0.00  0.00     0.007 A 
HETATM    4  C   UNK N   1      29.716  17.427   5.555  0.00  0.00     0.002 A 
HETATM    5  C   UNK N   1      28.977  17.659   6.719  0.00  0.00     0.015 A 
HETATM    6  C   UNK N   1      29.592  17.552   7.974  0.00  0.00     0.007 A 
HETATM    7  C   UNK N   1      30.945  17.209   8.047  0.00  0.00     0.022 A 
BRANCH   6   8
HETATM    8  C   UNK N   1      28.835  17.801   9.218  0.00  0.00     0.102 C 
HETATM    9  N   UNK N   1      27.696  18.389   9.180  0.00  0.00    -0.385 N 
HETATM   10  H   UNK N   1      27.325  18.705   8.325  0.00  0.00     0.157 HD
ATOM     11  HN  UNK N   1      27.169  18.529  10.042  1.00  0.00     0.157 HD
BRANCH   8  12
HETATM   12  N   UNK N   1      29.370  17.404  10.466  0.00  0.00    -0.385 N 
HETATM   13  H   UNK N   1      30.186  16.854  10.503  0.00  0.00     0.157 HD
HETATM   14  H   UNK N   1      28.924  17.677  11.299  0.00  0.00     0.157 HD
ENDBRANCH   8  12
ENDBRANCH   6   8
ENDBRANCH   1   2
BRANCH   1  15
HETATM   15  C   UNK N   1      33.656  15.628   5.942  0.00  0.00     0.014 C 
BRANCH  15  16
HETATM   16  C   UNK N   1      33.583  14.163   6.359  0.00  0.00     0.039 C 
BRANCH  16  17
HETATM   17  C   UNK N   1      34.441  13.929   7.551  0.00  0.00    -0.058 A 
HETATM   18  C   UNK N   1      33.872  13.434   8.730  0.00  0.00     0.008 A 
HETATM   19  C   UNK N   1      34.674  13.203   9.852  0.00  0.00     0.016 A 
HETATM   20  C   UNK N   1      36.053  13.456   9.801  0.00  0.00     0.007 A 
HETATM   21  C   UNK N   1      36.616  13.952   8.616  0.00  0.00     0.016 A 
HETATM   22  C   UNK N   1      35.813  14.191   7.497  0.00  0.00     0.008 A 
BRANCH  20  23
HETATM   23  C   UNK N   1      36.914  13.190  10.973  0.00  0.00     0.102 C 
HETATM   24  N   UNK N   1      37.605  12.109  11.040  0.00  0.00    -0.385 N 
HETATM   25  H   UNK N   1      38.255  11.984  11.769  0.00  0.00     0.157 HD
ATOM     26  HN  UNK N   1      37.480  11.381  10.338  1.00  0.00     0.157 HD
BRANCH  23  27
HETATM   27  N   UNK N   1      37.008  14.138  12.017  0.00  0.00    -0.385 N 
HETATM   28  H   UNK N   1      37.515  13.929  12.834  0.00  0.00     0.157 HD
HETATM   29  H   UNK N   1      36.562  15.012  11.927  0.00  0.00     0.157 HD
ENDBRANCH  23  27
ENDBRANCH  20  23
ENDBRANCH  16  17
ENDBRANCH  15  16
ENDBRANCH   1  15
BRANCH   1  30
HETATM   30  C   UNK N   1      34.099  17.837   7.034  0.00  0.00     0.120 C 
BRANCH  30  31
HETATM   31  C   UNK N   1      34.628  18.202   8.398  0.00  0.00     0.259 C 
HETATM   32  O   UNK N   1      35.341  19.185   8.544  0.00  0.00    -0.265 OA
BRANCH  31  33
HETATM   33  O   UNK N   1      34.321  17.418   9.458  0.00  0.00    -0.326 OA
HETATM   34  C   UNK N   1      35.274  16.969  10.343  0.00  0.00     0.213 C 
ENDBRANCH  31  33
ENDBRANCH  30  31
ENDBRANCH   1  30
TORSDOF 11
ENDMDL
MODEL 4
REMARK VINA RESULT:      -6.4     15.705     18.357
REMARK  11 active torsions:
REMARK  status: ('A' for Active; 'I' for Inactive)
REMARK    1  A    between atoms: C_4  and  C_7 
REMARK    2  A    between atoms: C_6  and  C_11 
REMARK    3  A    between atoms: C_7  and  C_8 
REMARK    4  A    between atoms: C_7  and  C_24 
REMARK    5  A    between atoms: C_8  and  C_9 
REMARK    6  A    between atoms: C_9  and  C_10 
REMARK    7  A    between atoms: C_11  and  N_14 
REMARK    8  A    between atoms: C_17  and  C_18 
REMARK    9  A    between atoms: C_18  and  N_23 
REMARK   10  A    between atoms: C_24  and  C_25 
REMARK   11  A    between atoms: C_25  and  O_27 
ROOT
HETATM    1  C   UNK N   1      20.802  16.005   6.306  0.00  0.00     0.028 C 
ENDROOT
BRANCH   1   2
HETATM    2  C   UNK N   1      21.336  17.055   5.337  0.00  0.00    -0.053 A 
HETATM    3  C   UNK N   1      22.608  17.637   5.492  0.00  0.00     0.007 A 
HETATM    4  C   UNK N   1      23.071  18.591   4.582  0.00  0.00     0.002 A 
HETATM    5  C   UNK N   1      22.270  18.974   3.503  0.00  0.00     0.015 A 
HETATM    6  C   UNK N   1      21.002  18.401   3.331  0.00  0.00     0.007 A 
HETATM    7  C   UNK N   1      20.553  17.445   4.246  0.00  0.00     0.022 A 
BRANCH   6   8
HETATM    8  C   UNK N   1      20.133  18.795   2.203  0.00  0.00     0.102 C 
HETATM    9  N   UNK N   1      20.312  19.916   1.604  0.00  0.00    -0.385 N 
HETATM   10  H   UNK N   1      21.014  20.537   1.906  0.00  0.00     0.157 HD
ATOM     11  HN  UNK N   1      19.725  20.164   0.808  1.00  0.00     0.157 HD
BRANCH   8  12
HETATM   12  N   UNK N   1      19.084  17.945   1.784  0.00  0.00    -0.385 N 
HETATM   13  H   UNK N   1      18.580  17.415   2.445  0.00  0.00     0.157 HD
HETATM   14  H   UNK N   1      18.857  17.881   0.829  0.00  0.00     0.157 HD
ENDBRANCH   8  12
ENDBRANCH   6   8
ENDBRANCH   1   2
BRANCH   1  15
HETATM   15  C   UNK N   1      21.411  14.611   6.092  0.00  0.00     0.014 C 
BRANCH  15  16
HETATM   16  C   UNK N   1      20.649  13.492   6.796  0.00  0.00     0.039 C 
BRANCH  16  17
HETATM   17  C   UNK N   1      21.369  13.085   8.033  0.00  0.00    -0.058 A 
HETATM   18  C   UNK N   1      22.600  12.427   7.936  0.00  0.00     0.008 A 
HETATM   19  C   UNK N   1      23.286  12.050   9.094  0.00  0.00     0.016 A 
HETATM   20  C   UNK N   1      22.752  12.337  10.359  0.00  0.00     0.007 A 
HETATM   21  C   UNK N   1      21.517  12.998  10.448  0.00  0.00     0.016 A 
HETATM   22  C   UNK N   1      20.827  13.366   9.290  0.00  0.00     0.008 A 
BRANCH  20  23
HETATM   23  C   UNK N   1      23.482  11.966  11.590  0.00  0.00     0.102 C 
HETATM   24  N   UNK N   1      24.761  12.072  11.643  0.00  0.00    -0.385 N 
HETATM   25  H   UNK N   1      25.233  11.924  12.495  0.00  0.00     0.157 HD
ATOM     26  HN  UNK N   1      25.287  12.308  10.802  1.00  0.00     0.157 HD
BRANCH  23  27
HETATM   27  N   UNK N   1      22.776  11.521  12.729  0.00  0.00    -0.385 N 
HETATM   28  H   UNK N   1      21.835  11.776  12.862  0.00  0.00     0.157 HD
HETATM   29  H   UNK N   1      23.228  10.952  13.395  0.00  0.00     0.157 HD
ENDBRANCH  23  27
ENDBRANCH  20  23
ENDBRANCH  16  17
ENDBRANCH  15  16
ENDBRANCH   1  15
BRANCH   1  30
HETATM   30  C   UNK N   1      20.992  16.412   7.779  0.00  0.00     0.120 C 
BRANCH  30  31
HETATM   31  C   UNK N   1      19.809  17.129   8.378  0.00  0.00     0.259 C 
HETATM   32  O   UNK N   1      19.900  18.299   8.720  0.00  0.00    -0.265 OA
BRANCH  31  33
HETATM   33  O   UNK N   1      18.646  16.455   8.552  0.00  0.00    -0.326 OA
HETATM   34  C   UNK N   1      17.482  17.083   8.931  0.00  0.00     0.213 C 
ENDBRANCH  31  33
ENDBRANCH  30  31
ENDBRANCH   1  30
TORSDOF 11
ENDMDL
MODEL 5
REMARK VINA RESULT:      -6.4     15.582     17.493
REMARK  11 active torsions:
REMARK  status: ('A' for Active; 'I' for Inactive)
REMARK    1  A    between atoms: C_4  and  C_7 
REMARK    2  A    between atoms: C_6  and  C_11 
REMARK    3  A    between atoms: C_7  and  C_8 
REMARK    4  A    between atoms: C_7  and  C_24 
REMARK    5  A    between atoms: C_8  and  C_9 
REMARK    6  A    between atoms: C_9  and  C_10 
REMARK    7  A    between atoms: C_11  and  N_14 
REMARK    8  A    between atoms: C_17  and  C_18 
REMARK    9  A    between atoms: C_18  and  N_23 
REMARK   10  A    between atoms: C_24  and  C_25 
REMARK   11  A    between atoms: C_25  and  O_27 
ROOT
HETATM    1  C   UNK N   1      21.818  15.196   7.698  0.00  0.00     0.028 C 
ENDROOT
BRANCH   1   2
HETATM    2  C   UNK N   1      22.512  14.059   8.442  0.00  0.00    -0.053 A 
HETATM    3  C   UNK N   1      23.714  13.489   7.982  0.00  0.00     0.007 A 
HETATM    4  C   UNK N   1      24.329  12.454   8.692  0.00  0.00     0.002 A 
HETATM    5  C   UNK N   1      23.753  11.977   9.872  0.00  0.00     0.015 A 
HETATM    6  C   UNK N   1      22.559  12.536  10.347  0.00  0.00     0.007 A 
HETATM    7  C   UNK N   1      21.956  13.574   9.629  0.00  0.00     0.022 A 
BRANCH   6   8
HETATM    8  C   UNK N   1      21.925  12.044  11.587  0.00  0.00     0.102 C 
HETATM    9  N   UNK N   1      20.647  11.979  11.682  0.00  0.00    -0.385 N 
HETATM   10  H   UNK N   1      20.074  12.282  10.941  0.00  0.00     0.157 HD
ATOM     11  HN  UNK N   1      20.220  11.610  12.532  1.00  0.00     0.157 HD
BRANCH   8  12
HETATM   12  N   UNK N   1      22.723  11.652  12.686  0.00  0.00    -0.385 N 
HETATM   13  H   UNK N   1      22.419  11.824  13.607  0.00  0.00     0.157 HD
HETATM   14  H   UNK N   1      23.587  11.207  12.530  0.00  0.00     0.157 HD
ENDBRANCH   8  12
ENDBRANCH   6   8
ENDBRANCH   1   2
BRANCH   1  15
HETATM   15  C   UNK N   1      22.175  15.257   6.205  0.00  0.00     0.014 C 
BRANCH  15  16
HETATM   16  C   UNK N   1      20.962  15.224   5.281  0.00  0.00     0.039 C 
BRANCH  16  17
HETATM   17  C   UNK N   1      20.910  16.467   4.465  0.00  0.00    -0.058 A 
HETATM   18  C   UNK N   1      22.051  17.268   4.345  0.00  0.00     0.008 A 
HETATM   19  C   UNK N   1      22.012  18.432   3.572  0.00  0.00     0.016 A 
HETATM   20  C   UNK N   1      20.835  18.800   2.904  0.00  0.00     0.007 A 
HETATM   21  C   UNK N   1      19.694  17.992   3.029  0.00  0.00     0.016 A 
HETATM   22  C   UNK N   1      19.731  16.833   3.809  0.00  0.00     0.008 A 
BRANCH  20  23
HETATM   23  C   UNK N   1      20.791  20.015   2.063  0.00  0.00     0.102 C 
HETATM   24  N   UNK N   1      20.540  19.926   0.806  0.00  0.00    -0.385 N 
HETATM   25  H   UNK N   1      20.409  20.742   0.271  0.00  0.00     0.157 HD
ATOM     26  HN  UNK N   1      20.479  19.010   0.363  1.00  0.00     0.157 HD
BRANCH  23  27
HETATM   27  N   UNK N   1      20.993  21.288   2.641  0.00  0.00    -0.385 N 
HETATM   28  H   UNK N   1      21.850  21.757   2.521  0.00  0.00     0.157 HD
HETATM   29  H   UNK N   1      20.274  21.708   3.167  0.00  0.00     0.157 HD
ENDBRANCH  23  27
ENDBRANCH  20  23
ENDBRANCH  16  17
ENDBRANCH  15  16
ENDBRANCH   1  15
BRANCH   1  30
HETATM   30  C   UNK N   1      20.286  15.146   7.844  0.00  0.00     0.120 C 
BRANCH  30  31
HETATM   31  C   UNK N   1      19.676  16.413   8.388  0.00  0.00     0.259 C 
HETATM   32  O   UNK N   1      20.388  17.322   8.789  0.00  0.00    -0.265 OA
BRANCH  31  33
HETATM   33  O   UNK N   1      18.328  16.525   8.445  0.00  0.00    -0.326 OA
HETATM   34  C   UNK N   1      17.692  17.265   9.415  0.00  0.00     0.213 C 
ENDBRANCH  31  33
ENDBRANCH  30  31
ENDBRANCH   1  30
TORSDOF 11
ENDMDL
MODEL 6
REMARK VINA RESULT:      -6.3     13.467     15.872
REMARK  11 active torsions:
REMARK  status: ('A' for Active; 'I' for Inactive)
REMARK    1  A    between atoms: C_4  and  C_7 
REMARK    2  A    between atoms: C_6  and  C_11 
REMARK    3  A    between atoms: C_7  and  C_8 
REMARK    4  A    between atoms: C_7  and  C_24 
REMARK    5  A    between atoms: C_8  and  C_9 
REMARK    6  A    between atoms: C_9  and  C_10 
REMARK    7  A    between atoms: C_11  and  N_14 
REMARK    8  A    between atoms: C_17  and  C_18 
REMARK    9  A    between atoms: C_18  and  N_23 
REMARK   10  A    between atoms: C_24  and  C_25 
REMARK   11  A    between atoms: C_25  and  O_27 
ROOT
HETATM    1  C   UNK N   1      33.071  17.573   6.948  0.00  0.00     0.028 C 
ENDROOT
BRANCH   1   2
HETATM    2  C   UNK N   1      32.854  16.875   5.609  0.00  0.00    -0.053 A 
HETATM    3  C   UNK N   1      32.747  17.591   4.402  0.00  0.00     0.007 A 
HETATM    4  C   UNK N   1      32.557  16.921   3.191  0.00  0.00     0.002 A 
HETATM    5  C   UNK N   1      32.475  15.526   3.169  0.00  0.00     0.015 A 
HETATM    6  C   UNK N   1      32.584  14.797   4.361  0.00  0.00     0.007 A 
HETATM    7  C   UNK N   1      32.778  15.480   5.566  0.00  0.00     0.022 A 
BRANCH   6   8
HETATM    8  C   UNK N   1      32.491  13.323   4.366  0.00  0.00     0.102 C 
HETATM    9  N   UNK N   1      33.182  12.625   3.541  0.00  0.00    -0.385 N 
HETATM   10  H   UNK N   1      33.761  13.065   2.877  0.00  0.00     0.157 HD
ATOM     11  HN  UNK N   1      33.133  11.606   3.573  1.00  0.00     0.157 HD
BRANCH   8  12
HETATM   12  N   UNK N   1      31.627  12.668   5.274  0.00  0.00    -0.385 N 
HETATM   13  H   UNK N   1      30.693  12.480   5.023  0.00  0.00     0.157 HD
HETATM   14  H   UNK N   1      31.959  12.400   6.161  0.00  0.00     0.157 HD
ENDBRANCH   8  12
ENDBRANCH   6   8
ENDBRANCH   1   2
BRANCH   1  15
HETATM   15  C   UNK N   1      31.900  17.396   7.927  0.00  0.00     0.014 C 
BRANCH  15  16
HETATM   16  C   UNK N   1      30.695  16.682   7.322  0.00  0.00     0.039 C 
BRANCH  16  17
HETATM   17  C   UNK N   1      29.647  17.673   6.957  0.00  0.00    -0.058 A 
HETATM   18  C   UNK N   1      29.262  17.816   5.619  0.00  0.00     0.008 A 
HETATM   19  C   UNK N   1      28.271  18.738   5.270  0.00  0.00     0.016 A 
HETATM   20  C   UNK N   1      27.650  19.518   6.257  0.00  0.00     0.007 A 
HETATM   21  C   UNK N   1      28.042  19.369   7.596  0.00  0.00     0.016 A 
HETATM   22  C   UNK N   1      29.038  18.454   7.944  0.00  0.00     0.008 A 
BRANCH  20  23
HETATM   23  C   UNK N   1      26.582  20.478   5.902  0.00  0.00     0.102 C 
HETATM   24  N   UNK N   1      25.832  20.265   4.881  0.00  0.00    -0.385 N 
HETATM   25  H   UNK N   1      25.058  20.850   4.709  0.00  0.00     0.157 HD
ATOM     26  HN  UNK N   1      26.039  19.493   4.249  1.00  0.00     0.157 HD
BRANCH  23  27
HETATM   27  N   UNK N   1      26.359  21.621   6.700  0.00  0.00    -0.385 N 
HETATM   28  H   UNK N   1      25.802  22.361   6.365  0.00  0.00     0.157 HD
HETATM   29  H   UNK N   1      26.763  21.680   7.597  0.00  0.00     0.157 HD
ENDBRANCH  23  27
ENDBRANCH  20  23
ENDBRANCH  16  17
ENDBRANCH  15  16
ENDBRANCH   1  15
BRANCH   1  30
HETATM   30  C   UNK N   1      34.372  17.126   7.641  0.00  0.00     0.120 C 
BRANCH  30  31
HETATM   31  C   UNK N   1      34.910  18.118   8.640  0.00  0.00     0.259 C 
HETATM   32  O   UNK N   1      34.997  19.303   8.354  0.00  0.00    -0.265 OA
BRANCH  31  33
HETATM   33  O   UNK N   1      35.315  17.677   9.855  0.00  0.00    -0.326 OA
HETATM   34  C   UNK N   1      34.969  16.438  10.342  0.00  0.00     0.213 C 
ENDBRANCH  31  33
ENDBRANCH  30  31
ENDBRANCH   1  30
TORSDOF 11
ENDMDL
MODEL 7
REMARK VINA RESULT:      -6.3      3.976      7.207
REMARK  11 active torsions:
REMARK  status: ('A' for Active; 'I' for Inactive)
REMARK    1  A    between atoms: C_4  and  C_7 
REMARK    2  A    between atoms: C_6  and  C_11 
REMARK    3  A    between atoms: C_7  and  C_8 
REMARK    4  A    between atoms: C_7  and  C_24 
REMARK    5  A    between atoms: C_8  and  C_9 
REMARK    6  A    between atoms: C_9  and  C_10 
REMARK    7  A    between atoms: C_11  and  N_14 
REMARK    8  A    between atoms: C_17  and  C_18 
REMARK    9  A    between atoms: C_18  and  N_23 
REMARK   10  A    between atoms: C_24  and  C_25 
REMARK   11  A    between atoms: C_25  and  O_27 
ROOT
HETATM    1  C   UNK N   1      26.363  25.382  -4.304  0.00  0.00     0.028 C 
ENDROOT
BRANCH   1   2
HETATM    2  C   UNK N   1      26.070  24.881  -5.714  0.00  0.00    -0.053 A 
HETATM    3  C   UNK N   1      26.195  25.712  -6.843  0.00  0.00     0.007 A 
HETATM    4  C   UNK N   1      25.928  25.220  -8.123  0.00  0.00     0.002 A 
HETATM    5  C   UNK N   1      25.535  23.889  -8.292  0.00  0.00     0.015 A 
HETATM    6  C   UNK N   1      25.410  23.047  -7.180  0.00  0.00     0.007 A 
HETATM    7  C   UNK N   1      25.685  23.551  -5.905  0.00  0.00     0.022 A 
BRANCH   6   8
HETATM    8  C   UNK N   1      24.989  21.639  -7.331  0.00  0.00     0.102 C 
HETATM    9  N   UNK N   1      25.622  20.852  -8.122  0.00  0.00    -0.385 N 
HETATM   10  H   UNK N   1      26.378  21.184  -8.657  0.00  0.00     0.157 HD
ATOM     11  HN  UNK N   1      25.340  19.874  -8.196  1.00  0.00     0.157 HD
BRANCH   8  12
HETATM   12  N   UNK N   1      23.872  21.151  -6.613  0.00  0.00    -0.385 N 
HETATM   13  H   UNK N   1      23.999  20.522  -5.866  0.00  0.00     0.157 HD
HETATM   14  H   UNK N   1      22.965  21.441  -6.862  0.00  0.00     0.157 HD
ENDBRANCH   8  12
ENDBRANCH   6   8
ENDBRANCH   1   2
BRANCH   1  15
HETATM   15  C   UNK N   1      27.222  24.413  -3.477  0.00  0.00     0.014 C 
BRANCH  15  16
HETATM   16  C   UNK N   1      28.723  24.597  -3.678  0.00  0.00     0.039 C 
BRANCH  16  17
HETATM   17  C   UNK N   1      29.276  23.452  -4.450  0.00  0.00    -0.058 A 
HETATM   18  C   UNK N   1      29.809  22.349  -3.772  0.00  0.00     0.008 A 
HETATM   19  C   UNK N   1      30.323  21.266  -4.492  0.00  0.00     0.016 A 
HETATM   20  C   UNK N   1      30.299  21.272  -5.895  0.00  0.00     0.007 A 
HETATM   21  C   UNK N   1      29.763  22.381  -6.567  0.00  0.00     0.016 A 
HETATM   22  C   UNK N   1      29.258  23.467  -5.848  0.00  0.00     0.008 A 
BRANCH  20  23
HETATM   23  C   UNK N   1      30.816  20.120  -6.664  0.00  0.00     0.102 C 
HETATM   24  N   UNK N   1      32.070  19.842  -6.653  0.00  0.00    -0.385 N 
HETATM   25  H   UNK N   1      32.395  19.017  -7.080  0.00  0.00     0.157 HD
ATOM     26  HN  UNK N   1      32.728  20.478  -6.203  1.00  0.00     0.157 HD
BRANCH  23  27
HETATM   27  N   UNK N   1      29.930  19.297  -7.394  0.00  0.00    -0.385 N 
HETATM   28  H   UNK N   1      29.927  19.320  -8.378  0.00  0.00     0.157 HD
HETATM   29  H   UNK N   1      29.312  18.697  -6.917  0.00  0.00     0.157 HD
ENDBRANCH  23  27
ENDBRANCH  20  23
ENDBRANCH  16  17
ENDBRANCH  15  16
ENDBRANCH   1  15
BRANCH   1  30
HETATM   30  C   UNK N   1      27.031  26.770  -4.298  0.00  0.00     0.120 C 
BRANCH  30  31
HETATM   31  C   UNK N   1      26.168  27.868  -3.733  0.00  0.00     0.259 C 
HETATM   32  O   UNK N   1      25.472  27.667  -2.748  0.00  0.00    -0.265 OA
BRANCH  31  33
HETATM   33  O   UNK N   1      26.157  29.079  -4.340  0.00  0.00    -0.326 OA
HETATM   34  C   UNK N   1      26.515  30.234  -3.684  0.00  0.00     0.213 C 
ENDBRANCH  31  33
ENDBRANCH  30  31
ENDBRANCH   1  30
TORSDOF 11
ENDMDL
MODEL 8
REMARK VINA RESULT:      -6.2      1.624      2.103
REMARK  11 active torsions:
REMARK  status: ('A' for Active; 'I' for Inactive)
REMARK    1  A    between atoms: C_4  and  C_7 
REMARK    2  A    between atoms: C_6  and  C_11 
REMARK    3  A    between atoms: C_7  and  C_8 
REMARK    4  A    between atoms: C_7  and  C_24 
REMARK    5  A    between atoms: C_8  and  C_9 
REMARK    6  A    between atoms: C_9  and  C_10 
REMARK    7  A    between atoms: C_11  and  N_14 
REMARK    8  A    between atoms: C_17  and  C_18 
REMARK    9  A    between atoms: C_18  and  N_23 
REMARK   10  A    between atoms: C_24  and  C_25 
REMARK   11  A    between atoms: C_25  and  O_27 
ROOT
HETATM    1  C   UNK N   1      27.123  23.849  -7.619  0.00  0.00     0.028 C 
ENDROOT
BRANCH   1   2
HETATM    2  C   UNK N   1      27.252  24.050  -6.113  0.00  0.00    -0.053 A 
HETATM    3  C   UNK N   1      26.181  23.809  -5.233  0.00  0.00     0.007 A 
HETATM    4  C   UNK N   1      26.335  23.994  -3.856  0.00  0.00     0.002 A 
HETATM    5  C   UNK N   1      27.562  24.419  -3.341  0.00  0.00     0.015 A 
HETATM    6  C   UNK N   1      28.640  24.658  -4.202  0.00  0.00     0.007 A 
HETATM    7  C   UNK N   1      28.475  24.466  -5.577  0.00  0.00     0.022 A 
BRANCH   6   8
HETATM    8  C   UNK N   1      29.946  25.116  -3.683  0.00  0.00     0.102 C 
HETATM    9  N   UNK N   1      30.816  24.268  -3.274  0.00  0.00    -0.385 N 
HETATM   10  H   UNK N   1      30.615  23.304  -3.275  0.00  0.00     0.157 HD
ATOM     11  HN  UNK N   1      31.726  24.594  -2.945  1.00  0.00     0.157 HD
BRANCH   8  12
HETATM   12  N   UNK N   1      30.240  26.498  -3.621  0.00  0.00    -0.385 N 
HETATM   13  H   UNK N   1      31.146  26.802  -3.381  0.00  0.00     0.157 HD
HETATM   14  H   UNK N   1      29.538  27.158  -3.818  0.00  0.00     0.157 HD
ENDBRANCH   8  12
ENDBRANCH   6   8
ENDBRANCH   1   2
BRANCH   1  15
HETATM   15  C   UNK N   1      27.121  25.165  -8.413  0.00  0.00     0.014 C 
BRANCH  15  16
HETATM   16  C   UNK N   1      25.875  26.016  -8.190  0.00  0.00     0.039 C 
BRANCH  16  17
HETATM   17  C   UNK N   1      26.050  26.869  -6.983  0.00  0.00    -0.058 A 
HETATM   18  C   UNK N   1      27.215  27.629  -6.833  0.00  0.00     0.008 A 
HETATM   19  C   UNK N   1      27.382  28.439  -5.706  0.00  0.00     0.016 A 
HETATM   20  C   UNK N   1      26.381  28.503  -4.725  0.00  0.00     0.007 A 
HETATM   21  C   UNK N   1      25.216  27.738  -4.882  0.00  0.00     0.016 A 
HETATM   22  C   UNK N   1      25.053  26.921  -6.005  0.00  0.00     0.008 A 
BRANCH  20  23
HETATM   23  C   UNK N   1      26.537  29.377  -3.542  0.00  0.00     0.102 C 
HETATM   24  N   UNK N   1      27.078  28.925  -2.468  0.00  0.00    -0.385 N 
HETATM   25  H   UNK N   1      27.275  29.536  -1.721  0.00  0.00     0.157 HD
ATOM     26  HN  UNK N   1      27.303  27.934  -2.390  1.00  0.00     0.157 HD
BRANCH  23  27
HETATM   27  N   UNK N   1      26.120  30.725  -3.593  0.00  0.00    -0.385 N 
HETATM   28  H   UNK N   1      26.778  31.453  -3.512  0.00  0.00     0.157 HD
HETATM   29  H   UNK N   1      25.165  30.939  -3.710  0.00  0.00     0.157 HD
ENDBRANCH  23  27
ENDBRANCH  20  23
ENDBRANCH  16  17
ENDBRANCH  15  16
ENDBRANCH   1  15
BRANCH   1  30
HETATM   30  C   UNK N   1      28.217  22.926  -8.187  0.00  0.00     0.120 C 
BRANCH  30  31
HETATM   31  C   UNK N   1      27.819  21.474  -8.264  0.00  0.00     0.259 C 
HETATM   32  O   UNK N   1      26.666  21.133  -8.044  0.00  0.00    -0.265 OA
BRANCH  31  33
HETATM   33  O   UNK N   1      28.760  20.547  -8.564  0.00  0.00    -0.326 OA
HETATM   34  C   UNK N   1      28.974  19.436  -7.779  0.00  0.00     0.213 C 
ENDBRANCH  31  33
ENDBRANCH  30  31
ENDBRANCH   1  30
TORSDOF 11
ENDMDL
MODEL 9
REMARK VINA RESULT:      -6.1     13.742     16.208
REMARK  11 active torsions:
REMARK  status: ('A' for Active; 'I' for Inactive)
REMARK    1  A    between atoms: C_4  and  C_7 
REMARK    2  A    between atoms: C_6  and  C_11 
REMARK    3  A    between atoms: C_7  and  C_8 
REMARK    4  A    between atoms: C_7  and  C_24 
REMARK    5  A    between atoms: C_8  and  C_9 
REMARK    6  A    between atoms: C_9  and  C_10 
REMARK    7  A    between atoms: C_11  and  N_14 
REMARK    8  A    between atoms: C_17  and  C_18 
REMARK    9  A    between atoms: C_18  and  N_23 
REMARK   10  A    between atoms: C_24  and  C_25 
REMARK   11  A    between atoms: C_25  and  O_27 
ROOT
HETATM    1  C   UNK N   1      30.549  17.130   4.207  0.00  0.00     0.028 C 
ENDROOT
BRANCH   1   2
HETATM    2  C   UNK N   1      29.785  17.601   5.440  0.00  0.00    -0.053 A 
HETATM    3  C   UNK N   1      28.624  18.391   5.343  0.00  0.00     0.007 A 
HETATM    4  C   UNK N   1      27.942  18.798   6.493  0.00  0.00     0.002 A 
HETATM    5  C   UNK N   1      28.409  18.420   7.754  0.00  0.00     0.015 A 
HETATM    6  C   UNK N   1      29.561  17.630   7.868  0.00  0.00     0.007 A 
HETATM    7  C   UNK N   1      30.231  17.225   6.710  0.00  0.00     0.022 A 
BRANCH   6   8
HETATM    8  C   UNK N   1      30.080  17.224   9.190  0.00  0.00     0.102 C 
HETATM    9  N   UNK N   1      29.477  17.583  10.264  0.00  0.00    -0.385 N 
HETATM   10  H   UNK N   1      28.677  18.155  10.221  0.00  0.00     0.157 HD
ATOM     11  HN  UNK N   1      29.828  17.272  11.170  1.00  0.00     0.157 HD
BRANCH   8  12
HETATM   12  N   UNK N   1      31.257  16.446   9.283  0.00  0.00    -0.385 N 
HETATM   13  H   UNK N   1      32.003  16.740   9.855  0.00  0.00     0.157 HD
HETATM   14  H   UNK N   1      31.332  15.607   8.773  0.00  0.00     0.157 HD
ENDBRANCH   8  12
ENDBRANCH   6   8
ENDBRANCH   1   2
BRANCH   1  15
HETATM   15  C   UNK N   1      31.974  17.695   4.118  0.00  0.00     0.014 C 
BRANCH  15  16
HETATM   16  C   UNK N   1      33.063  16.628   4.169  0.00  0.00     0.039 C 
BRANCH  16  17
HETATM   17  C   UNK N   1      33.614  16.528   5.548  0.00  0.00    -0.058 A 
HETATM   18  C   UNK N   1      33.745  17.682   6.329  0.00  0.00     0.008 A 
HETATM   19  C   UNK N   1      34.253  17.594   7.628  0.00  0.00     0.016 A 
HETATM   20  C   UNK N   1      34.625  16.350   8.161  0.00  0.00     0.007 A 
HETATM   21  C   UNK N   1      34.491  15.198   7.372  0.00  0.00     0.016 A 
HETATM   22  C   UNK N   1      33.991  15.287   6.070  0.00  0.00     0.008 A 
BRANCH  20  23
HETATM   23  C   UNK N   1      35.139  16.243   9.544  0.00  0.00     0.102 C 
HETATM   24  N   UNK N   1      34.869  17.154  10.408  0.00  0.00    -0.385 N 
HETATM   25  H   UNK N   1      35.124  17.029  11.352  0.00  0.00     0.157 HD
ATOM     26  HN  UNK N   1      34.393  18.007  10.118  1.00  0.00     0.157 HD
BRANCH  23  27
HETATM   27  N   UNK N   1      35.905  15.123   9.933  0.00  0.00    -0.385 N 
HETATM   28  H   UNK N   1      35.757  14.247   9.508  0.00  0.00     0.157 HD
HETATM   29  H   UNK N   1      36.591  15.217  10.634  0.00  0.00     0.157 HD
ENDBRANCH  23  27
ENDBRANCH  20  23
ENDBRANCH  16  17
ENDBRANCH  15  16
ENDBRANCH   1  15
BRANCH   1  30
HETATM   30  C   UNK N   1      30.613  15.595   4.105  0.00  0.00     0.120 C 
BRANCH  30  31
HETATM   31  C   UNK N   1      29.269  14.929   3.960  0.00  0.00     0.259 C 
HETATM   32  O   UNK N   1      28.822  14.230   4.859  0.00  0.00    -0.265 OA
BRANCH  31  33
HETATM   33  O   UNK N   1      28.567  15.098   2.814  0.00  0.00    -0.326 OA
HETATM   34  C   UNK N   1      27.376  15.786   2.775  0.00  0.00     0.213 C 
ENDBRANCH  31  33
ENDBRANCH  30  31
ENDBRANCH   1  30
TORSDOF 11
ENDMDL
