MODEL 1
REMARK VINA RESULT:      -7.9      0.000      0.000
REMARK  7 active torsions:
REMARK  status: ('A' for Active; 'I' for Inactive)
REMARK    1  A    between atoms: C_1  and  N_14 
REMARK    2  A    between atoms: C_7  and  S_10 
REMARK    3  A    between atoms: O_9  and  C_25 
REMARK    4  A    between atoms: S_10  and  N_23 
REMARK    5  A    between atoms: C_11  and  C_19 
REMARK    6  A    between atoms: N_23  and  C_24 
REMARK    7  A    between atoms: C_24  and  C_25 
ROOT
HETATM    1  C   UNK N   1      32.299  16.932   8.555  0.00  0.00     0.030 A 
HETATM    2  C   UNK N   1      32.154  15.618   9.029  0.00  0.00     0.031 A 
HETATM    3  C   UNK N   1      33.215  14.975   9.669  0.00  0.00     0.027 A 
HETATM    4  C   UNK N   1      33.532  17.581   8.725  0.00  0.00     0.031 A 
HETATM    5  C   UNK N   1      34.463  15.633   9.845  0.00  0.00     0.079 A 
HETATM    6  C   UNK N   1      34.596  16.942   9.366  0.00  0.00     0.027 A 
ENDROOT
BRANCH   1   7
HETATM    7  N   UNK N   1      31.216  17.592   7.896  0.00  0.00    -0.381 N 
HETATM    8  C   UNK N   1      30.376  18.543   8.591  0.00  0.00     0.123 C 
HETATM    9  C   UNK N   1      28.943  18.010   8.630  0.00  0.00     0.029 C 
HETATM   10  C   UNK N   1      28.444  17.552   7.241  0.00  0.00     0.021 C 
HETATM   11  C   UNK N   1      29.467  16.647   6.536  0.00  0.00     0.029 C 
HETATM   12  C   UNK N   1      30.863  17.260   6.536  0.00  0.00     0.123 C 
BRANCH  10  13
HETATM   13  C   UNK N   1      27.907  18.641   6.342  0.00  0.00    -0.054 A 
HETATM   14  C   UNK N   1      27.806  18.472   4.952  0.00  0.00     0.007 A 
HETATM   15  C   UNK N   1      27.352  19.523   4.147  0.00  0.00     0.001 A 
HETATM   16  C   UNK N   1      26.999  20.747   4.723  0.00  0.00     0.000 A 
HETATM   17  C   UNK N   1      27.099  20.921   6.105  0.00  0.00     0.001 A 
HETATM   18  C   UNK N   1      27.556  19.874   6.910  0.00  0.00     0.007 A 
ENDBRANCH  10  13
ENDBRANCH   1   7
BRANCH   5  19
HETATM   19  S   UNK N   1      35.909  14.915  10.733  0.00  0.00     0.259 S 
HETATM   20  O   UNK N   1      36.358  16.384  10.789  0.00  0.00    -0.201 OA
HETATM   21  O   UNK N   1      34.721  14.973  11.708  0.00  0.00    -0.201 OA
BRANCH  19  22
HETATM   22  N   UNK N   1      36.608  14.902  12.356  0.00  0.00    -0.305 N 
HETATM   23  H   UNK N   1      37.066  15.686  12.823  0.00  0.00     0.172 HD
BRANCH  22  24
HETATM   24  C   UNK N   1      36.412  13.567  12.903  0.00  0.00     0.242 C 
BRANCH  24  25
HETATM   25  C   UNK N   1      36.215  13.640  14.381  0.00  0.00     0.158 C 
HETATM   26  O   UNK N   1      35.111  13.438  14.858  0.00  0.00    -0.649 OA
BRANCH  25  27
HETATM   27  O   UNK N   1      37.250  13.941  15.188  0.00  0.00    -0.775 OA
HETATM   28  H   UNK N   1      38.102  13.598  15.004  0.00  0.00     0.167 HD
ENDBRANCH  25  27
ENDBRANCH  24  25
ENDBRANCH  22  24
ENDBRANCH  19  22
ENDBRANCH   5  19
TORSDOF 7
ENDMDL
MODEL 2
REMARK VINA RESULT:      -7.6      8.145     12.185
REMARK  7 active torsions:
REMARK  status: ('A' for Active; 'I' for Inactive)
REMARK    1  A    between atoms: C_1  and  N_14 
REMARK    2  A    between atoms: C_7  and  S_10 
REMARK    3  A    between atoms: O_9  and  C_25 
REMARK    4  A    between atoms: S_10  and  N_23 
REMARK    5  A    between atoms: C_11  and  C_19 
REMARK    6  A    between atoms: N_23  and  C_24 
REMARK    7  A    between atoms: C_24  and  C_25 
ROOT
HETATM    1  C   UNK N   1      26.778  18.404   4.820  0.00  0.00     0.030 A 
HETATM    2  C   UNK N   1      26.438  19.570   4.116  0.00  0.00     0.031 A 
HETATM    3  C   UNK N   1      25.137  19.757   3.643  0.00  0.00     0.027 A 
HETATM    4  C   UNK N   1      25.793  17.426   5.029  0.00  0.00     0.031 A 
HETATM    5  C   UNK N   1      24.137  18.770   3.857  0.00  0.00     0.079 A 
HETATM    6  C   UNK N   1      24.490  17.610   4.558  0.00  0.00     0.027 A 
ENDROOT
BRANCH   1   7
HETATM    7  N   UNK N   1      28.109  18.207   5.302  0.00  0.00    -0.381 N 
HETATM    8  C   UNK N   1      29.126  17.590   4.478  0.00  0.00     0.123 C 
HETATM    9  C   UNK N   1      29.578  16.284   5.135  0.00  0.00     0.029 C 
HETATM   10  C   UNK N   1      29.931  16.463   6.628  0.00  0.00     0.021 C 
HETATM   11  C   UNK N   1      28.841  17.240   7.383  0.00  0.00     0.029 C 
HETATM   12  C   UNK N   1      28.460  18.530   6.664  0.00  0.00     0.123 C 
BRANCH  10  13
HETATM   13  C   UNK N   1      31.322  16.973   6.920  0.00  0.00    -0.054 A 
HETATM   14  C   UNK N   1      31.666  17.519   8.167  0.00  0.00     0.007 A 
HETATM   15  C   UNK N   1      32.952  18.028   8.382  0.00  0.00     0.001 A 
HETATM   16  C   UNK N   1      33.899  17.998   7.355  0.00  0.00     0.000 A 
HETATM   17  C   UNK N   1      33.564  17.457   6.112  0.00  0.00     0.001 A 
HETATM   18  C   UNK N   1      32.279  16.952   5.895  0.00  0.00     0.007 A 
ENDBRANCH  10  13
ENDBRANCH   1   7
BRANCH   5  19
HETATM   19  S   UNK N   1      22.375  18.935   3.345  0.00  0.00     0.259 S 
HETATM   20  O   UNK N   1      22.121  18.736   4.848  0.00  0.00    -0.201 OA
HETATM   21  O   UNK N   1      23.006  20.338   3.376  0.00  0.00    -0.201 OA
BRANCH  19  22
HETATM   22  N   UNK N   1      21.032  20.070   3.524  0.00  0.00    -0.305 N 
HETATM   23  H   UNK N   1      20.937  20.784   4.248  0.00  0.00     0.172 HD
BRANCH  22  24
HETATM   24  C   UNK N   1      20.087  19.798   2.452  0.00  0.00     0.242 C 
BRANCH  24  25
HETATM   25  C   UNK N   1      20.528  20.471   1.194  0.00  0.00     0.158 C 
HETATM   26  O   UNK N   1      20.805  21.659   1.205  0.00  0.00    -0.649 OA
BRANCH  25  27
HETATM   27  O   UNK N   1      20.607  19.774   0.045  0.00  0.00    -0.775 OA
HETATM   28  H   UNK N   1      21.293  19.956  -0.566  0.00  0.00     0.167 HD
ENDBRANCH  25  27
ENDBRANCH  24  25
ENDBRANCH  22  24
ENDBRANCH  19  22
ENDBRANCH   5  19
TORSDOF 7
ENDMDL
MODEL 3
REMARK VINA RESULT:      -7.3      4.816     11.523
REMARK  7 active torsions:
REMARK  status: ('A' for Active; 'I' for Inactive)
REMARK    1  A    between atoms: C_1  and  N_14 
REMARK    2  A    between atoms: C_7  and  S_10 
REMARK    3  A    between atoms: O_9  and  C_25 
REMARK    4  A    between atoms: S_10  and  N_23 
REMARK    5  A    between atoms: C_11  and  C_19 
REMARK    6  A    between atoms: N_23  and  C_24 
REMARK    7  A    between atoms: C_24  and  C_25 
ROOT
HETATM    1  C   UNK N   1      35.759  12.915  13.375  0.00  0.00     0.030 A 
HETATM    2  C   UNK N   1      36.022  14.287  13.228  0.00  0.00     0.031 A 
HETATM    3  C   UNK N   1      35.831  14.917  11.996  0.00  0.00     0.027 A 
HETATM    4  C   UNK N   1      35.313  12.188  12.260  0.00  0.00     0.031 A 
HETATM    5  C   UNK N   1      35.377  14.182  10.868  0.00  0.00     0.079 A 
HETATM    6  C   UNK N   1      35.120  12.815  11.026  0.00  0.00     0.027 A 
ENDROOT
BRANCH   1   7
HETATM    7  N   UNK N   1      35.956  12.266  14.633  0.00  0.00    -0.381 N 
HETATM    8  C   UNK N   1      35.993  10.824  14.740  0.00  0.00     0.123 C 
HETATM    9  C   UNK N   1      34.828  10.359  15.617  0.00  0.00     0.029 C 
HETATM   10  C   UNK N   1      34.742  11.136  16.949  0.00  0.00     0.021 C 
HETATM   11  C   UNK N   1      34.839  12.655  16.731  0.00  0.00     0.029 C 
HETATM   12  C   UNK N   1      36.031  13.029  15.856  0.00  0.00     0.123 C 
BRANCH  10  13
HETATM   13  C   UNK N   1      35.641  10.645  18.058  0.00  0.00    -0.054 A 
HETATM   14  C   UNK N   1      36.421   9.485  17.924  0.00  0.00     0.007 A 
HETATM   15  C   UNK N   1      37.203   9.034  18.993  0.00  0.00     0.001 A 
HETATM   16  C   UNK N   1      37.210   9.735  20.202  0.00  0.00     0.000 A 
HETATM   17  C   UNK N   1      36.436  10.889  20.343  0.00  0.00     0.001 A 
HETATM   18  C   UNK N   1      35.652  11.339  19.277  0.00  0.00     0.007 A 
ENDBRANCH  10  13
ENDBRANCH   1   7
BRANCH   5  19
HETATM   19  S   UNK N   1      35.022  14.915   9.215  0.00  0.00     0.259 S 
HETATM   20  O   UNK N   1      33.813  13.968   9.270  0.00  0.00    -0.201 OA
HETATM   21  O   UNK N   1      34.603  15.927  10.295  0.00  0.00    -0.201 OA
BRANCH  19  22
HETATM   22  N   UNK N   1      33.835  15.979   8.452  0.00  0.00    -0.305 N 
HETATM   23  H   UNK N   1      33.170  15.718   7.724  0.00  0.00     0.172 HD
BRANCH  22  24
HETATM   24  C   UNK N   1      33.982  17.296   9.053  0.00  0.00     0.242 C 
BRANCH  24  25
HETATM   25  C   UNK N   1      34.616  18.237   8.084  0.00  0.00     0.158 C 
HETATM   26  O   UNK N   1      34.506  18.041   6.885  0.00  0.00    -0.649 OA
BRANCH  25  27
HETATM   27  O   UNK N   1      35.320  19.296   8.529  0.00  0.00    -0.775 OA
HETATM   28  H   UNK N   1      35.782  19.839   7.923  0.00  0.00     0.167 HD
ENDBRANCH  25  27
ENDBRANCH  24  25
ENDBRANCH  22  24
ENDBRANCH  19  22
ENDBRANCH   5  19
TORSDOF 7
ENDMDL
MODEL 4
REMARK VINA RESULT:      -7.0      6.179     10.593
REMARK  7 active torsions:
REMARK  status: ('A' for Active; 'I' for Inactive)
REMARK    1  A    between atoms: C_1  and  N_14 
REMARK    2  A    between atoms: C_7  and  S_10 
REMARK    3  A    between atoms: O_9  and  C_25 
REMARK    4  A    between atoms: S_10  and  N_23 
REMARK    5  A    between atoms: C_11  and  C_19 
REMARK    6  A    between atoms: N_23  and  C_24 
REMARK    7  A    between atoms: C_24  and  C_25 
ROOT
HETATM    1  C   UNK N   1      30.360  17.483   7.081  0.00  0.00     0.030 A 
HETATM    2  C   UNK N   1      30.244  17.365   5.687  0.00  0.00     0.031 A 
HETATM    3  C   UNK N   1      29.086  17.791   5.033  0.00  0.00     0.027 A 
HETATM    4  C   UNK N   1      29.287  18.025   7.806  0.00  0.00     0.031 A 
HETATM    5  C   UNK N   1      28.000  18.344   5.766  0.00  0.00     0.079 A 
HETATM    6  C   UNK N   1      28.127  18.453   7.156  0.00  0.00     0.027 A 
ENDROOT
BRANCH   1   7
HETATM    7  N   UNK N   1      31.542  17.044   7.754  0.00  0.00    -0.381 N 
HETATM    8  C   UNK N   1      32.502  17.986   8.285  0.00  0.00     0.123 C 
HETATM    9  C   UNK N   1      33.838  17.800   7.562  0.00  0.00     0.029 C 
HETATM   10  C   UNK N   1      34.288  16.323   7.522  0.00  0.00     0.021 C 
HETATM   11  C   UNK N   1      33.154  15.393   7.064  0.00  0.00     0.029 C 
HETATM   12  C   UNK N   1      31.866  15.640   7.842  0.00  0.00     0.123 C 
BRANCH  10  13
HETATM   13  C   UNK N   1      35.000  15.817   8.754  0.00  0.00    -0.054 A 
HETATM   14  C   UNK N   1      34.996  16.535   9.961  0.00  0.00     0.007 A 
HETATM   15  C   UNK N   1      35.710  16.057  11.066  0.00  0.00     0.001 A 
HETATM   16  C   UNK N   1      36.432  14.864  10.973  0.00  0.00     0.000 A 
HETATM   17  C   UNK N   1      36.440  14.146   9.775  0.00  0.00     0.001 A 
HETATM   18  C   UNK N   1      35.731  14.623   8.670  0.00  0.00     0.007 A 
ENDBRANCH  10  13
ENDBRANCH   1   7
BRANCH   5  19
HETATM   19  S   UNK N   1      26.455  19.003   5.010  0.00  0.00     0.259 S 
HETATM   20  O   UNK N   1      27.441  19.627   4.009  0.00  0.00    -0.201 OA
HETATM   21  O   UNK N   1      26.594  17.522   4.617  0.00  0.00    -0.201 OA
BRANCH  19  22
HETATM   22  N   UNK N   1      25.490  18.795   3.544  0.00  0.00    -0.305 N 
HETATM   23  H   UNK N   1      25.784  18.318   2.691  0.00  0.00     0.172 HD
BRANCH  22  24
HETATM   24  C   UNK N   1      24.201  19.429   3.779  0.00  0.00     0.242 C 
BRANCH  24  25
HETATM   25  C   UNK N   1      24.025  20.593   2.861  0.00  0.00     0.158 C 
HETATM   26  O   UNK N   1      24.920  20.902   2.092  0.00  0.00    -0.649 OA
BRANCH  25  27
HETATM   27  O   UNK N   1      22.886  21.311   2.890  0.00  0.00    -0.775 OA
HETATM   28  H   UNK N   1      22.112  20.977   2.483  0.00  0.00     0.167 HD
ENDBRANCH  25  27
ENDBRANCH  24  25
ENDBRANCH  22  24
ENDBRANCH  19  22
ENDBRANCH   5  19
TORSDOF 7
ENDMDL
MODEL 5
REMARK VINA RESULT:      -6.9     13.510     15.155
REMARK  7 active torsions:
REMARK  status: ('A' for Active; 'I' for Inactive)
REMARK    1  A    between atoms: C_1  and  N_14 
REMARK    2  A    between atoms: C_7  and  S_10 
REMARK    3  A    between atoms: O_9  and  C_25 
REMARK    4  A    between atoms: S_10  and  N_23 
REMARK    5  A    between atoms: C_11  and  C_19 
REMARK    6  A    between atoms: N_23  and  C_24 
REMARK    7  A    between atoms: C_24  and  C_25 
ROOT
HETATM    1  C   UNK N   1      30.807  22.861  -4.901  0.00  0.00     0.030 A 
HETATM    2  C   UNK N   1      32.118  23.297  -4.649  0.00  0.00     0.031 A 
HETATM    3  C   UNK N   1      33.192  22.410  -4.756  0.00  0.00     0.027 A 
HETATM    4  C   UNK N   1      30.595  21.518  -5.250  0.00  0.00     0.031 A 
HETATM    5  C   UNK N   1      32.979  21.051  -5.113  0.00  0.00     0.079 A 
HETATM    6  C   UNK N   1      31.666  20.628  -5.359  0.00  0.00     0.027 A 
ENDROOT
BRANCH   1   7
HETATM    7  N   UNK N   1      29.706  23.764  -4.788  0.00  0.00    -0.381 N 
HETATM    8  C   UNK N   1      29.336  24.349  -3.518  0.00  0.00     0.123 C 
HETATM    9  C   UNK N   1      27.927  23.884  -3.144  0.00  0.00     0.029 C 
HETATM   10  C   UNK N   1      26.916  24.073  -4.297  0.00  0.00     0.021 C 
HETATM   11  C   UNK N   1      27.460  23.529  -5.628  0.00  0.00     0.029 C 
HETATM   12  C   UNK N   1      28.862  24.050  -5.924  0.00  0.00     0.123 C 
BRANCH  10  13
HETATM   13  C   UNK N   1      26.317  25.452  -4.429  0.00  0.00    -0.054 A 
HETATM   14  C   UNK N   1      26.437  26.415  -3.414  0.00  0.00     0.007 A 
HETATM   15  C   UNK N   1      25.823  27.665  -3.552  0.00  0.00     0.001 A 
HETATM   16  C   UNK N   1      25.086  27.961  -4.702  0.00  0.00     0.000 A 
HETATM   17  C   UNK N   1      24.961  27.008  -5.715  0.00  0.00     0.001 A 
HETATM   18  C   UNK N   1      25.570  25.757  -5.576  0.00  0.00     0.007 A 
ENDBRANCH  10  13
ENDBRANCH   1   7
BRANCH   5  19
HETATM   19  S   UNK N   1      34.318  19.809  -5.354  0.00  0.00     0.259 S 
HETATM   20  O   UNK N   1      35.116  20.785  -4.473  0.00  0.00    -0.201 OA
HETATM   21  O   UNK N   1      33.334  19.265  -4.304  0.00  0.00    -0.201 OA
BRANCH  19  22
HETATM   22  N   UNK N   1      35.220  18.617  -4.410  0.00  0.00    -0.305 N 
HETATM   23  H   UNK N   1      36.209  18.666  -4.162  0.00  0.00     0.172 HD
BRANCH  22  24
HETATM   24  C   UNK N   1      34.293  17.553  -4.054  0.00  0.00     0.242 C 
BRANCH  24  25
HETATM   25  C   UNK N   1      35.041  16.370  -3.536  0.00  0.00     0.158 C 
HETATM   26  O   UNK N   1      36.251  16.308  -3.673  0.00  0.00    -0.649 OA
BRANCH  25  27
HETATM   27  O   UNK N   1      34.382  15.365  -2.930  0.00  0.00    -0.775 OA
HETATM   28  H   UNK N   1      33.601  15.543  -2.444  0.00  0.00     0.167 HD
ENDBRANCH  25  27
ENDBRANCH  24  25
ENDBRANCH  22  24
ENDBRANCH  19  22
ENDBRANCH   5  19
TORSDOF 7
ENDMDL
MODEL 6
REMARK VINA RESULT:      -6.9      2.513      4.143
REMARK  7 active torsions:
REMARK  status: ('A' for Active; 'I' for Inactive)
REMARK    1  A    between atoms: C_1  and  N_14 
REMARK    2  A    between atoms: C_7  and  S_10 
REMARK    3  A    between atoms: O_9  and  C_25 
REMARK    4  A    between atoms: S_10  and  N_23 
REMARK    5  A    between atoms: C_11  and  C_19 
REMARK    6  A    between atoms: N_23  and  C_24 
REMARK    7  A    between atoms: C_24  and  C_25 
ROOT
HETATM    1  C   UNK N   1      29.452  17.730   6.745  0.00  0.00     0.030 A 
HETATM    2  C   UNK N   1      29.593  17.991   8.117  0.00  0.00     0.031 A 
HETATM    3  C   UNK N   1      30.776  17.662   8.782  0.00  0.00     0.027 A 
HETATM    4  C   UNK N   1      30.515  17.124   6.057  0.00  0.00     0.031 A 
HETATM    5  C   UNK N   1      31.855  17.051   8.087  0.00  0.00     0.079 A 
HETATM    6  C   UNK N   1      31.701  16.794   6.719  0.00  0.00     0.027 A 
ENDROOT
BRANCH   1   7
HETATM    7  N   UNK N   1      28.241  18.061   6.061  0.00  0.00    -0.381 N 
HETATM    8  C   UNK N   1      27.579  17.110   5.195  0.00  0.00     0.123 C 
HETATM    9  C   UNK N   1      27.565  17.660   3.768  0.00  0.00     0.029 C 
HETATM   10  C   UNK N   1      27.049  19.114   3.698  0.00  0.00     0.021 C 
HETATM   11  C   UNK N   1      27.728  20.011   4.745  0.00  0.00     0.029 C 
HETATM   12  C   UNK N   1      27.687  19.392   6.138  0.00  0.00     0.123 C 
BRANCH  10  13
HETATM   13  C   UNK N   1      25.548  19.280   3.669  0.00  0.00    -0.054 A 
HETATM   14  C   UNK N   1      24.684  18.319   4.218  0.00  0.00     0.007 A 
HETATM   15  C   UNK N   1      23.297  18.484   4.126  0.00  0.00     0.001 A 
HETATM   16  C   UNK N   1      22.765  19.607   3.485  0.00  0.00     0.000 A 
HETATM   17  C   UNK N   1      23.619  20.566   2.936  0.00  0.00     0.001 A 
HETATM   18  C   UNK N   1      25.004  20.400   3.024  0.00  0.00     0.007 A 
ENDBRANCH  10  13
ENDBRANCH   1   7
BRANCH   5  19
HETATM   19  S   UNK N   1      33.485  16.638   8.839  0.00  0.00     0.259 S 
HETATM   20  O   UNK N   1      32.731  15.384   9.310  0.00  0.00    -0.201 OA
HETATM   21  O   UNK N   1      33.556  16.341   7.331  0.00  0.00    -0.201 OA
BRANCH  19  22
HETATM   22  N   UNK N   1      34.792  15.466   8.633  0.00  0.00    -0.305 N 
HETATM   23  H   UNK N   1      35.271  15.243   7.760  0.00  0.00     0.172 HD
BRANCH  22  24
HETATM   24  C   UNK N   1      35.059  14.879   9.938  0.00  0.00     0.242 C 
BRANCH  24  25
HETATM   25  C   UNK N   1      36.362  15.376  10.470  0.00  0.00     0.158 C 
HETATM   26  O   UNK N   1      36.443  16.507  10.920  0.00  0.00    -0.649 OA
BRANCH  25  27
HETATM   27  O   UNK N   1      37.451  14.585  10.443  0.00  0.00    -0.775 OA
HETATM   28  H   UNK N   1      37.360  13.659  10.555  0.00  0.00     0.167 HD
ENDBRANCH  25  27
ENDBRANCH  24  25
ENDBRANCH  22  24
ENDBRANCH  19  22
ENDBRANCH   5  19
TORSDOF 7
ENDMDL
MODEL 7
REMARK VINA RESULT:      -6.6      2.220      3.205
REMARK  7 active torsions:
REMARK  status: ('A' for Active; 'I' for Inactive)
REMARK    1  A    between atoms: C_1  and  N_14 
REMARK    2  A    between atoms: C_7  and  S_10 
REMARK    3  A    between atoms: O_9  and  C_25 
REMARK    4  A    between atoms: S_10  and  N_23 
REMARK    5  A    between atoms: C_11  and  C_19 
REMARK    6  A    between atoms: N_23  and  C_24 
REMARK    7  A    between atoms: C_24  and  C_25 
ROOT
HETATM    1  C   UNK N   1      30.189  17.404   6.735  0.00  0.00     0.030 A 
HETATM    2  C   UNK N   1      30.312  17.313   8.131  0.00  0.00     0.031 A 
HETATM    3  C   UNK N   1      31.531  16.960   8.713  0.00  0.00     0.027 A 
HETATM    4  C   UNK N   1      31.310  17.123   5.937  0.00  0.00     0.031 A 
HETATM    5  C   UNK N   1      32.667  16.678   7.906  0.00  0.00     0.079 A 
HETATM    6  C   UNK N   1      32.531  16.770   6.515  0.00  0.00     0.027 A 
ENDROOT
BRANCH   1   7
HETATM    7  N   UNK N   1      28.942  17.761   6.135  0.00  0.00    -0.381 N 
HETATM    8  C   UNK N   1      27.681  17.371   6.726  0.00  0.00     0.123 C 
HETATM    9  C   UNK N   1      26.940  16.446   5.758  0.00  0.00     0.029 C 
HETATM   10  C   UNK N   1      26.869  17.022   4.326  0.00  0.00     0.021 C 
HETATM   11  C   UNK N   1      28.239  17.523   3.844  0.00  0.00     0.029 C 
HETATM   12  C   UNK N   1      28.900  18.444   4.864  0.00  0.00     0.123 C 
BRANCH  10  13
HETATM   13  C   UNK N   1      25.759  18.014   4.070  0.00  0.00    -0.054 A 
HETATM   14  C   UNK N   1      24.428  17.749   4.431  0.00  0.00     0.007 A 
HETATM   15  C   UNK N   1      23.420  18.672   4.130  0.00  0.00     0.001 A 
HETATM   16  C   UNK N   1      23.732  19.861   3.465  0.00  0.00     0.000 A 
HETATM   17  C   UNK N   1      25.054  20.130   3.102  0.00  0.00     0.001 A 
HETATM   18  C   UNK N   1      26.061  19.208   3.399  0.00  0.00     0.007 A 
ENDBRANCH  10  13
ENDBRANCH   1   7
BRANCH   5  19
HETATM   19  S   UNK N   1      34.341  16.272   8.560  0.00  0.00     0.259 S 
HETATM   20  O   UNK N   1      34.306  17.740   9.016  0.00  0.00    -0.201 OA
HETATM   21  O   UNK N   1      33.290  15.683   9.516  0.00  0.00    -0.201 OA
BRANCH  19  22
HETATM   22  N   UNK N   1      35.155  16.071  10.116  0.00  0.00    -0.305 N 
HETATM   23  H   UNK N   1      35.954  16.609  10.453  0.00  0.00     0.172 HD
BRANCH  22  24
HETATM   24  C   UNK N   1      34.477  14.997  10.825  0.00  0.00     0.242 C 
BRANCH  24  25
HETATM   25  C   UNK N   1      35.251  14.614  12.042  0.00  0.00     0.158 C 
HETATM   26  O   UNK N   1      34.806  13.776  12.808  0.00  0.00    -0.649 OA
BRANCH  25  27
HETATM   27  O   UNK N   1      36.435  15.200  12.303  0.00  0.00    -0.775 OA
HETATM   28  H   UNK N   1      36.784  15.185  13.173  0.00  0.00     0.167 HD
ENDBRANCH  25  27
ENDBRANCH  24  25
ENDBRANCH  22  24
ENDBRANCH  19  22
ENDBRANCH   5  19
TORSDOF 7
ENDMDL
MODEL 8
REMARK VINA RESULT:      -6.5      8.759     12.375
REMARK  7 active torsions:
REMARK  status: ('A' for Active; 'I' for Inactive)
REMARK    1  A    between atoms: C_1  and  N_14 
REMARK    2  A    between atoms: C_7  and  S_10 
REMARK    3  A    between atoms: O_9  and  C_25 
REMARK    4  A    between atoms: S_10  and  N_23 
REMARK    5  A    between atoms: C_11  and  C_19 
REMARK    6  A    between atoms: N_23  and  C_24 
REMARK    7  A    between atoms: C_24  and  C_25 
ROOT
HETATM    1  C   UNK N   1      25.337  17.163   4.751  0.00  0.00     0.030 A 
HETATM    2  C   UNK N   1      24.455  16.096   4.517  0.00  0.00     0.031 A 
HETATM    3  C   UNK N   1      23.091  16.333   4.332  0.00  0.00     0.027 A 
HETATM    4  C   UNK N   1      24.823  18.468   4.808  0.00  0.00     0.031 A 
HETATM    5  C   UNK N   1      22.569  17.654   4.386  0.00  0.00     0.079 A 
HETATM    6  C   UNK N   1      23.459  18.709   4.623  0.00  0.00     0.027 A 
ENDROOT
BRANCH   1   7
HETATM    7  N   UNK N   1      26.733  16.925   4.944  0.00  0.00    -0.381 N 
HETATM    8  C   UNK N   1      27.223  16.206   6.100  0.00  0.00     0.123 C 
HETATM    9  C   UNK N   1      28.109  17.138   6.930  0.00  0.00     0.029 C 
HETATM   10  C   UNK N   1      29.176  17.856   6.075  0.00  0.00     0.021 C 
HETATM   11  C   UNK N   1      28.569  18.477   4.807  0.00  0.00     0.029 C 
HETATM   12  C   UNK N   1      27.712  17.478   4.038  0.00  0.00     0.123 C 
BRANCH  10  13
HETATM   13  C   UNK N   1      30.436  17.071   5.798  0.00  0.00    -0.054 A 
HETATM   14  C   UNK N   1      30.854  16.019   6.629  0.00  0.00     0.007 A 
HETATM   15  C   UNK N   1      32.055  15.349   6.367  0.00  0.00     0.001 A 
HETATM   16  C   UNK N   1      32.845  15.726   5.277  0.00  0.00     0.000 A 
HETATM   17  C   UNK N   1      32.436  16.772   4.447  0.00  0.00     0.001 A 
HETATM   18  C   UNK N   1      31.239  17.444   4.710  0.00  0.00     0.007 A 
ENDBRANCH  10  13
ENDBRANCH   1   7
BRANCH   5  19
HETATM   19  S   UNK N   1      20.805  18.096   4.090  0.00  0.00     0.259 S 
HETATM   20  O   UNK N   1      21.252  19.453   4.656  0.00  0.00    -0.201 OA
HETATM   21  O   UNK N   1      21.547  18.125   2.742  0.00  0.00    -0.201 OA
BRANCH  19  22
HETATM   22  N   UNK N   1      19.849  19.138   3.029  0.00  0.00    -0.305 N 
HETATM   23  H   UNK N   1      18.914  19.498   3.221  0.00  0.00     0.172 HD
BRANCH  22  24
HETATM   24  C   UNK N   1      20.641  19.385   1.834  0.00  0.00     0.242 C 
BRANCH  24  25
HETATM   25  C   UNK N   1      20.878  20.849   1.667  0.00  0.00     0.158 C 
HETATM   26  O   UNK N   1      20.633  21.387   0.600  0.00  0.00    -0.649 OA
BRANCH  25  27
HETATM   27  O   UNK N   1      21.373  21.576   2.687  0.00  0.00    -0.775 OA
HETATM   28  H   UNK N   1      21.904  21.165   3.340  0.00  0.00     0.167 HD
ENDBRANCH  25  27
ENDBRANCH  24  25
ENDBRANCH  22  24
ENDBRANCH  19  22
ENDBRANCH   5  19
TORSDOF 7
ENDMDL
MODEL 9
REMARK VINA RESULT:      -6.4      4.467     11.787
REMARK  7 active torsions:
REMARK  status: ('A' for Active; 'I' for Inactive)
REMARK    1  A    between atoms: C_1  and  N_14 
REMARK    2  A    between atoms: C_7  and  S_10 
REMARK    3  A    between atoms: O_9  and  C_25 
REMARK    4  A    between atoms: S_10  and  N_23 
REMARK    5  A    between atoms: C_11  and  C_19 
REMARK    6  A    between atoms: N_23  and  C_24 
REMARK    7  A    between atoms: C_24  and  C_25 
ROOT
HETATM    1  C   UNK N   1      35.385  11.839  12.797  0.00  0.00     0.030 A 
HETATM    2  C   UNK N   1      35.145  11.595  11.435  0.00  0.00     0.031 A 
HETATM    3  C   UNK N   1      34.950  12.657  10.549  0.00  0.00     0.027 A 
HETATM    4  C   UNK N   1      35.413  13.166  13.253  0.00  0.00     0.031 A 
HETATM    5  C   UNK N   1      34.981  14.002  11.009  0.00  0.00     0.079 A 
HETATM    6  C   UNK N   1      35.219  14.231  12.370  0.00  0.00     0.027 A 
ENDROOT
BRANCH   1   7
HETATM    7  N   UNK N   1      35.581  10.755  13.707  0.00  0.00    -0.381 N 
HETATM    8  C   UNK N   1      34.496  10.238  14.511  0.00  0.00     0.123 C 
HETATM    9  C   UNK N   1      34.822  10.455  15.990  0.00  0.00     0.029 C 
HETATM   10  C   UNK N   1      36.236   9.961  16.364  0.00  0.00     0.021 C 
HETATM   11  C   UNK N   1      37.297  10.465  15.372  0.00  0.00     0.029 C 
HETATM   12  C   UNK N   1      36.896  10.199  13.925  0.00  0.00     0.123 C 
BRANCH  10  13
HETATM   13  C   UNK N   1      36.363   8.485  16.657  0.00  0.00    -0.054 A 
HETATM   14  C   UNK N   1      35.243   7.685  16.938  0.00  0.00     0.007 A 
HETATM   15  C   UNK N   1      35.407   6.332  17.256  0.00  0.00     0.001 A 
HETATM   16  C   UNK N   1      36.686   5.770  17.296  0.00  0.00     0.000 A 
HETATM   17  C   UNK N   1      37.804   6.560  17.017  0.00  0.00     0.001 A 
HETATM   18  C   UNK N   1      37.642   7.912  16.704  0.00  0.00     0.007 A 
ENDBRANCH  10  13
ENDBRANCH   1   7
BRANCH   5  19
HETATM   19  S   UNK N   1      34.808  15.482   9.927  0.00  0.00     0.259 S 
HETATM   20  O   UNK N   1      33.319  15.100   9.971  0.00  0.00    -0.201 OA
HETATM   21  O   UNK N   1      34.992  15.960  11.378  0.00  0.00    -0.201 OA
BRANCH  19  22
HETATM   22  N   UNK N   1      34.131  17.114   9.994  0.00  0.00    -0.305 N 
HETATM   23  H   UNK N   1      34.162  17.748  10.793  0.00  0.00     0.172 HD
BRANCH  22  24
HETATM   24  C   UNK N   1      33.521  17.384   8.701  0.00  0.00     0.242 C 
BRANCH  24  25
HETATM   25  C   UNK N   1      34.453  18.177   7.846  0.00  0.00     0.158 C 
HETATM   26  O   UNK N   1      34.527  17.948   6.651  0.00  0.00    -0.649 OA
BRANCH  25  27
HETATM   27  O   UNK N   1      35.224  19.136   8.395  0.00  0.00    -0.775 OA
HETATM   28  H   UNK N   1      36.098  19.267   8.086  0.00  0.00     0.167 HD
ENDBRANCH  25  27
ENDBRANCH  24  25
ENDBRANCH  22  24
ENDBRANCH  19  22
ENDBRANCH   5  19
TORSDOF 7
ENDMDL
