MODEL 1
REMARK VINA RESULT:      -7.3      0.000      0.000
REMARK  9 active torsions:
REMARK  status: ('A' for Active; 'I' for Inactive)
REMARK    1  A    between atoms: C_1  and  N_20 
REMARK    2  A    between atoms: C_2  and  S_21 
REMARK       I    between atoms: C_3  and  N_20 
REMARK    3  A    between atoms: C_3  and  C_23 
REMARK    4  A    between atoms: C_9  and  O_26 
REMARK       I    between atoms: C_9  and  N_28 
REMARK    5  A    between atoms: C_10  and  O_26 
REMARK    6  A    between atoms: C_10  and  C_29 
REMARK    7  A    between atoms: C_23  and  C_24 
REMARK    8  A    between atoms: C_24  and  C_25 
REMARK    9  A    between atoms: C_24  and  N_28 
ROOT
HETATM    1  C   UNK N   1      36.181  12.470  14.567  0.00  0.00     0.128 C 
ENDROOT
BRANCH   1   2
HETATM    2  C   UNK N   1      34.991  12.667  13.593  0.00  0.00     0.133 C 
BRANCH   2   3
HETATM    3  C   UNK N   1      35.339  13.515  12.398  0.00  0.00     0.225 C 
HETATM    4  N   UNK N   1      34.351  13.906  11.555  0.00  0.00    -0.306 N 
HETATM    5  H   UNK N   1      33.524  13.372  11.510  0.00  0.00     0.171 HD
HETATM    6  O   UNK N   1      36.475  13.955  12.267  0.00  0.00    -0.273 OA
BRANCH   4   7
HETATM    7  C   UNK N   1      34.470  15.058  10.739  0.00  0.00     0.168 A 
HETATM    8  S   UNK N   1      33.759  15.300   9.272  0.00  0.00    -0.026 SA
HETATM    9  C   UNK N   1      34.184  16.893   9.168  0.00  0.00     0.127 A 
HETATM   10  N   UNK N   1      34.863  17.245  10.292  0.00  0.00    -0.286 N 
HETATM   11  N   UNK N   1      35.016  16.229  11.166  0.00  0.00    -0.278 N 
ATOM     12  HN  UNK N   1      35.223  18.185  10.458  1.00  0.00     0.188 HD
ATOM     13  HN  UNK N   1      35.493  16.330  12.063  1.00  0.00     0.189 HD
BRANCH   9  14
HETATM   14  S   UNK N   1      33.806  18.009   7.828  0.00  0.00    -0.117 SA
HETATM   15  H   UNK N   1      32.924  17.649   6.857  0.00  0.00     0.109 HD
ENDBRANCH   9  14
ENDBRANCH   4   7
ENDBRANCH   2   3
ENDBRANCH   1   2
BRANCH   1  16
HETATM   16  C   UNK N   1      36.280  13.472  15.717  0.00  0.00    -0.035 A 
HETATM   17  C   UNK N   1      37.116  14.602  15.653  0.00  0.00     0.009 A 
HETATM   18  C   UNK N   1      37.149  15.526  16.698  0.00  0.00     0.001 A 
HETATM   19  C   UNK N   1      36.335  15.339  17.816  0.00  0.00     0.000 A 
HETATM   20  C   UNK N   1      35.494  14.225  17.890  0.00  0.00     0.001 A 
HETATM   21  C   UNK N   1      35.466  13.297  16.845  0.00  0.00     0.009 A 
ENDBRANCH   1  16
BRANCH   1  22
HETATM   22  N   UNK N   1      36.172  11.115  15.110  0.00  0.00    -0.328 N 
HETATM   23  C   UNK N   1      37.276  10.307  15.126  0.00  0.00     0.361 C 
HETATM   24  O   UNK N   1      38.340  10.707  14.688  0.00  0.00    -0.238 OA
HETATM   25  H   UNK N   1      35.330  10.767  15.484  0.00  0.00     0.165 HD
BRANCH  23  26
HETATM   26  O   UNK N   1      37.198   9.026  15.572  0.00  0.00    -0.299 OA
BRANCH  26  27
HETATM   27  C   UNK N   1      37.316   8.636  16.889  0.00  0.00     0.219 C 
BRANCH  27  28
HETATM   28  C   UNK N   1      36.279   9.181  17.817  0.00  0.00    -0.034 A 
HETATM   29  C   UNK N   1      36.668  10.137  18.758  0.00  0.00     0.009 A 
HETATM   30  C   UNK N   1      35.762  10.594  19.717  0.00  0.00     0.001 A 
HETATM   31  C   UNK N   1      34.462  10.082  19.748  0.00  0.00     0.000 A 
HETATM   32  C   UNK N   1      34.067   9.120  18.812  0.00  0.00     0.001 A 
HETATM   33  C   UNK N   1      34.976   8.663  17.848  0.00  0.00     0.009 A 
ENDBRANCH  27  28
ENDBRANCH  26  27
ENDBRANCH  23  26
ENDBRANCH   1  22
TORSDOF 9
ENDMDL
MODEL 2
REMARK VINA RESULT:      -7.3     20.908     24.907
REMARK  9 active torsions:
REMARK  status: ('A' for Active; 'I' for Inactive)
REMARK    1  A    between atoms: C_1  and  N_20 
REMARK    2  A    between atoms: C_2  and  S_21 
REMARK       I    between atoms: C_3  and  N_20 
REMARK    3  A    between atoms: C_3  and  C_23 
REMARK    4  A    between atoms: C_9  and  O_26 
REMARK       I    between atoms: C_9  and  N_28 
REMARK    5  A    between atoms: C_10  and  O_26 
REMARK    6  A    between atoms: C_10  and  C_29 
REMARK    7  A    between atoms: C_23  and  C_24 
REMARK    8  A    between atoms: C_24  and  C_25 
REMARK    9  A    between atoms: C_24  and  N_28 
ROOT
HETATM    1  C   UNK N   1      28.774  24.339  -4.104  0.00  0.00     0.128 C 
ENDROOT
BRANCH   1   2
HETATM    2  C   UNK N   1      28.709  23.570  -2.758  0.00  0.00     0.133 C 
BRANCH   2   3
HETATM    3  C   UNK N   1      29.922  22.713  -2.509  0.00  0.00     0.225 C 
HETATM    4  N   UNK N   1      30.261  21.768  -3.422  0.00  0.00    -0.306 N 
HETATM    5  H   UNK N   1      29.564  21.410  -4.018  0.00  0.00     0.171 HD
HETATM    6  O   UNK N   1      30.664  22.957  -1.565  0.00  0.00    -0.273 OA
BRANCH   4   7
HETATM    7  C   UNK N   1      31.586  21.282  -3.543  0.00  0.00     0.168 A 
HETATM    8  S   UNK N   1      32.497  21.248  -4.916  0.00  0.00    -0.026 SA
HETATM    9  C   UNK N   1      33.894  20.811  -4.150  0.00  0.00     0.127 A 
HETATM   10  N   UNK N   1      33.656  20.713  -2.815  0.00  0.00    -0.286 N 
HETATM   11  N   UNK N   1      32.378  20.982  -2.477  0.00  0.00    -0.278 N 
ATOM     12  HN  UNK N   1      34.373  20.461  -2.135  1.00  0.00     0.188 HD
ATOM     13  HN  UNK N   1      32.039  20.963  -1.515  1.00  0.00     0.189 HD
BRANCH   9  14
HETATM   14  S   UNK N   1      35.483  20.530  -4.913  0.00  0.00    -0.117 SA
HETATM   15  H   UNK N   1      36.349  21.562  -5.103  0.00  0.00     0.109 HD
ENDBRANCH   9  14
ENDBRANCH   4   7
ENDBRANCH   2   3
ENDBRANCH   1   2
BRANCH   1  16
HETATM   16  C   UNK N   1      27.893  23.797  -5.229  0.00  0.00    -0.035 A 
HETATM   17  C   UNK N   1      28.437  23.264  -6.412  0.00  0.00     0.009 A 
HETATM   18  C   UNK N   1      27.609  22.732  -7.402  0.00  0.00     0.001 A 
HETATM   19  C   UNK N   1      26.226  22.713  -7.214  0.00  0.00     0.000 A 
HETATM   20  C   UNK N   1      25.672  23.232  -6.041  0.00  0.00     0.001 A 
HETATM   21  C   UNK N   1      26.502  23.770  -5.053  0.00  0.00     0.009 A 
ENDBRANCH   1  16
BRANCH   1  22
HETATM   22  N   UNK N   1      28.471  25.752  -3.895  0.00  0.00    -0.328 N 
HETATM   23  C   UNK N   1      29.267  26.764  -4.358  0.00  0.00     0.361 C 
HETATM   24  O   UNK N   1      30.276  26.515  -4.992  0.00  0.00    -0.238 OA
HETATM   25  H   UNK N   1      27.654  25.986  -3.397  0.00  0.00     0.165 HD
BRANCH  23  26
HETATM   26  O   UNK N   1      28.982  28.062  -4.071  0.00  0.00    -0.299 OA
BRANCH  26  27
HETATM   27  C   UNK N   1      28.117  28.861  -4.786  0.00  0.00     0.219 C 
BRANCH  27  28
HETATM   28  C   UNK N   1      27.094  28.136  -5.600  0.00  0.00    -0.034 A 
HETATM   29  C   UNK N   1      25.842  27.894  -5.030  0.00  0.00     0.009 A 
HETATM   30  C   UNK N   1      24.894  27.126  -5.709  0.00  0.00     0.001 A 
HETATM   31  C   UNK N   1      25.202  26.582  -6.958  0.00  0.00     0.000 A 
HETATM   32  C   UNK N   1      26.456  26.816  -7.533  0.00  0.00     0.001 A 
HETATM   33  C   UNK N   1      27.407  27.589  -6.853  0.00  0.00     0.009 A 
ENDBRANCH  27  28
ENDBRANCH  26  27
ENDBRANCH  23  26
ENDBRANCH   1  22
TORSDOF 9
ENDMDL
MODEL 3
REMARK VINA RESULT:      -7.2      2.722      4.861
REMARK  9 active torsions:
REMARK  status: ('A' for Active; 'I' for Inactive)
REMARK    1  A    between atoms: C_1  and  N_20 
REMARK    2  A    between atoms: C_2  and  S_21 
REMARK       I    between atoms: C_3  and  N_20 
REMARK    3  A    between atoms: C_3  and  C_23 
REMARK    4  A    between atoms: C_9  and  O_26 
REMARK       I    between atoms: C_9  and  N_28 
REMARK    5  A    between atoms: C_10  and  O_26 
REMARK    6  A    between atoms: C_10  and  C_29 
REMARK    7  A    between atoms: C_23  and  C_24 
REMARK    8  A    between atoms: C_24  and  C_25 
REMARK    9  A    between atoms: C_24  and  N_28 
ROOT
HETATM    1  C   UNK N   1      36.388  14.192  11.491  0.00  0.00     0.128 C 
ENDROOT
BRANCH   1   2
HETATM    2  C   UNK N   1      36.167  15.703  11.224  0.00  0.00     0.133 C 
BRANCH   2   3
HETATM    3  C   UNK N   1      34.859  15.996  10.535  0.00  0.00     0.225 C 
HETATM    4  N   UNK N   1      34.709  17.173   9.877  0.00  0.00    -0.306 N 
HETATM    5  H   UNK N   1      35.268  17.940  10.139  0.00  0.00     0.171 HD
HETATM    6  O   UNK N   1      33.998  15.128  10.458  0.00  0.00    -0.273 OA
BRANCH   4   7
HETATM    7  C   UNK N   1      33.773  17.331   8.825  0.00  0.00     0.168 A 
HETATM    8  S   UNK N   1      34.101  17.322   7.210  0.00  0.00    -0.026 SA
HETATM    9  C   UNK N   1      32.517  17.300   6.742  0.00  0.00     0.127 A 
HETATM   10  N   UNK N   1      31.728  17.276   7.849  0.00  0.00    -0.286 N 
HETATM   11  N   UNK N   1      32.425  17.286   9.004  0.00  0.00    -0.278 N 
ATOM     12  HN  UNK N   1      30.709  17.254   7.811  1.00  0.00     0.188 HD
ATOM     13  HN  UNK N   1      31.983  17.260   9.924  1.00  0.00     0.189 HD
BRANCH   9  14
HETATM   14  S   UNK N   1      31.903  17.281   5.067  0.00  0.00    -0.117 SA
HETATM   15  H   UNK N   1      32.333  18.202   4.163  0.00  0.00     0.109 HD
ENDBRANCH   9  14
ENDBRANCH   4   7
ENDBRANCH   2   3
ENDBRANCH   1   2
BRANCH   1  16
HETATM   16  C   UNK N   1      37.434  13.502  10.616  0.00  0.00    -0.035 A 
HETATM   17  C   UNK N   1      37.727  12.131  10.743  0.00  0.00     0.009 A 
HETATM   18  C   UNK N   1      38.652  11.518   9.897  0.00  0.00     0.001 A 
HETATM   19  C   UNK N   1      39.286  12.265   8.903  0.00  0.00     0.000 A 
HETATM   20  C   UNK N   1      39.000  13.625   8.761  0.00  0.00     0.001 A 
HETATM   21  C   UNK N   1      38.077  14.240   9.612  0.00  0.00     0.009 A 
ENDBRANCH   1  16
BRANCH   1  22
HETATM   22  N   UNK N   1      36.715  13.969  12.896  0.00  0.00    -0.328 N 
HETATM   23  C   UNK N   1      35.812  13.494  13.809  0.00  0.00     0.361 C 
HETATM   24  O   UNK N   1      34.676  13.218  13.466  0.00  0.00    -0.238 OA
HETATM   25  H   UNK N   1      37.629  14.170  13.201  0.00  0.00     0.165 HD
BRANCH  23  26
HETATM   26  O   UNK N   1      36.142  13.376  15.121  0.00  0.00    -0.299 OA
BRANCH  26  27
HETATM   27  C   UNK N   1      35.306  13.663  16.179  0.00  0.00     0.219 C 
BRANCH  27  28
HETATM   28  C   UNK N   1      35.437  12.763  17.366  0.00  0.00    -0.034 A 
HETATM   29  C   UNK N   1      35.668  11.404  17.145  0.00  0.00     0.009 A 
HETATM   30  C   UNK N   1      35.688  10.508  18.216  0.00  0.00     0.001 A 
HETATM   31  C   UNK N   1      35.459  10.969  19.515  0.00  0.00     0.000 A 
HETATM   32  C   UNK N   1      35.222  12.329  19.742  0.00  0.00     0.001 A 
HETATM   33  C   UNK N   1      35.205  13.228  18.668  0.00  0.00     0.009 A 
ENDBRANCH  27  28
ENDBRANCH  26  27
ENDBRANCH  23  26
ENDBRANCH   1  22
TORSDOF 9
ENDMDL
MODEL 4
REMARK VINA RESULT:      -7.1      5.672     11.187
REMARK  9 active torsions:
REMARK  status: ('A' for Active; 'I' for Inactive)
REMARK    1  A    between atoms: C_1  and  N_20 
REMARK    2  A    between atoms: C_2  and  S_21 
REMARK       I    between atoms: C_3  and  N_20 
REMARK    3  A    between atoms: C_3  and  C_23 
REMARK    4  A    between atoms: C_9  and  O_26 
REMARK       I    between atoms: C_9  and  N_28 
REMARK    5  A    between atoms: C_10  and  O_26 
REMARK    6  A    between atoms: C_10  and  C_29 
REMARK    7  A    between atoms: C_23  and  C_24 
REMARK    8  A    between atoms: C_24  and  C_25 
REMARK    9  A    between atoms: C_24  and  N_28 
ROOT
HETATM    1  C   UNK N   1      33.304  16.615   7.854  0.00  0.00     0.128 C 
ENDROOT
BRANCH   1   2
HETATM    2  C   UNK N   1      34.261  17.546   8.642  0.00  0.00     0.133 C 
BRANCH   2   3
HETATM    3  C   UNK N   1      34.913  16.865   9.817  0.00  0.00     0.225 C 
HETATM    4  N   UNK N   1      34.734  15.531   9.988  0.00  0.00    -0.306 N 
HETATM    5  H   UNK N   1      33.939  15.102   9.596  0.00  0.00     0.171 HD
HETATM    6  O   UNK N   1      35.699  17.481  10.526  0.00  0.00    -0.273 OA
BRANCH   4   7
HETATM    7  C   UNK N   1      35.656  14.736  10.713  0.00  0.00     0.168 A 
HETATM    8  S   UNK N   1      35.302  13.421  11.641  0.00  0.00    -0.026 SA
HETATM    9  C   UNK N   1      36.877  12.981  11.873  0.00  0.00     0.127 A 
HETATM   10  N   UNK N   1      37.683  13.849  11.206  0.00  0.00    -0.286 N 
HETATM   11  N   UNK N   1      37.006  14.818  10.556  0.00  0.00    -0.278 N 
ATOM     12  HN  UNK N   1      38.700  13.775  11.197  1.00  0.00     0.188 HD
ATOM     13  HN  UNK N   1      37.462  15.541  10.000  1.00  0.00     0.189 HD
BRANCH   9  14
HETATM   14  S   UNK N   1      37.463  11.584  12.817  0.00  0.00    -0.117 SA
HETATM   15  H   UNK N   1      37.556  10.354  12.244  0.00  0.00     0.109 HD
ENDBRANCH   9  14
ENDBRANCH   4   7
ENDBRANCH   2   3
ENDBRANCH   1   2
BRANCH   1  16
HETATM   16  C   UNK N   1      31.867  17.111   7.694  0.00  0.00    -0.035 A 
HETATM   17  C   UNK N   1      31.067  16.741   6.596  0.00  0.00     0.009 A 
HETATM   18  C   UNK N   1      29.743  17.170   6.502  0.00  0.00     0.001 A 
HETATM   19  C   UNK N   1      29.196  17.963   7.511  0.00  0.00     0.000 A 
HETATM   20  C   UNK N   1      29.975  18.332   8.611  0.00  0.00     0.001 A 
HETATM   21  C   UNK N   1      31.304  17.907   8.702  0.00  0.00     0.009 A 
ENDBRANCH   1  16
BRANCH   1  22
HETATM   22  N   UNK N   1      33.858  16.318   6.536  0.00  0.00    -0.328 N 
HETATM   23  C   UNK N   1      34.466  15.129   6.231  0.00  0.00     0.361 C 
HETATM   24  O   UNK N   1      34.553  14.249   7.067  0.00  0.00    -0.238 OA
HETATM   25  H   UNK N   1      33.791  17.005   5.835  0.00  0.00     0.165 HD
BRANCH  23  26
HETATM   26  O   UNK N   1      35.034  14.929   5.013  0.00  0.00    -0.299 OA
BRANCH  26  27
HETATM   27  C   UNK N   1      34.407  14.355   3.929  0.00  0.00     0.219 C 
BRANCH  27  28
HETATM   28  C   UNK N   1      33.127  15.002   3.508  0.00  0.00    -0.034 A 
HETATM   29  C   UNK N   1      33.162  16.336   3.095  0.00  0.00     0.009 A 
HETATM   30  C   UNK N   1      31.979  17.014   2.799  0.00  0.00     0.001 A 
HETATM   31  C   UNK N   1      30.750  16.363   2.931  0.00  0.00     0.000 A 
HETATM   32  C   UNK N   1      30.707  15.029   3.349  0.00  0.00     0.001 A 
HETATM   33  C   UNK N   1      31.895  14.347   3.645  0.00  0.00     0.009 A 
ENDBRANCH  27  28
ENDBRANCH  26  27
ENDBRANCH  23  26
ENDBRANCH   1  22
TORSDOF 9
ENDMDL
MODEL 5
REMARK VINA RESULT:      -7.1      5.000     11.644
REMARK  9 active torsions:
REMARK  status: ('A' for Active; 'I' for Inactive)
REMARK    1  A    between atoms: C_1  and  N_20 
REMARK    2  A    between atoms: C_2  and  S_21 
REMARK       I    between atoms: C_3  and  N_20 
REMARK    3  A    between atoms: C_3  and  C_23 
REMARK    4  A    between atoms: C_9  and  O_26 
REMARK       I    between atoms: C_9  and  N_28 
REMARK    5  A    between atoms: C_10  and  O_26 
REMARK    6  A    between atoms: C_10  and  C_29 
REMARK    7  A    between atoms: C_23  and  C_24 
REMARK    8  A    between atoms: C_24  and  C_25 
REMARK    9  A    between atoms: C_24  and  N_28 
ROOT
HETATM    1  C   UNK N   1      33.876  16.567   7.191  0.00  0.00     0.128 C 
ENDROOT
BRANCH   1   2
HETATM    2  C   UNK N   1      34.819  15.537   7.867  0.00  0.00     0.133 C 
BRANCH   2   3
HETATM    3  C   UNK N   1      34.796  15.614   9.371  0.00  0.00     0.225 C 
HETATM    4  N   UNK N   1      34.872  14.466  10.091  0.00  0.00    -0.306 N 
HETATM    5  H   UNK N   1      34.588  13.622   9.673  0.00  0.00     0.171 HD
HETATM    6  O   UNK N   1      34.844  16.702   9.932  0.00  0.00    -0.273 OA
BRANCH   4   7
HETATM    7  C   UNK N   1      35.349  14.447  11.425  0.00  0.00     0.168 A 
HETATM    8  S   UNK N   1      35.121  13.247  12.531  0.00  0.00    -0.026 SA
HETATM    9  C   UNK N   1      36.166  13.878  13.644  0.00  0.00     0.127 A 
HETATM   10  N   UNK N   1      36.714  15.016  13.142  0.00  0.00    -0.286 N 
HETATM   11  N   UNK N   1      36.267  15.328  11.909  0.00  0.00    -0.278 N 
ATOM     12  HN  UNK N   1      37.396  15.581  13.649  1.00  0.00     0.188 HD
ATOM     13  HN  UNK N   1      36.587  16.145  11.388  1.00  0.00     0.189 HD
BRANCH   9  14
HETATM   14  S   UNK N   1      36.560  13.191  15.244  0.00  0.00    -0.117 SA
HETATM   15  H   UNK N   1      36.946  13.999  16.267  0.00  0.00     0.109 HD
ENDBRANCH   9  14
ENDBRANCH   4   7
ENDBRANCH   2   3
ENDBRANCH   1   2
BRANCH   1  16
HETATM   16  C   UNK N   1      33.684  16.413   5.683  0.00  0.00    -0.035 A 
HETATM   17  C   UNK N   1      34.081  15.251   4.995  0.00  0.00     0.009 A 
HETATM   18  C   UNK N   1      33.848  15.118   3.626  0.00  0.00     0.001 A 
HETATM   19  C   UNK N   1      33.201  16.139   2.929  0.00  0.00     0.000 A 
HETATM   20  C   UNK N   1      32.794  17.295   3.600  0.00  0.00     0.001 A 
HETATM   21  C   UNK N   1      33.033  17.431   4.971  0.00  0.00     0.009 A 
ENDBRANCH   1  16
BRANCH   1  22
HETATM   22  N   UNK N   1      32.571  16.563   7.845  0.00  0.00    -0.328 N 
HETATM   23  C   UNK N   1      31.998  17.685   8.379  0.00  0.00     0.361 C 
HETATM   24  O   UNK N   1      32.567  18.760   8.313  0.00  0.00    -0.238 OA
HETATM   25  H   UNK N   1      32.080  15.711   7.903  0.00  0.00     0.165 HD
BRANCH  23  26
HETATM   26  O   UNK N   1      30.815  17.615   9.045  0.00  0.00    -0.299 OA
BRANCH  26  27
HETATM   27  C   UNK N   1      29.624  17.186   8.504  0.00  0.00     0.219 C 
BRANCH  27  28
HETATM   28  C   UNK N   1      29.152  17.942   7.304  0.00  0.00    -0.034 A 
HETATM   29  C   UNK N   1      28.294  19.027   7.499  0.00  0.00     0.009 A 
HETATM   30  C   UNK N   1      27.740  19.695   6.405  0.00  0.00     0.001 A 
HETATM   31  C   UNK N   1      28.031  19.268   5.107  0.00  0.00     0.000 A 
HETATM   32  C   UNK N   1      28.885  18.179   4.904  0.00  0.00     0.001 A 
HETATM   33  C   UNK N   1      29.443  17.509   6.002  0.00  0.00     0.009 A 
ENDBRANCH  27  28
ENDBRANCH  26  27
ENDBRANCH  23  26
ENDBRANCH   1  22
TORSDOF 9
ENDMDL
MODEL 6
REMARK VINA RESULT:      -7.0      3.629      7.581
REMARK  9 active torsions:
REMARK  status: ('A' for Active; 'I' for Inactive)
REMARK    1  A    between atoms: C_1  and  N_20 
REMARK    2  A    between atoms: C_2  and  S_21 
REMARK       I    between atoms: C_3  and  N_20 
REMARK    3  A    between atoms: C_3  and  C_23 
REMARK    4  A    between atoms: C_9  and  O_26 
REMARK       I    between atoms: C_9  and  N_28 
REMARK    5  A    between atoms: C_10  and  O_26 
REMARK    6  A    between atoms: C_10  and  C_29 
REMARK    7  A    between atoms: C_23  and  C_24 
REMARK    8  A    between atoms: C_24  and  C_25 
REMARK    9  A    between atoms: C_24  and  N_28 
ROOT
HETATM    1  C   UNK N   1      36.217  13.466  14.018  0.00  0.00     0.128 C 
ENDROOT
BRANCH   1   2
HETATM    2  C   UNK N   1      37.003  12.151  13.779  0.00  0.00     0.133 C 
BRANCH   2   3
HETATM    3  C   UNK N   1      36.340  11.240  12.778  0.00  0.00     0.225 C 
HETATM    4  N   UNK N   1      34.985  11.215  12.706  0.00  0.00    -0.306 N 
HETATM    5  H   UNK N   1      34.461  11.485  13.494  0.00  0.00     0.171 HD
HETATM    6  O   UNK N   1      37.016  10.637  11.954  0.00  0.00    -0.273 OA
BRANCH   4   7
HETATM    7  C   UNK N   1      34.303  10.812  11.531  0.00  0.00     0.168 A 
HETATM    8  S   UNK N   1      33.679   9.318  11.223  0.00  0.00    -0.026 SA
HETATM    9  C   UNK N   1      32.883   9.777   9.850  0.00  0.00     0.127 A 
HETATM   10  N   UNK N   1      33.085  11.105   9.643  0.00  0.00    -0.286 N 
HETATM   11  N   UNK N   1      33.866  11.681  10.579  0.00  0.00    -0.278 N 
ATOM     12  HN  UNK N   1      32.685  11.617   8.856  1.00  0.00     0.188 HD
ATOM     13  HN  UNK N   1      34.105  12.673  10.575  1.00  0.00     0.189 HD
BRANCH   9  14
HETATM   14  S   UNK N   1      31.887   8.733   8.799  0.00  0.00    -0.117 SA
HETATM   15  H   UNK N   1      32.451   8.062   7.758  0.00  0.00     0.109 HD
ENDBRANCH   9  14
ENDBRANCH   4   7
ENDBRANCH   2   3
ENDBRANCH   1   2
BRANCH   1  16
HETATM   16  C   UNK N   1      36.376  14.101  15.399  0.00  0.00    -0.035 A 
HETATM   17  C   UNK N   1      37.226  15.201  15.622  0.00  0.00     0.009 A 
HETATM   18  C   UNK N   1      37.314  15.790  16.884  0.00  0.00     0.001 A 
HETATM   19  C   UNK N   1      36.542  15.297  17.936  0.00  0.00     0.000 A 
HETATM   20  C   UNK N   1      35.688  14.211  17.728  0.00  0.00     0.001 A 
HETATM   21  C   UNK N   1      35.604  13.617  16.465  0.00  0.00     0.009 A 
ENDBRANCH   1  16
BRANCH   1  22
HETATM   22  N   UNK N   1      36.556  14.451  12.995  0.00  0.00    -0.328 N 
HETATM   23  C   UNK N   1      35.691  14.827  12.002  0.00  0.00     0.361 C 
HETATM   24  O   UNK N   1      34.572  14.350  11.946  0.00  0.00    -0.238 OA
HETATM   25  H   UNK N   1      37.449  14.865  13.021  0.00  0.00     0.165 HD
BRANCH  23  26
HETATM   26  O   UNK N   1      36.080  15.691  11.028  0.00  0.00    -0.299 OA
BRANCH  26  27
HETATM   27  C   UNK N   1      35.362  16.790  10.609  0.00  0.00     0.219 C 
BRANCH  27  28
HETATM   28  C   UNK N   1      34.839  16.722   9.210  0.00  0.00    -0.034 A 
HETATM   29  C   UNK N   1      34.919  15.505   8.530  0.00  0.00     0.009 A 
HETATM   30  C   UNK N   1      34.545  15.420   7.188  0.00  0.00     0.001 A 
HETATM   31  C   UNK N   1      34.103  16.561   6.514  0.00  0.00     0.000 A 
HETATM   32  C   UNK N   1      34.025  17.785   7.187  0.00  0.00     0.001 A 
HETATM   33  C   UNK N   1      34.399  17.870   8.536  0.00  0.00     0.009 A 
ENDBRANCH  27  28
ENDBRANCH  26  27
ENDBRANCH  23  26
ENDBRANCH   1  22
TORSDOF 9
ENDMDL
MODEL 7
REMARK VINA RESULT:      -7.0     13.302     16.372
REMARK  9 active torsions:
REMARK  status: ('A' for Active; 'I' for Inactive)
REMARK    1  A    between atoms: C_1  and  N_20 
REMARK    2  A    between atoms: C_2  and  S_21 
REMARK       I    between atoms: C_3  and  N_20 
REMARK    3  A    between atoms: C_3  and  C_23 
REMARK    4  A    between atoms: C_9  and  O_26 
REMARK       I    between atoms: C_9  and  N_28 
REMARK    5  A    between atoms: C_10  and  O_26 
REMARK    6  A    between atoms: C_10  and  C_29 
REMARK    7  A    between atoms: C_23  and  C_24 
REMARK    8  A    between atoms: C_24  and  C_25 
REMARK    9  A    between atoms: C_24  and  N_28 
ROOT
HETATM    1  C   UNK N   1      22.739  13.503   7.845  0.00  0.00     0.128 C 
ENDROOT
BRANCH   1   2
HETATM    2  C   UNK N   1      24.013  13.853   7.032  0.00  0.00     0.133 C 
BRANCH   2   3
HETATM    3  C   UNK N   1      23.810  15.007   6.084  0.00  0.00     0.225 C 
HETATM    4  N   UNK N   1      24.565  16.124   6.231  0.00  0.00    -0.306 N 
HETATM    5  H   UNK N   1      24.955  16.322   7.114  0.00  0.00     0.171 HD
HETATM    6  O   UNK N   1      23.070  14.882   5.115  0.00  0.00    -0.273 OA
BRANCH   4   7
HETATM    7  C   UNK N   1      24.811  17.012   5.156  0.00  0.00     0.168 A 
HETATM    8  S   UNK N   1      23.989  18.400   4.822  0.00  0.00    -0.026 SA
HETATM    9  C   UNK N   1      25.035  18.907   3.648  0.00  0.00     0.127 A 
HETATM   10  N   UNK N   1      26.043  18.003   3.531  0.00  0.00    -0.286 N 
HETATM   11  N   UNK N   1      25.923  16.955   4.372  0.00  0.00    -0.278 N 
ATOM     12  HN  UNK N   1      26.814  18.105   2.871  1.00  0.00     0.188 HD
ATOM     13  HN  UNK N   1      26.601  16.194   4.418  1.00  0.00     0.189 HD
BRANCH   9  14
HETATM   14  S   UNK N   1      24.911  20.407   2.688  0.00  0.00    -0.117 SA
HETATM   15  H   UNK N   1      24.253  21.490   3.181  0.00  0.00     0.109 HD
ENDBRANCH   9  14
ENDBRANCH   4   7
ENDBRANCH   2   3
ENDBRANCH   1   2
BRANCH   1  16
HETATM   16  C   UNK N   1      22.971  12.969   9.258  0.00  0.00    -0.035 A 
HETATM   17  C   UNK N   1      21.906  12.665  10.126  0.00  0.00     0.009 A 
HETATM   18  C   UNK N   1      22.147  12.133  11.393  0.00  0.00     0.001 A 
HETATM   19  C   UNK N   1      23.457  11.883  11.803  0.00  0.00     0.000 A 
HETATM   20  C   UNK N   1      24.525  12.173  10.950  0.00  0.00     0.001 A 
HETATM   21  C   UNK N   1      24.283  12.712   9.683  0.00  0.00     0.009 A 
ENDBRANCH   1  16
BRANCH   1  22
HETATM   22  N   UNK N   1      21.847  14.657   7.908  0.00  0.00    -0.328 N 
HETATM   23  C   UNK N   1      20.546  14.620   7.484  0.00  0.00     0.361 C 
HETATM   24  O   UNK N   1      20.070  13.590   7.041  0.00  0.00    -0.238 OA
HETATM   25  H   UNK N   1      22.198  15.501   8.274  0.00  0.00     0.165 HD
BRANCH  23  26
HETATM   26  O   UNK N   1      19.777  15.741   7.493  0.00  0.00    -0.299 OA
BRANCH  26  27
HETATM   27  C   UNK N   1      20.176  16.973   7.962  0.00  0.00     0.219 C 
BRANCH  27  28
HETATM   28  C   UNK N   1      19.226  17.643   8.902  0.00  0.00    -0.034 A 
HETATM   29  C   UNK N   1      19.676  18.751   9.623  0.00  0.00     0.009 A 
HETATM   30  C   UNK N   1      18.863  19.341  10.592  0.00  0.00     0.001 A 
HETATM   31  C   UNK N   1      17.596  18.813  10.855  0.00  0.00     0.000 A 
HETATM   32  C   UNK N   1      17.141  17.700  10.140  0.00  0.00     0.001 A 
HETATM   33  C   UNK N   1      17.957  17.109   9.166  0.00  0.00     0.009 A 
ENDBRANCH  27  28
ENDBRANCH  26  27
ENDBRANCH  23  26
ENDBRANCH   1  22
TORSDOF 9
ENDMDL
MODEL 8
REMARK VINA RESULT:      -7.0      6.835     11.574
REMARK  9 active torsions:
REMARK  status: ('A' for Active; 'I' for Inactive)
REMARK    1  A    between atoms: C_1  and  N_20 
REMARK    2  A    between atoms: C_2  and  S_21 
REMARK       I    between atoms: C_3  and  N_20 
REMARK    3  A    between atoms: C_3  and  C_23 
REMARK    4  A    between atoms: C_9  and  O_26 
REMARK       I    between atoms: C_9  and  N_28 
REMARK    5  A    between atoms: C_10  and  O_26 
REMARK    6  A    between atoms: C_10  and  C_29 
REMARK    7  A    between atoms: C_23  and  C_24 
REMARK    8  A    between atoms: C_24  and  C_25 
REMARK    9  A    between atoms: C_24  and  N_28 
ROOT
HETATM    1  C   UNK N   1      32.110  17.141   7.510  0.00  0.00     0.128 C 
ENDROOT
BRANCH   1   2
HETATM    2  C   UNK N   1      33.216  18.175   7.845  0.00  0.00     0.133 C 
BRANCH   2   3
HETATM    3  C   UNK N   1      34.211  17.669   8.857  0.00  0.00     0.225 C 
HETATM    4  N   UNK N   1      33.977  16.485   9.477  0.00  0.00    -0.306 N 
HETATM    5  H   UNK N   1      33.051  16.157   9.544  0.00  0.00     0.171 HD
HETATM    6  O   UNK N   1      35.277  18.252   9.015  0.00  0.00    -0.273 OA
BRANCH   4   7
HETATM    7  C   UNK N   1      35.024  15.707  10.029  0.00  0.00     0.168 A 
HETATM    8  S   UNK N   1      35.738  14.391   9.340  0.00  0.00    -0.026 SA
HETATM    9  C   UNK N   1      36.947  14.280  10.460  0.00  0.00     0.127 A 
HETATM   10  N   UNK N   1      36.808  15.287  11.363  0.00  0.00    -0.286 N 
HETATM   11  N   UNK N   1      35.747  16.082  11.120  0.00  0.00    -0.278 N 
ATOM     12  HN  UNK N   1      37.444  15.427  12.148  1.00  0.00     0.188 HD
ATOM     13  HN  UNK N   1      35.509  16.889  11.698  1.00  0.00     0.189 HD
BRANCH   9  14
HETATM   14  S   UNK N   1      38.256  13.067  10.496  0.00  0.00    -0.117 SA
HETATM   15  H   UNK N   1      39.236  13.137  11.436  0.00  0.00     0.109 HD
ENDBRANCH   9  14
ENDBRANCH   4   7
ENDBRANCH   2   3
ENDBRANCH   1   2
BRANCH   1  16
HETATM   16  C   UNK N   1      30.695  17.504   7.959  0.00  0.00    -0.035 A 
HETATM   17  C   UNK N   1      30.444  18.171   9.173  0.00  0.00     0.009 A 
HETATM   18  C   UNK N   1      29.146  18.532   9.534  0.00  0.00     0.001 A 
HETATM   19  C   UNK N   1      28.082  18.245   8.678  0.00  0.00     0.000 A 
HETATM   20  C   UNK N   1      28.316  17.590   7.466  0.00  0.00     0.001 A 
HETATM   21  C   UNK N   1      29.616  17.223   7.108  0.00  0.00     0.009 A 
ENDBRANCH   1  16
BRANCH   1  22
HETATM   22  N   UNK N   1      32.101  16.855   6.079  0.00  0.00    -0.328 N 
HETATM   23  C   UNK N   1      32.568  15.684   5.546  0.00  0.00     0.361 C 
HETATM   24  O   UNK N   1      33.006  14.809   6.271  0.00  0.00    -0.238 OA
HETATM   25  H   UNK N   1      31.741  17.539   5.468  0.00  0.00     0.165 HD
BRANCH  23  26
HETATM   26  O   UNK N   1      32.609  15.497   4.201  0.00  0.00    -0.299 OA
BRANCH  26  27
HETATM   27  C   UNK N   1      31.629  14.878   3.456  0.00  0.00     0.219 C 
BRANCH  27  28
HETATM   28  C   UNK N   1      30.227  15.291   3.766  0.00  0.00    -0.034 A 
HETATM   29  C   UNK N   1      29.434  14.428   4.527  0.00  0.00     0.009 A 
HETATM   30  C   UNK N   1      28.087  14.719   4.750  0.00  0.00     0.001 A 
HETATM   31  C   UNK N   1      27.522  15.870   4.196  0.00  0.00     0.000 A 
HETATM   32  C   UNK N   1      28.308  16.736   3.429  0.00  0.00     0.001 A 
HETATM   33  C   UNK N   1      29.661  16.445   3.207  0.00  0.00     0.009 A 
ENDBRANCH  27  28
ENDBRANCH  26  27
ENDBRANCH  23  26
ENDBRANCH   1  22
TORSDOF 9
ENDMDL
MODEL 9
REMARK VINA RESULT:      -6.9     14.261     17.195
REMARK  9 active torsions:
REMARK  status: ('A' for Active; 'I' for Inactive)
REMARK    1  A    between atoms: C_1  and  N_20 
REMARK    2  A    between atoms: C_2  and  S_21 
REMARK       I    between atoms: C_3  and  N_20 
REMARK    3  A    between atoms: C_3  and  C_23 
REMARK    4  A    between atoms: C_9  and  O_26 
REMARK       I    between atoms: C_9  and  N_28 
REMARK    5  A    between atoms: C_10  and  O_26 
REMARK    6  A    between atoms: C_10  and  C_29 
REMARK    7  A    between atoms: C_23  and  C_24 
REMARK    8  A    between atoms: C_24  and  C_25 
REMARK    9  A    between atoms: C_24  and  N_28 
ROOT
HETATM    1  C   UNK N   1      22.582  13.529   7.670  0.00  0.00     0.128 C 
ENDROOT
BRANCH   1   2
HETATM    2  C   UNK N   1      23.770  13.849   6.726  0.00  0.00     0.133 C 
BRANCH   2   3
HETATM    3  C   UNK N   1      23.389  14.758   5.586  0.00  0.00     0.225 C 
HETATM    4  N   UNK N   1      22.695  14.247   4.539  0.00  0.00    -0.306 N 
HETATM    5  H   UNK N   1      22.756  13.282   4.352  0.00  0.00     0.171 HD
HETATM    6  O   UNK N   1      23.587  15.964   5.669  0.00  0.00    -0.273 OA
BRANCH   4   7
HETATM    7  C   UNK N   1      21.886  15.058   3.706  0.00  0.00     0.168 A 
HETATM    8  S   UNK N   1      21.885  15.081   2.059  0.00  0.00    -0.026 SA
HETATM    9  C   UNK N   1      20.548  16.042   1.929  0.00  0.00     0.127 A 
HETATM   10  N   UNK N   1      20.085  16.327   3.175  0.00  0.00    -0.286 N 
HETATM   11  N   UNK N   1      20.822  15.776   4.160  0.00  0.00    -0.278 N 
ATOM     12  HN  UNK N   1      19.261  16.904   3.348  1.00  0.00     0.188 HD
ATOM     13  HN  UNK N   1      20.602  15.886   5.151  1.00  0.00     0.189 HD
BRANCH   9  14
HETATM   14  S   UNK N   1      19.789  16.610   0.417  0.00  0.00    -0.117 SA
HETATM   15  H   UNK N   1      19.394  15.721  -0.534  0.00  0.00     0.109 HD
ENDBRANCH   9  14
ENDBRANCH   4   7
ENDBRANCH   2   3
ENDBRANCH   1   2
BRANCH   1  16
HETATM   16  C   UNK N   1      22.948  12.949   9.036  0.00  0.00    -0.035 A 
HETATM   17  C   UNK N   1      24.285  12.762   9.434  0.00  0.00     0.009 A 
HETATM   18  C   UNK N   1      24.590  12.277  10.706  0.00  0.00     0.001 A 
HETATM   19  C   UNK N   1      23.562  11.985  11.603  0.00  0.00     0.000 A 
HETATM   20  C   UNK N   1      22.230  12.173  11.225  0.00  0.00     0.001 A 
HETATM   21  C   UNK N   1      21.925  12.654   9.948  0.00  0.00     0.009 A 
ENDBRANCH   1  16
BRANCH   1  22
HETATM   22  N   UNK N   1      21.751  14.714   7.859  0.00  0.00    -0.328 N 
HETATM   23  C   UNK N   1      20.475  14.818   7.376  0.00  0.00     0.361 C 
HETATM   24  O   UNK N   1      19.968  13.893   6.767  0.00  0.00    -0.238 OA
HETATM   25  H   UNK N   1      22.128  15.474   8.358  0.00  0.00     0.165 HD
BRANCH  23  26
HETATM   26  O   UNK N   1      19.769  15.972   7.511  0.00  0.00    -0.299 OA
BRANCH  26  27
HETATM   27  C   UNK N   1      20.200  17.090   8.190  0.00  0.00     0.219 C 
BRANCH  27  28
HETATM   28  C   UNK N   1      19.184  17.737   9.076  0.00  0.00    -0.034 A 
HETATM   29  C   UNK N   1      19.575  18.838   9.840  0.00  0.00     0.009 A 
HETATM   30  C   UNK N   1      18.695  19.406  10.763  0.00  0.00     0.001 A 
HETATM   31  C   UNK N   1      17.420  18.861  10.936  0.00  0.00     0.000 A 
HETATM   32  C   UNK N   1      17.023  17.755  10.177  0.00  0.00     0.001 A 
HETATM   33  C   UNK N   1      17.906  17.186   9.250  0.00  0.00     0.009 A 
ENDBRANCH  27  28
ENDBRANCH  26  27
ENDBRANCH  23  26
ENDBRANCH   1  22
TORSDOF 9
ENDMDL
