MODEL 1
REMARK VINA RESULT:      -7.5      0.000      0.000
REMARK  6 active torsions:
REMARK  status: ('A' for Active; 'I' for Inactive)
REMARK    1  A    between atoms: C_1  and  N_17 
REMARK    2  A    between atoms: C_2  and  S_18 
REMARK       I    between atoms: C_3  and  N_17 
REMARK       I    between atoms: C_3  and  N_20 
REMARK    3  A    between atoms: C_4  and  C_6 
REMARK    4  A    between atoms: C_4  and  C_21 
REMARK    5  A    between atoms: C_21  and  N_20 
REMARK    6  A    between atoms: C_21  and  C_22 
REMARK       I    between atoms: C_22  and  N_24 
ROOT
HETATM    1  C   UNK N   1      33.020  16.973   8.365  0.00  0.00     0.182 C 
ENDROOT
BRANCH   1   2
HETATM    2  C   UNK N   1      32.073  18.180   8.279  0.00  0.00     0.080 C 
BRANCH   2   3
HETATM    3  C   UNK N   1      30.694  17.705   7.920  0.00  0.00     0.028 A 
HETATM    4  C   UNK N   1      29.686  17.664   8.899  0.00  0.00     0.167 A 
HETATM    5  C   UNK N   1      28.385  17.285   8.549  0.00  0.00     0.197 A 
HETATM    6  F   UNK N   1      29.964  18.000  10.184  0.00  0.00    -0.202 F 
HETATM    7  C   UNK N   1      28.086  16.948   7.226  0.00  0.00     0.199 A 
HETATM    8  F   UNK N   1      27.413  17.257   9.494  0.00  0.00    -0.199 F 
HETATM    9  C   UNK N   1      29.089  16.976   6.251  0.00  0.00     0.197 A 
HETATM   10  F   UNK N   1      26.819  16.599   6.887  0.00  0.00    -0.199 F 
HETATM   11  C   UNK N   1      30.392  17.350   6.596  0.00  0.00     0.167 A 
HETATM   12  F   UNK N   1      28.793  16.653   4.968  0.00  0.00    -0.199 F 
HETATM   13  F   UNK N   1      31.354  17.387   5.639  0.00  0.00    -0.202 F 
ENDBRANCH   2   3
ENDBRANCH   1   2
BRANCH   1  14
HETATM   14  N   UNK N   1      33.835  17.074   9.570  0.00  0.00    -0.329 N 
HETATM   15  C   UNK N   1      34.757  16.141   9.920  0.00  0.00     0.322 C 
HETATM   16  N   UNK N   1      35.446  16.274  11.077  0.00  0.00    -0.288 N 
HETATM   17  O   UNK N   1      34.934  15.153   9.214  0.00  0.00    -0.247 OA
HETATM   18  H   UNK N   1      35.463  17.140  11.546  0.00  0.00     0.172 HD
HETATM   19  H   UNK N   1      33.711  17.855  10.155  0.00  0.00     0.165 HD
BRANCH  16  20
HETATM   20  C   UNK N   1      36.142  15.166  11.608  0.00  0.00     0.169 A 
HETATM   21  S   UNK N   1      35.642  14.276  12.901  0.00  0.00    -0.026 SA
HETATM   22  C   UNK N   1      36.811  13.133  12.750  0.00  0.00     0.127 A 
HETATM   23  N   UNK N   1      37.590  13.434  11.671  0.00  0.00    -0.286 N 
HETATM   24  N   UNK N   1      37.213  14.563  11.031  0.00  0.00    -0.278 N 
ATOM     25  HN  UNK N   1      38.382  12.862  11.377  1.00  0.00     0.188 HD
ATOM     26  HN  UNK N   1      37.684  14.924  10.202  1.00  0.00     0.189 HD
BRANCH  22  27
HETATM   27  S   UNK N   1      37.010  11.706  13.801  0.00  0.00    -0.117 SA
HETATM   28  H   UNK N   1      37.827  10.678  13.450  0.00  0.00     0.109 HD
ENDBRANCH  22  27
ENDBRANCH  16  20
ENDBRANCH   1  14
BRANCH   1  29
HETATM   29  C   UNK N   1      33.872  16.831   7.116  0.00  0.00     0.240 C 
HETATM   30  O   UNK N   1      34.526  17.778   6.698  0.00  0.00    -0.271 OA
HETATM   31  N   UNK N   1      33.929  15.638   6.475  0.00  0.00    -0.364 N 
HETATM   32  C   UNK N   1      34.732  15.455   5.292  0.00  0.00     0.149 C 
HETATM   33  H   UNK N   1      33.410  14.879   6.827  0.00  0.00     0.161 HD
ENDBRANCH   1  29
TORSDOF 6
ENDMDL
MODEL 2
REMARK VINA RESULT:      -7.5      0.146      2.065
REMARK  6 active torsions:
REMARK  status: ('A' for Active; 'I' for Inactive)
REMARK    1  A    between atoms: C_1  and  N_17 
REMARK    2  A    between atoms: C_2  and  S_18 
REMARK       I    between atoms: C_3  and  N_17 
REMARK       I    between atoms: C_3  and  N_20 
REMARK    3  A    between atoms: C_4  and  C_6 
REMARK    4  A    between atoms: C_4  and  C_21 
REMARK    5  A    between atoms: C_21  and  N_20 
REMARK    6  A    between atoms: C_21  and  C_22 
REMARK       I    between atoms: C_22  and  N_24 
ROOT
HETATM    1  C   UNK N   1      33.014  17.041   8.349  0.00  0.00     0.182 C 
ENDROOT
BRANCH   1   2
HETATM    2  C   UNK N   1      32.111  18.279   8.245  0.00  0.00     0.080 C 
BRANCH   2   3
HETATM    3  C   UNK N   1      30.707  17.846   7.935  0.00  0.00     0.028 A 
HETATM    4  C   UNK N   1      30.386  17.360   6.655  0.00  0.00     0.167 A 
HETATM    5  C   UNK N   1      29.095  16.894   6.386  0.00  0.00     0.197 A 
HETATM    6  F   UNK N   1      31.328  17.329   5.678  0.00  0.00    -0.202 F 
HETATM    7  C   UNK N   1      28.122  16.911   7.390  0.00  0.00     0.199 A 
HETATM    8  F   UNK N   1      28.792  16.415   5.154  0.00  0.00    -0.199 F 
HETATM    9  C   UNK N   1      28.433  17.406   8.661  0.00  0.00     0.197 A 
HETATM   10  F   UNK N   1      26.875  16.442   7.130  0.00  0.00    -0.199 F 
HETATM   11  C   UNK N   1      29.722  17.876   8.934  0.00  0.00     0.167 A 
HETATM   12  F   UNK N   1      27.488  17.415   9.633  0.00  0.00    -0.199 F 
HETATM   13  F   UNK N   1      30.016  18.341  10.175  0.00  0.00    -0.202 F 
ENDBRANCH   2   3
ENDBRANCH   1   2
BRANCH   1  14
HETATM   14  N   UNK N   1      33.820  17.122   9.561  0.00  0.00    -0.329 N 
HETATM   15  C   UNK N   1      34.749  16.190   9.896  0.00  0.00     0.322 C 
HETATM   16  N   UNK N   1      35.430  16.303  11.061  0.00  0.00    -0.288 N 
HETATM   17  O   UNK N   1      34.941  15.221   9.169  0.00  0.00    -0.247 OA
HETATM   18  H   UNK N   1      35.435  17.157  11.550  0.00  0.00     0.172 HD
HETATM   19  H   UNK N   1      33.685  17.887  10.164  0.00  0.00     0.165 HD
BRANCH  16  20
HETATM   20  C   UNK N   1      36.133  15.189  11.571  0.00  0.00     0.169 A 
HETATM   21  S   UNK N   1      35.632  14.262  12.837  0.00  0.00    -0.026 SA
HETATM   22  C   UNK N   1      36.815  13.137  12.668  0.00  0.00     0.127 A 
HETATM   23  N   UNK N   1      37.600  13.473  11.605  0.00  0.00    -0.286 N 
HETATM   24  N   UNK N   1      37.216  14.613  10.989  0.00  0.00    -0.278 N 
ATOM     25  HN  UNK N   1      38.401  12.918  11.305  1.00  0.00     0.188 HD
ATOM     26  HN  UNK N   1      37.691  15.000  10.174  1.00  0.00     0.189 HD
BRANCH  22  27
HETATM   27  S   UNK N   1      37.021  11.686  13.686  0.00  0.00    -0.117 SA
HETATM   28  H   UNK N   1      38.096  11.545  14.506  0.00  0.00     0.109 HD
ENDBRANCH  22  27
ENDBRANCH  16  20
ENDBRANCH   1  14
BRANCH   1  29
HETATM   29  C   UNK N   1      33.874  16.859   7.110  0.00  0.00     0.240 C 
HETATM   30  O   UNK N   1      34.552  17.785   6.682  0.00  0.00    -0.271 OA
HETATM   31  N   UNK N   1      33.911  15.655   6.489  0.00  0.00    -0.364 N 
HETATM   32  C   UNK N   1      34.719  15.435   5.317  0.00  0.00     0.149 C 
HETATM   33  H   UNK N   1      33.373  14.913   6.849  0.00  0.00     0.161 HD
ENDBRANCH   1  29
TORSDOF 6
ENDMDL
MODEL 3
REMARK VINA RESULT:      -7.5      6.274     10.140
REMARK  6 active torsions:
REMARK  status: ('A' for Active; 'I' for Inactive)
REMARK    1  A    between atoms: C_1  and  N_17 
REMARK    2  A    between atoms: C_2  and  S_18 
REMARK       I    between atoms: C_3  and  N_17 
REMARK       I    between atoms: C_3  and  N_20 
REMARK    3  A    between atoms: C_4  and  C_6 
REMARK    4  A    between atoms: C_4  and  C_21 
REMARK    5  A    between atoms: C_21  and  N_20 
REMARK    6  A    between atoms: C_21  and  C_22 
REMARK       I    between atoms: C_22  and  N_24 
ROOT
HETATM    1  C   UNK N   1      35.197  11.230  13.703  0.00  0.00     0.182 C 
ENDROOT
BRANCH   1   2
HETATM    2  C   UNK N   1      34.204  10.749  14.771  0.00  0.00     0.080 C 
BRANCH   2   3
HETATM    3  C   UNK N   1      34.678  11.193  16.126  0.00  0.00     0.028 A 
HETATM    4  C   UNK N   1      34.736  12.562  16.438  0.00  0.00     0.167 A 
HETATM    5  C   UNK N   1      35.114  12.973  17.720  0.00  0.00     0.197 A 
HETATM    6  F   UNK N   1      34.417  13.493  15.502  0.00  0.00    -0.202 F 
HETATM    7  C   UNK N   1      35.433  12.022  18.694  0.00  0.00     0.199 A 
HETATM    8  F   UNK N   1      35.158  14.294  18.021  0.00  0.00    -0.199 F 
HETATM    9  C   UNK N   1      35.389  10.658  18.385  0.00  0.00     0.197 A 
HETATM   10  F   UNK N   1      35.781  12.424  19.943  0.00  0.00    -0.199 F 
HETATM   11  C   UNK N   1      35.016  10.242  17.102  0.00  0.00     0.167 A 
HETATM   12  F   UNK N   1      35.694   9.739  19.333  0.00  0.00    -0.199 F 
HETATM   13  F   UNK N   1      34.963   8.916  16.817  0.00  0.00    -0.202 F 
ENDBRANCH   2   3
ENDBRANCH   1   2
BRANCH   1  14
HETATM   14  N   UNK N   1      34.469  11.845  12.599  0.00  0.00    -0.329 N 
HETATM   15  C   UNK N   1      34.915  12.947  11.941  0.00  0.00     0.322 C 
HETATM   16  N   UNK N   1      34.166  13.493  10.955  0.00  0.00    -0.288 N 
HETATM   17  O   UNK N   1      35.971  13.476  12.269  0.00  0.00    -0.247 OA
HETATM   18  H   UNK N   1      33.428  12.980  10.552  0.00  0.00     0.172 HD
HETATM   19  H   UNK N   1      33.617  11.443  12.317  0.00  0.00     0.165 HD
BRANCH  16  20
HETATM   20  C   UNK N   1      34.446  14.803  10.508  0.00  0.00     0.169 A 
HETATM   21  S   UNK N   1      34.155  15.357   8.984  0.00  0.00    -0.026 SA
HETATM   22  C   UNK N   1      34.537  16.917   9.322  0.00  0.00     0.127 A 
HETATM   23  N   UNK N   1      34.878  17.015  10.639  0.00  0.00    -0.286 N 
HETATM   24  N   UNK N   1      34.821  15.839  11.301  0.00  0.00    -0.278 N 
ATOM     25  HN  UNK N   1      35.151  17.893  11.081  1.00  0.00     0.188 HD
ATOM     26  HN  UNK N   1      35.038  15.739  12.293  1.00  0.00     0.189 HD
BRANCH  22  27
HETATM   27  S   UNK N   1      34.479  18.275   8.166  0.00  0.00    -0.117 SA
HETATM   28  H   UNK N   1      35.597  18.702   7.522  0.00  0.00     0.109 HD
ENDBRANCH  22  27
ENDBRANCH  16  20
ENDBRANCH   1  14
BRANCH   1  29
HETATM   29  C   UNK N   1      36.107  10.111  13.226  0.00  0.00     0.240 C 
HETATM   30  O   UNK N   1      35.881   8.950  13.544  0.00  0.00    -0.271 OA
HETATM   31  N   UNK N   1      37.159  10.397  12.423  0.00  0.00    -0.364 N 
HETATM   32  C   UNK N   1      38.042   9.366  11.940  0.00  0.00     0.149 C 
HETATM   33  H   UNK N   1      37.323  11.332  12.162  0.00  0.00     0.161 HD
ENDBRANCH   1  29
TORSDOF 6
ENDMDL
MODEL 4
REMARK VINA RESULT:      -7.3      6.336     10.203
REMARK  6 active torsions:
REMARK  status: ('A' for Active; 'I' for Inactive)
REMARK    1  A    between atoms: C_1  and  N_17 
REMARK    2  A    between atoms: C_2  and  S_18 
REMARK       I    between atoms: C_3  and  N_17 
REMARK       I    between atoms: C_3  and  N_20 
REMARK    3  A    between atoms: C_4  and  C_6 
REMARK    4  A    between atoms: C_4  and  C_21 
REMARK    5  A    between atoms: C_21  and  N_20 
REMARK    6  A    between atoms: C_21  and  C_22 
REMARK       I    between atoms: C_22  and  N_24 
ROOT
HETATM    1  C   UNK N   1      35.285  11.295  13.777  0.00  0.00     0.182 C 
ENDROOT
BRANCH   1   2
HETATM    2  C   UNK N   1      34.276  10.706  14.774  0.00  0.00     0.080 C 
BRANCH   2   3
HETATM    3  C   UNK N   1      34.648  11.126  16.166  0.00  0.00     0.028 A 
HETATM    4  C   UNK N   1      35.000  10.159  17.124  0.00  0.00     0.167 A 
HETATM    5  C   UNK N   1      35.410  10.555  18.401  0.00  0.00     0.197 A 
HETATM    6  F   UNK N   1      34.953   8.838  16.814  0.00  0.00    -0.202 F 
HETATM    7  C   UNK N   1      35.472  11.913  18.727  0.00  0.00     0.199 A 
HETATM    8  F   UNK N   1      35.760   9.620  19.319  0.00  0.00    -0.199 F 
HETATM    9  C   UNK N   1      35.111  12.879  17.781  0.00  0.00     0.197 A 
HETATM   10  F   UNK N   1      35.889  12.294  19.961  0.00  0.00    -0.199 F 
HETATM   11  C   UNK N   1      34.696  12.488  16.504  0.00  0.00     0.167 A 
HETATM   12  F   UNK N   1      35.178  14.195  18.099  0.00  0.00    -0.199 F 
HETATM   13  F   UNK N   1      34.361  13.434  15.589  0.00  0.00    -0.202 F 
ENDBRANCH   2   3
ENDBRANCH   1   2
BRANCH   1  14
HETATM   14  N   UNK N   1      34.575  11.865  12.638  0.00  0.00    -0.329 N 
HETATM   15  C   UNK N   1      34.996  12.978  11.985  0.00  0.00     0.322 C 
HETATM   16  N   UNK N   1      34.263  13.480  10.964  0.00  0.00    -0.288 N 
HETATM   17  O   UNK N   1      36.015  13.557  12.346  0.00  0.00    -0.247 OA
HETATM   18  H   UNK N   1      33.565  12.930  10.539  0.00  0.00     0.172 HD
HETATM   19  H   UNK N   1      33.753  11.422  12.329  0.00  0.00     0.165 HD
BRANCH  16  20
HETATM   20  C   UNK N   1      34.502  14.796  10.511  0.00  0.00     0.169 A 
HETATM   21  S   UNK N   1      34.246  15.319   8.971  0.00  0.00    -0.026 SA
HETATM   22  C   UNK N   1      34.546  16.899   9.304  0.00  0.00     0.127 A 
HETATM   23  N   UNK N   1      34.831  17.027  10.631  0.00  0.00    -0.286 N 
HETATM   24  N   UNK N   1      34.800  15.856  11.306  0.00  0.00    -0.278 N 
ATOM     25  HN  UNK N   1      35.047  17.920  11.073  1.00  0.00     0.188 HD
ATOM     26  HN  UNK N   1      34.982  15.777  12.306  1.00  0.00     0.189 HD
BRANCH  22  27
HETATM   27  S   UNK N   1      34.473  18.240   8.129  0.00  0.00    -0.117 SA
HETATM   28  H   UNK N   1      33.696  18.163   7.016  0.00  0.00     0.109 HD
ENDBRANCH  22  27
ENDBRANCH  16  20
ENDBRANCH   1  14
BRANCH   1  29
HETATM   29  C   UNK N   1      36.320  10.271  13.344  0.00  0.00     0.240 C 
HETATM   30  O   UNK N   1      37.470  10.615  13.097  0.00  0.00    -0.271 OA
HETATM   31  N   UNK N   1      35.974   8.964  13.254  0.00  0.00    -0.364 N 
HETATM   32  C   UNK N   1      36.926   7.958  12.856  0.00  0.00     0.149 C 
HETATM   33  H   UNK N   1      35.051   8.696  13.468  0.00  0.00     0.161 HD
ENDBRANCH   1  29
TORSDOF 6
ENDMDL
MODEL 5
REMARK VINA RESULT:      -7.3      6.161      9.992
REMARK  6 active torsions:
REMARK  status: ('A' for Active; 'I' for Inactive)
REMARK    1  A    between atoms: C_1  and  N_17 
REMARK    2  A    between atoms: C_2  and  S_18 
REMARK       I    between atoms: C_3  and  N_17 
REMARK       I    between atoms: C_3  and  N_20 
REMARK    3  A    between atoms: C_4  and  C_6 
REMARK    4  A    between atoms: C_4  and  C_21 
REMARK    5  A    between atoms: C_21  and  N_20 
REMARK    6  A    between atoms: C_21  and  C_22 
REMARK       I    between atoms: C_22  and  N_24 
ROOT
HETATM    1  C   UNK N   1      36.568  12.866  14.180  0.00  0.00     0.182 C 
ENDROOT
BRANCH   1   2
HETATM    2  C   UNK N   1      37.588  11.720  14.251  0.00  0.00     0.080 C 
BRANCH   2   3
HETATM    3  C   UNK N   1      36.897  10.419  13.956  0.00  0.00     0.028 A 
HETATM    4  C   UNK N   1      36.728   9.997  12.626  0.00  0.00     0.167 A 
HETATM    5  C   UNK N   1      36.144   8.756  12.354  0.00  0.00     0.197 A 
HETATM    6  F   UNK N   1      37.140  10.784  11.599  0.00  0.00    -0.202 F 
HETATM    7  C   UNK N   1      35.727   7.933  13.404  0.00  0.00     0.199 A 
HETATM    8  F   UNK N   1      35.994   8.346  11.070  0.00  0.00    -0.199 F 
HETATM    9  C   UNK N   1      35.881   8.355  14.729  0.00  0.00     0.197 A 
HETATM   10  F   UNK N   1      35.178   6.721  13.137  0.00  0.00    -0.199 F 
HETATM   11  C   UNK N   1      36.461   9.597  15.007  0.00  0.00     0.167 A 
HETATM   12  F   UNK N   1      35.480   7.551  15.745  0.00  0.00    -0.199 F 
HETATM   13  F   UNK N   1      36.618   9.990  16.297  0.00  0.00    -0.202 F 
ENDBRANCH   2   3
ENDBRANCH   1   2
BRANCH   1  14
HETATM   14  N   UNK N   1      36.997  13.843  13.185  0.00  0.00    -0.329 N 
HETATM   15  C   UNK N   1      36.126  14.572  12.441  0.00  0.00     0.322 C 
HETATM   16  N   UNK N   1      36.593  15.428  11.502  0.00  0.00    -0.288 N 
HETATM   17  O   UNK N   1      34.917  14.422  12.582  0.00  0.00    -0.247 OA
HETATM   18  H   UNK N   1      37.539  15.704  11.511  0.00  0.00     0.172 HD
HETATM   19  H   UNK N   1      37.961  13.981  13.049  0.00  0.00     0.165 HD
BRANCH  16  20
HETATM   20  C   UNK N   1      35.719  15.925  10.511  0.00  0.00     0.169 A 
HETATM   21  S   UNK N   1      35.359  15.149   9.104  0.00  0.00    -0.026 SA
HETATM   22  C   UNK N   1      34.195  16.213   8.646  0.00  0.00     0.127 A 
HETATM   23  N   UNK N   1      34.070  17.174   9.606  0.00  0.00    -0.286 N 
HETATM   24  N   UNK N   1      34.914  17.010  10.648  0.00  0.00    -0.278 N 
ATOM     25  HN  UNK N   1      33.404  17.944   9.542  1.00  0.00     0.188 HD
ATOM     26  HN  UNK N   1      34.944  17.636  11.453  1.00  0.00     0.189 HD
BRANCH  22  27
HETATM   27  S   UNK N   1      33.223  16.111   7.154  0.00  0.00    -0.117 SA
HETATM   28  H   UNK N   1      32.889  14.911   6.609  0.00  0.00     0.109 HD
ENDBRANCH  22  27
ENDBRANCH  16  20
ENDBRANCH   1  14
BRANCH   1  29
HETATM   29  C   UNK N   1      36.335  13.505  15.538  0.00  0.00     0.240 C 
HETATM   30  O   UNK N   1      36.969  14.498  15.873  0.00  0.00    -0.271 OA
HETATM   31  N   UNK N   1      35.401  12.989  16.371  0.00  0.00    -0.364 N 
HETATM   32  C   UNK N   1      35.141  13.569  17.665  0.00  0.00     0.149 C 
HETATM   33  H   UNK N   1      34.887  12.199  16.086  0.00  0.00     0.161 HD
ENDBRANCH   1  29
TORSDOF 6
ENDMDL
MODEL 6
REMARK VINA RESULT:      -7.3      4.832      7.767
REMARK  6 active torsions:
REMARK  status: ('A' for Active; 'I' for Inactive)
REMARK    1  A    between atoms: C_1  and  N_17 
REMARK    2  A    between atoms: C_2  and  S_18 
REMARK       I    between atoms: C_3  and  N_17 
REMARK       I    between atoms: C_3  and  N_20 
REMARK    3  A    between atoms: C_4  and  C_6 
REMARK    4  A    between atoms: C_4  and  C_21 
REMARK    5  A    between atoms: C_21  and  N_20 
REMARK    6  A    between atoms: C_21  and  C_22 
REMARK       I    between atoms: C_22  and  N_24 
ROOT
HETATM    1  C   UNK N   1      32.734  16.744   7.934  0.00  0.00     0.182 C 
ENDROOT
BRANCH   1   2
HETATM    2  C   UNK N   1      33.628  17.502   6.940  0.00  0.00     0.080 C 
BRANCH   2   3
HETATM    3  C   UNK N   1      33.684  16.745   5.644  0.00  0.00     0.028 A 
HETATM    4  C   UNK N   1      34.513  15.616   5.523  0.00  0.00     0.167 A 
HETATM    5  C   UNK N   1      34.516  14.872   4.339  0.00  0.00     0.197 A 
HETATM    6  F   UNK N   1      35.308  15.235   6.556  0.00  0.00    -0.202 F 
HETATM    7  C   UNK N   1      33.693  15.250   3.273  0.00  0.00     0.199 A 
HETATM    8  F   UNK N   1      35.308  13.777   4.230  0.00  0.00    -0.199 F 
HETATM    9  C   UNK N   1      32.875  16.380   3.385  0.00  0.00     0.197 A 
HETATM   10  F   UNK N   1      33.684  14.515   2.133  0.00  0.00    -0.199 F 
HETATM   11  C   UNK N   1      32.872  17.130   4.566  0.00  0.00     0.167 A 
HETATM   12  F   UNK N   1      32.075  16.739   2.351  0.00  0.00    -0.199 F 
HETATM   13  F   UNK N   1      32.065  18.216   4.668  0.00  0.00    -0.202 F 
ENDBRANCH   2   3
ENDBRANCH   1   2
BRANCH   1  14
HETATM   14  N   UNK N   1      31.588  17.571   8.292  0.00  0.00    -0.329 N 
HETATM   15  C   UNK N   1      30.374  17.453   7.694  0.00  0.00     0.322 C 
HETATM   16  N   UNK N   1      29.366  18.285   8.043  0.00  0.00    -0.288 N 
HETATM   17  O   UNK N   1      30.202  16.625   6.805  0.00  0.00    -0.247 OA
HETATM   18  H   UNK N   1      29.423  18.810   8.874  0.00  0.00     0.172 HD
HETATM   19  H   UNK N   1      31.699  18.245   9.000  0.00  0.00     0.165 HD
BRANCH  16  20
HETATM   20  C   UNK N   1      28.231  18.397   7.210  0.00  0.00     0.169 A 
HETATM   21  S   UNK N   1      27.853  19.726   6.313  0.00  0.00    -0.026 SA
HETATM   22  C   UNK N   1      26.598  19.017   5.527  0.00  0.00     0.127 A 
HETATM   23  N   UNK N   1      26.480  17.727   5.952  0.00  0.00    -0.286 N 
HETATM   24  N   UNK N   1      27.394  17.379   6.884  0.00  0.00    -0.278 N 
ATOM     25  HN  UNK N   1      25.769  17.086   5.599  1.00  0.00     0.188 HD
ATOM     26  HN  UNK N   1      27.449  16.449   7.300  1.00  0.00     0.189 HD
BRANCH  22  27
HETATM   27  S   UNK N   1      25.575  19.795   4.290  0.00  0.00    -0.117 SA
HETATM   28  H   UNK N   1      24.343  20.282   4.595  0.00  0.00     0.109 HD
ENDBRANCH  22  27
ENDBRANCH  16  20
ENDBRANCH   1  14
BRANCH   1  29
HETATM   29  C   UNK N   1      33.507  16.287   9.159  0.00  0.00     0.240 C 
HETATM   30  O   UNK N   1      33.275  15.198   9.669  0.00  0.00    -0.271 OA
HETATM   31  N   UNK N   1      34.477  17.079   9.674  0.00  0.00    -0.364 N 
HETATM   32  C   UNK N   1      35.242  16.682  10.829  0.00  0.00     0.149 C 
HETATM   33  H   UNK N   1      34.665  17.947   9.248  0.00  0.00     0.161 HD
ENDBRANCH   1  29
TORSDOF 6
ENDMDL
MODEL 7
REMARK VINA RESULT:      -7.2      6.507     10.274
REMARK  6 active torsions:
REMARK  status: ('A' for Active; 'I' for Inactive)
REMARK    1  A    between atoms: C_1  and  N_17 
REMARK    2  A    between atoms: C_2  and  S_18 
REMARK       I    between atoms: C_3  and  N_17 
REMARK       I    between atoms: C_3  and  N_20 
REMARK    3  A    between atoms: C_4  and  C_6 
REMARK    4  A    between atoms: C_4  and  C_21 
REMARK    5  A    between atoms: C_21  and  N_20 
REMARK    6  A    between atoms: C_21  and  C_22 
REMARK       I    between atoms: C_22  and  N_24 
ROOT
HETATM    1  C   UNK N   1      36.212  12.638  14.353  0.00  0.00     0.182 C 
ENDROOT
BRANCH   1   2
HETATM    2  C   UNK N   1      37.388  11.746  14.777  0.00  0.00     0.080 C 
BRANCH   2   3
HETATM    3  C   UNK N   1      36.917  10.324  14.891  0.00  0.00     0.028 A 
HETATM    4  C   UNK N   1      36.588   9.790  16.150  0.00  0.00     0.167 A 
HETATM    5  C   UNK N   1      36.086   8.488  16.248  0.00  0.00     0.197 A 
HETATM    6  F   UNK N   1      36.744  10.536  17.273  0.00  0.00    -0.202 F 
HETATM    7  C   UNK N   1      35.911   7.716  15.096  0.00  0.00     0.199 A 
HETATM    8  F   UNK N   1      35.759   7.981  17.463  0.00  0.00    -0.199 F 
HETATM    9  C   UNK N   1      36.249   8.239  13.843  0.00  0.00     0.197 A 
HETATM   10  F   UNK N   1      35.407   6.460  15.194  0.00  0.00    -0.199 F 
HETATM   11  C   UNK N   1      36.755   9.539  13.739  0.00  0.00     0.167 A 
HETATM   12  F   UNK N   1      36.073   7.489  12.728  0.00  0.00    -0.199 F 
HETATM   13  F   UNK N   1      37.067  10.041  12.517  0.00  0.00    -0.202 F 
ENDBRANCH   2   3
ENDBRANCH   1   2
BRANCH   1  14
HETATM   14  N   UNK N   1      36.710  13.774  13.585  0.00  0.00    -0.329 N 
HETATM   15  C   UNK N   1      35.942  14.467  12.706  0.00  0.00     0.322 C 
HETATM   16  N   UNK N   1      36.482  15.482  11.991  0.00  0.00    -0.288 N 
HETATM   17  O   UNK N   1      34.773  14.146  12.522  0.00  0.00    -0.247 OA
HETATM   18  H   UNK N   1      37.343  15.875  12.263  0.00  0.00     0.172 HD
HETATM   19  H   UNK N   1      37.646  14.050  13.711  0.00  0.00     0.165 HD
BRANCH  16  20
HETATM   20  C   UNK N   1      35.804  15.975  10.854  0.00  0.00     0.169 A 
HETATM   21  S   UNK N   1      35.744  15.213   9.395  0.00  0.00    -0.026 SA
HETATM   22  C   UNK N   1      34.666  16.259   8.732  0.00  0.00     0.127 A 
HETATM   23  N   UNK N   1      34.334  17.202   9.659  0.00  0.00    -0.286 N 
HETATM   24  N   UNK N   1      34.963  17.040  10.844  0.00  0.00    -0.278 N 
ATOM     25  HN  UNK N   1      33.674  17.958   9.475  1.00  0.00     0.188 HD
ATOM     26  HN  UNK N   1      34.820  17.653  11.646  1.00  0.00     0.189 HD
BRANCH  22  27
HETATM   27  S   UNK N   1      34.005  16.159   7.078  0.00  0.00    -0.117 SA
HETATM   28  H   UNK N   1      32.838  15.510   6.822  0.00  0.00     0.109 HD
ENDBRANCH  22  27
ENDBRANCH  16  20
ENDBRANCH   1  14
BRANCH   1  29
HETATM   29  C   UNK N   1      35.378  13.082  15.542  0.00  0.00     0.240 C 
HETATM   30  O   UNK N   1      34.162  12.933  15.539  0.00  0.00    -0.271 OA
HETATM   31  N   UNK N   1      35.987  13.623  16.624  0.00  0.00    -0.364 N 
HETATM   32  C   UNK N   1      35.236  14.049  17.779  0.00  0.00     0.149 C 
HETATM   33  H   UNK N   1      36.967  13.725  16.623  0.00  0.00     0.161 HD
ENDBRANCH   1  29
TORSDOF 6
ENDMDL
MODEL 8
REMARK VINA RESULT:      -7.2      6.434     10.091
REMARK  6 active torsions:
REMARK  status: ('A' for Active; 'I' for Inactive)
REMARK    1  A    between atoms: C_1  and  N_17 
REMARK    2  A    between atoms: C_2  and  S_18 
REMARK       I    between atoms: C_3  and  N_17 
REMARK       I    between atoms: C_3  and  N_20 
REMARK    3  A    between atoms: C_4  and  C_6 
REMARK    4  A    between atoms: C_4  and  C_21 
REMARK    5  A    between atoms: C_21  and  N_20 
REMARK    6  A    between atoms: C_21  and  C_22 
REMARK       I    between atoms: C_22  and  N_24 
ROOT
HETATM    1  C   UNK N   1      36.481  12.478  14.319  0.00  0.00     0.182 C 
ENDROOT
BRANCH   1   2
HETATM    2  C   UNK N   1      35.049  12.548  14.871  0.00  0.00     0.080 C 
BRANCH   2   3
HETATM    3  C   UNK N   1      35.011  11.915  16.233  0.00  0.00     0.028 A 
HETATM    4  C   UNK N   1      34.750  10.539  16.363  0.00  0.00     0.167 A 
HETATM    5  C   UNK N   1      34.780   9.937  17.625  0.00  0.00     0.197 A 
HETATM    6  F   UNK N   1      34.478   9.786  15.266  0.00  0.00    -0.202 F 
HETATM    7  C   UNK N   1      35.070  10.701  18.759  0.00  0.00     0.199 A 
HETATM    8  F   UNK N   1      34.539   8.608  17.745  0.00  0.00    -0.199 F 
HETATM    9  C   UNK N   1      35.318  12.073  18.636  0.00  0.00     0.197 A 
HETATM   10  F   UNK N   1      35.116  10.110  19.979  0.00  0.00    -0.199 F 
HETATM   11  C   UNK N   1      35.285  12.681  17.376  0.00  0.00     0.167 A 
HETATM   12  F   UNK N   1      35.604  12.810  19.737  0.00  0.00    -0.199 F 
HETATM   13  F   UNK N   1      35.541  14.010  17.267  0.00  0.00    -0.202 F 
ENDBRANCH   2   3
ENDBRANCH   1   2
BRANCH   1  14
HETATM   14  N   UNK N   1      36.825  13.747  13.688  0.00  0.00    -0.329 N 
HETATM   15  C   UNK N   1      36.028  14.359  12.774  0.00  0.00     0.322 C 
HETATM   16  N   UNK N   1      36.431  15.513  12.193  0.00  0.00    -0.288 N 
HETATM   17  O   UNK N   1      34.967  13.845  12.438  0.00  0.00    -0.247 OA
HETATM   18  H   UNK N   1      37.169  16.034  12.586  0.00  0.00     0.172 HD
HETATM   19  H   UNK N   1      37.672  14.180  13.937  0.00  0.00     0.165 HD
BRANCH  16  20
HETATM   20  C   UNK N   1      35.787  15.968  11.021  0.00  0.00     0.169 A 
HETATM   21  S   UNK N   1      35.786  15.168   9.581  0.00  0.00    -0.026 SA
HETATM   22  C   UNK N   1      34.720  16.182   8.854  0.00  0.00     0.127 A 
HETATM   23  N   UNK N   1      34.345  17.145   9.744  0.00  0.00    -0.286 N 
HETATM   24  N   UNK N   1      34.934  17.022  10.953  0.00  0.00    -0.278 N 
ATOM     25  HN  UNK N   1      33.683  17.887   9.517  1.00  0.00     0.188 HD
ATOM     26  HN  UNK N   1      34.757  17.654  11.733  1.00  0.00     0.189 HD
BRANCH  22  27
HETATM   27  S   UNK N   1      34.117  16.030   7.181  0.00  0.00    -0.117 SA
HETATM   28  H   UNK N   1      34.661  15.137   6.312  0.00  0.00     0.109 HD
ENDBRANCH  22  27
ENDBRANCH  16  20
ENDBRANCH   1  14
BRANCH   1  29
HETATM   29  C   UNK N   1      36.668  11.306  13.371  0.00  0.00     0.240 C 
HETATM   30  O   UNK N   1      37.736  10.709  13.323  0.00  0.00    -0.271 OA
HETATM   31  N   UNK N   1      35.636  10.902  12.592  0.00  0.00    -0.364 N 
HETATM   32  C   UNK N   1      35.765   9.789  11.685  0.00  0.00     0.149 C 
HETATM   33  H   UNK N   1      34.776  11.380  12.648  0.00  0.00     0.161 HD
ENDBRANCH   1  29
TORSDOF 6
ENDMDL
MODEL 9
REMARK VINA RESULT:      -7.1      9.425     11.321
REMARK  6 active torsions:
REMARK  status: ('A' for Active; 'I' for Inactive)
REMARK    1  A    between atoms: C_1  and  N_17 
REMARK    2  A    between atoms: C_2  and  S_18 
REMARK       I    between atoms: C_3  and  N_17 
REMARK       I    between atoms: C_3  and  N_20 
REMARK    3  A    between atoms: C_4  and  C_6 
REMARK    4  A    between atoms: C_4  and  C_21 
REMARK    5  A    between atoms: C_21  and  N_20 
REMARK    6  A    between atoms: C_21  and  C_22 
REMARK       I    between atoms: C_22  and  N_24 
ROOT
HETATM    1  C   UNK N   1      23.600  19.069   4.007  0.00  0.00     0.182 C 
ENDROOT
BRANCH   1   2
HETATM    2  C   UNK N   1      25.007  18.777   3.464  0.00  0.00     0.080 C 
BRANCH   2   3
HETATM    3  C   UNK N   1      25.991  18.793   4.600  0.00  0.00     0.028 A 
HETATM    4  C   UNK N   1      26.434  17.585   5.165  0.00  0.00     0.167 A 
HETATM    5  C   UNK N   1      27.400  17.598   6.177  0.00  0.00     0.197 A 
HETATM    6  F   UNK N   1      25.938  16.400   4.726  0.00  0.00    -0.202 F 
HETATM    7  C   UNK N   1      27.925  18.812   6.627  0.00  0.00     0.199 A 
HETATM    8  F   UNK N   1      27.834  16.430   6.712  0.00  0.00    -0.199 F 
HETATM    9  C   UNK N   1      27.478  20.018   6.077  0.00  0.00     0.197 A 
HETATM   10  F   UNK N   1      28.875  18.820   7.596  0.00  0.00    -0.199 F 
HETATM   11  C   UNK N   1      26.509  20.011   5.067  0.00  0.00     0.167 A 
HETATM   12  F   UNK N   1      27.994  21.194   6.512  0.00  0.00    -0.199 F 
HETATM   13  F   UNK N   1      26.092  21.186   4.530  0.00  0.00    -0.202 F 
ENDBRANCH   2   3
ENDBRANCH   1   2
BRANCH   1  14
HETATM   14  N   UNK N   1      22.859  17.821   4.146  0.00  0.00    -0.329 N 
HETATM   15  C   UNK N   1      22.241  17.452   5.297  0.00  0.00     0.322 C 
HETATM   16  N   UNK N   1      21.609  16.257   5.371  0.00  0.00    -0.288 N 
HETATM   17  O   UNK N   1      22.292  18.176   6.285  0.00  0.00    -0.247 OA
HETATM   18  H   UNK N   1      21.389  15.762   4.548  0.00  0.00     0.172 HD
HETATM   19  H   UNK N   1      22.804  17.219   3.369  0.00  0.00     0.165 HD
BRANCH  16  20
HETATM   20  C   UNK N   1      21.265  15.724   6.632  0.00  0.00     0.169 A 
HETATM   21  S   UNK N   1      21.815  14.290   7.226  0.00  0.00    -0.026 SA
HETATM   22  C   UNK N   1      21.165  14.494   8.720  0.00  0.00     0.127 A 
HETATM   23  N   UNK N   1      20.527  15.698   8.766  0.00  0.00    -0.286 N 
HETATM   24  N   UNK N   1      20.589  16.387   7.606  0.00  0.00    -0.278 N 
ATOM     25  HN  UNK N   1      20.049  16.045   9.597  1.00  0.00     0.188 HD
ATOM     26  HN  UNK N   1      20.171  17.308   7.474  1.00  0.00     0.189 HD
BRANCH  22  27
HETATM   27  S   UNK N   1      21.301  13.344  10.077  0.00  0.00    -0.117 SA
HETATM   28  H   UNK N   1      22.484  12.748  10.383  0.00  0.00     0.109 HD
ENDBRANCH  22  27
ENDBRANCH  16  20
ENDBRANCH   1  14
BRANCH   1  29
HETATM   29  C   UNK N   1      22.857  20.075   3.145  0.00  0.00     0.240 C 
HETATM   30  O   UNK N   1      23.354  21.167   2.895  0.00  0.00    -0.271 OA
HETATM   31  N   UNK N   1      21.648  19.752   2.627  0.00  0.00    -0.364 N 
HETATM   32  C   UNK N   1      20.912  20.671   1.797  0.00  0.00     0.149 C 
HETATM   33  H   UNK N   1      21.263  18.866   2.822  0.00  0.00     0.161 HD
ENDBRANCH   1  29
TORSDOF 6
ENDMDL
