REMARK  6 active torsions:
REMARK  status: ('A' for Active; 'I' for Inactive)
REMARK    1  A    between atoms: C_1  and  N_17 
REMARK    2  A    between atoms: C_2  and  S_18 
REMARK       I    between atoms: C_3  and  N_17 
REMARK       I    between atoms: C_3  and  N_20 
REMARK    3  A    between atoms: C_4  and  C_6 
REMARK    4  A    between atoms: C_4  and  C_21 
REMARK    5  A    between atoms: C_21  and  N_20 
REMARK    6  A    between atoms: C_21  and  C_22 
REMARK       I    between atoms: C_22  and  N_24 
ROOT
HETATM    1  C   UNK N   1       1.880   0.174  -0.426  0.00  0.00     0.182 C 
ENDROOT
BRANCH   1   2
HETATM    2  C   UNK N   1       1.792   0.929   0.909  0.00  0.00     0.080 C 
BRANCH   2   3
HETATM    3  C   UNK N   1       1.205   2.291   0.672  0.00  0.00     0.028 A 
HETATM    4  C   UNK N   1       1.994   3.310   0.110  0.00  0.00     0.167 A 
HETATM    5  C   UNK N   1       1.429   4.558  -0.172  0.00  0.00     0.197 A 
HETATM    6  F   UNK N   1       3.303   3.087  -0.172  0.00  0.00    -0.202 F 
HETATM    7  C   UNK N   1       0.079   4.794   0.104  0.00  0.00     0.199 A 
HETATM    8  F   UNK N   1       2.190   5.535  -0.725  0.00  0.00    -0.199 F 
HETATM    9  C   UNK N   1      -0.707   3.787   0.675  0.00  0.00     0.197 A 
HETATM   10  F   UNK N   1      -0.470   6.000  -0.188  0.00  0.00    -0.199 F 
HETATM   11  C   UNK N   1      -0.146   2.538   0.963  0.00  0.00     0.167 A 
HETATM   12  F   UNK N   1      -2.017   4.018   0.936  0.00  0.00    -0.199 F 
HETATM   13  F   UNK N   1      -0.921   1.564   1.504  0.00  0.00    -0.202 F 
ENDBRANCH   2   3
ENDBRANCH   1   2
BRANCH   1  14
HETATM   14  N   UNK N   1       0.538  -0.053  -0.950  0.00  0.00    -0.329 N 
HETATM   15  C   UNK N   1      -0.365  -0.866  -0.344  0.00  0.00     0.322 C 
HETATM   16  N   UNK N   1      -1.578  -1.068  -0.910  0.00  0.00    -0.288 N 
HETATM   17  O   UNK N   1      -0.069  -1.455   0.690  0.00  0.00    -0.247 OA
HETATM   18  H   UNK N   1      -1.901  -0.463  -1.617  0.00  0.00     0.172 HD
HETATM   19  H   UNK N   1       0.275   0.405  -1.780  0.00  0.00     0.165 HD
BRANCH  16  20
HETATM   20  C   UNK N   1      -2.378  -2.150  -0.482  0.00  0.00     0.169 A 
HETATM   21  S   UNK N   1      -1.969  -3.738  -0.637  0.00  0.00    -0.026 SA
HETATM   22  C   UNK N   1      -3.242  -4.300   0.234  0.00  0.00     0.127 A 
HETATM   23  N   UNK N   1      -3.986  -3.242   0.667  0.00  0.00    -0.286 N 
HETATM   24  N   UNK N   1      -3.501  -2.044   0.274  0.00  0.00    -0.278 N 
ATOM     25  HN  UNK N   1      -4.828  -3.346   1.233  1.00  0.00     0.188 HD
ATOM     26  HN  UNK N   1      -3.933  -1.153   0.519  1.00  0.00     0.189 HD
BRANCH  22  27
HETATM   27  S   UNK N   1      -3.580  -6.015   0.591  0.00  0.00    -0.117 SA
HETATM   28  H   UNK N   1      -4.841  -6.445   0.863  0.00  0.00     0.109 HD
ENDBRANCH  22  27
ENDBRANCH  16  20
ENDBRANCH   1  14
BRANCH   1  29
HETATM   29  C   UNK N   1       2.663  -1.121  -0.296  0.00  0.00     0.240 C 
HETATM   30  O   UNK N   1       2.164  -2.186  -0.638  0.00  0.00    -0.271 OA
HETATM   31  N   UNK N   1       3.932  -1.093   0.177  0.00  0.00    -0.364 N 
HETATM   32  C   UNK N   1       4.715  -2.296   0.308  0.00  0.00     0.149 C 
HETATM   33  H   UNK N   1       4.329  -0.230   0.436  0.00  0.00     0.161 HD
ENDBRANCH   1  29
TORSDOF 6
