MODEL 1
REMARK VINA RESULT:      -5.1      0.000      0.000
REMARK  6 active torsions:
REMARK  status: ('A' for Active; 'I' for Inactive)
REMARK       I    between atoms: C_2  and  N_4 
REMARK    1  A    between atoms: N_4  and  O_5 
REMARK    2  A    between atoms: C_6  and  N_4 
REMARK    3  A    between atoms: C_6  and  C_7 
REMARK    4  A    between atoms: C_6  and  C_11 
REMARK    5  A    between atoms: C_7  and  C_8 
REMARK    6  A    between atoms: C_11  and  O_13 
ROOT
HETATM    1  C   UNK N   1      33.772  17.308   8.328  0.00  0.00     0.217 C 
ENDROOT
BRANCH   1   2
HETATM    2  N   UNK N   1      34.140  16.853   6.984  0.00  0.00    -0.214 N 
HETATM    3  C   UNK N   1      34.327  15.528   6.705  0.00  0.00     0.240 C 
HETATM    4  C   UNK N   1      34.700  15.090   5.325  0.00  0.00     0.119 C 
HETATM    5  O   UNK N   1      34.187  14.681   7.575  0.00  0.00    -0.272 OA
BRANCH   2   6
HETATM    6  O   UNK N   1      34.275  17.749   5.991  0.00  0.00    -0.284 OA
HETATM    7  H   UNK N   1      33.927  18.652   5.930  0.00  0.00     0.245 HD
ENDBRANCH   2   6
ENDBRANCH   1   2
BRANCH   1   8
HETATM    8  C   UNK N   1      32.468  18.132   8.264  0.00  0.00     0.042 C 
BRANCH   8   9
HETATM    9  C   UNK N   1      31.163  17.374   8.501  0.00  0.00    -0.020 C 
HETATM   10  C   UNK N   1      30.163  18.319   9.134  0.00  0.00     0.009 C 
HETATM   11  C   UNK N   1      30.577  16.831   7.212  0.00  0.00     0.009 C 
ENDBRANCH   8   9
ENDBRANCH   1   8
BRANCH   1  12
HETATM   12  C   UNK N   1      34.890  18.114   8.970  0.00  0.00     0.284 C 
HETATM   13  O   UNK N   1      35.280  19.154   8.455  0.00  0.00    -0.263 OA
BRANCH  12  14
HETATM   14  O   UNK N   1      35.474  17.652  10.104  0.00  0.00    -0.325 OA
HETATM   15  C   UNK N   1      35.393  16.336  10.497  0.00  0.00     0.213 C 
ENDBRANCH  12  14
ENDBRANCH   1  12
TORSDOF 6
ENDMDL
MODEL 2
REMARK VINA RESULT:      -4.7      1.428      3.690
REMARK  6 active torsions:
REMARK  status: ('A' for Active; 'I' for Inactive)
REMARK       I    between atoms: C_2  and  N_4 
REMARK    1  A    between atoms: N_4  and  O_5 
REMARK    2  A    between atoms: C_6  and  N_4 
REMARK    3  A    between atoms: C_6  and  C_7 
REMARK    4  A    between atoms: C_6  and  C_11 
REMARK    5  A    between atoms: C_7  and  C_8 
REMARK    6  A    between atoms: C_11  and  O_13 
ROOT
HETATM    1  C   UNK N   1      33.603  16.912   8.561  0.00  0.00     0.217 C 
ENDROOT
BRANCH   1   2
HETATM    2  N   UNK N   1      34.237  16.098   9.603  0.00  0.00    -0.214 N 
HETATM    3  C   UNK N   1      35.231  16.600  10.395  0.00  0.00     0.240 C 
HETATM    4  C   UNK N   1      35.859  15.750  11.452  0.00  0.00     0.119 C 
HETATM    5  O   UNK N   1      35.617  17.751  10.257  0.00  0.00    -0.272 OA
BRANCH   2   6
HETATM    6  O   UNK N   1      33.820  14.835   9.807  0.00  0.00    -0.284 OA
HETATM    7  H   UNK N   1      32.934  14.512  10.031  0.00  0.00     0.245 HD
ENDBRANCH   2   6
ENDBRANCH   1   2
BRANCH   1   8
HETATM    8  C   UNK N   1      32.087  16.621   8.517  0.00  0.00     0.042 C 
BRANCH   8   9
HETATM    9  C   UNK N   1      31.183  17.750   8.026  0.00  0.00    -0.020 C 
HETATM   10  C   UNK N   1      30.239  17.194   6.981  0.00  0.00     0.009 C 
HETATM   11  C   UNK N   1      30.367  18.358   9.151  0.00  0.00     0.009 C 
ENDBRANCH   8   9
ENDBRANCH   1   8
BRANCH   1  12
HETATM   12  C   UNK N   1      34.239  16.672   7.201  0.00  0.00     0.284 C 
HETATM   13  O   UNK N   1      34.822  15.622   6.965  0.00  0.00    -0.263 OA
BRANCH  12  14
HETATM   14  O   UNK N   1      34.181  17.647   6.260  0.00  0.00    -0.325 OA
HETATM   15  C   UNK N   1      33.435  17.524   5.111  0.00  0.00     0.213 C 
ENDBRANCH  12  14
ENDBRANCH   1  12
TORSDOF 6
ENDMDL
MODEL 3
REMARK VINA RESULT:      -4.4      1.858      2.212
REMARK  6 active torsions:
REMARK  status: ('A' for Active; 'I' for Inactive)
REMARK       I    between atoms: C_2  and  N_4 
REMARK    1  A    between atoms: N_4  and  O_5 
REMARK    2  A    between atoms: C_6  and  N_4 
REMARK    3  A    between atoms: C_6  and  C_7 
REMARK    4  A    between atoms: C_6  and  C_11 
REMARK    5  A    between atoms: C_7  and  C_8 
REMARK    6  A    between atoms: C_11  and  O_13 
ROOT
HETATM    1  C   UNK N   1      32.563  16.969   7.952  0.00  0.00     0.217 C 
ENDROOT
BRANCH   1   2
HETATM    2  N   UNK N   1      33.105  17.351   6.644  0.00  0.00    -0.214 N 
HETATM    3  C   UNK N   1      32.492  16.978   5.481  0.00  0.00     0.240 C 
HETATM    4  C   UNK N   1      33.064  17.383   4.161  0.00  0.00     0.119 C 
HETATM    5  O   UNK N   1      31.467  16.314   5.500  0.00  0.00    -0.272 OA
BRANCH   2   6
HETATM    6  O   UNK N   1      34.215  18.107   6.579  0.00  0.00    -0.284 OA
HETATM    7  H   UNK N   1      34.939  18.187   7.218  0.00  0.00     0.245 HD
ENDBRANCH   2   6
ENDBRANCH   1   2
BRANCH   1   8
HETATM    8  C   UNK N   1      31.664  18.099   8.499  0.00  0.00     0.042 C 
BRANCH   8   9
HETATM    9  C   UNK N   1      30.210  17.738   8.798  0.00  0.00    -0.020 C 
HETATM   10  C   UNK N   1      29.694  18.666   9.878  0.00  0.00     0.009 C 
HETATM   11  C   UNK N   1      29.326  17.870   7.573  0.00  0.00     0.009 C 
ENDBRANCH   8   9
ENDBRANCH   1   8
BRANCH   1  12
HETATM   12  C   UNK N   1      33.670  16.633   8.938  0.00  0.00     0.284 C 
HETATM   13  O   UNK N   1      34.421  17.508   9.350  0.00  0.00    -0.263 OA
BRANCH  12  14
HETATM   14  O   UNK N   1      33.839  15.347   9.334  0.00  0.00    -0.325 OA
HETATM   15  C   UNK N   1      33.050  14.319   8.871  0.00  0.00     0.213 C 
ENDBRANCH  12  14
ENDBRANCH   1  12
TORSDOF 6
ENDMDL
MODEL 4
REMARK VINA RESULT:      -4.4      4.238      6.683
REMARK  6 active torsions:
REMARK  status: ('A' for Active; 'I' for Inactive)
REMARK       I    between atoms: C_2  and  N_4 
REMARK    1  A    between atoms: N_4  and  O_5 
REMARK    2  A    between atoms: C_6  and  N_4 
REMARK    3  A    between atoms: C_6  and  C_7 
REMARK    4  A    between atoms: C_6  and  C_11 
REMARK    5  A    between atoms: C_7  and  C_8 
REMARK    6  A    between atoms: C_11  and  O_13 
ROOT
HETATM    1  C   UNK N   1      36.251  13.990  12.286  0.00  0.00     0.217 C 
ENDROOT
BRANCH   1   2
HETATM    2  N   UNK N   1      35.283  14.792  11.531  0.00  0.00    -0.214 N 
HETATM    3  C   UNK N   1      35.676  15.859  10.773  0.00  0.00     0.240 C 
HETATM    4  C   UNK N   1      34.670  16.658  10.010  0.00  0.00     0.119 C 
HETATM    5  O   UNK N   1      36.855  16.173  10.701  0.00  0.00    -0.272 OA
BRANCH   2   6
HETATM    6  O   UNK N   1      33.980  14.461  11.558  0.00  0.00    -0.284 OA
HETATM    7  H   UNK N   1      33.414  14.265  12.321  0.00  0.00     0.245 HD
ENDBRANCH   2   6
ENDBRANCH   1   2
BRANCH   1   8
HETATM    8  C   UNK N   1      36.230  12.530  11.784  0.00  0.00     0.042 C 
BRANCH   8   9
HETATM    9  C   UNK N   1      37.185  12.180  10.644  0.00  0.00    -0.020 C 
HETATM   10  C   UNK N   1      36.461  12.377   9.329  0.00  0.00     0.009 C 
HETATM   11  C   UNK N   1      38.429  13.049  10.655  0.00  0.00     0.009 C 
ENDBRANCH   8   9
ENDBRANCH   1   8
BRANCH   1  12
HETATM   12  C   UNK N   1      35.981  14.052  13.781  0.00  0.00     0.284 C 
HETATM   13  O   UNK N   1      36.760  14.629  14.529  0.00  0.00    -0.263 OA
BRANCH  12  14
HETATM   14  O   UNK N   1      34.884  13.433  14.283  0.00  0.00    -0.325 OA
HETATM   15  C   UNK N   1      34.853  12.892  15.548  0.00  0.00     0.213 C 
ENDBRANCH  12  14
ENDBRANCH   1  12
TORSDOF 6
ENDMDL
MODEL 5
REMARK VINA RESULT:      -4.4      2.363      4.345
REMARK  6 active torsions:
REMARK  status: ('A' for Active; 'I' for Inactive)
REMARK       I    between atoms: C_2  and  N_4 
REMARK    1  A    between atoms: N_4  and  O_5 
REMARK    2  A    between atoms: C_6  and  N_4 
REMARK    3  A    between atoms: C_6  and  C_7 
REMARK    4  A    between atoms: C_6  and  C_11 
REMARK    5  A    between atoms: C_7  and  C_8 
REMARK    6  A    between atoms: C_11  and  O_13 
ROOT
HETATM    1  C   UNK N   1      33.844  15.571   8.814  0.00  0.00     0.217 C 
ENDROOT
BRANCH   1   2
HETATM    2  N   UNK N   1      34.129  15.317  10.230  0.00  0.00    -0.214 N 
HETATM    3  C   UNK N   1      35.394  15.427  10.735  0.00  0.00     0.240 C 
HETATM    4  C   UNK N   1      35.656  15.165  12.183  0.00  0.00     0.119 C 
HETATM    5  O   UNK N   1      36.328  15.746  10.015  0.00  0.00    -0.272 OA
BRANCH   2   6
HETATM    6  O   UNK N   1      33.124  14.993  11.063  0.00  0.00    -0.284 OA
HETATM    7  H   UNK N   1      32.312  15.484  11.263  0.00  0.00     0.245 HD
ENDBRANCH   2   6
ENDBRANCH   1   2
BRANCH   1   8
HETATM    8  C   UNK N   1      32.815  16.714   8.682  0.00  0.00     0.042 C 
BRANCH   8   9
HETATM    9  C   UNK N   1      33.210  17.897   7.799  0.00  0.00    -0.020 C 
HETATM   10  C   UNK N   1      34.578  18.385   8.228  0.00  0.00     0.009 C 
HETATM   11  C   UNK N   1      33.261  17.521   6.330  0.00  0.00     0.009 C 
ENDBRANCH   8   9
ENDBRANCH   1   8
BRANCH   1  12
HETATM   12  C   UNK N   1      33.352  14.317   8.110  0.00  0.00     0.284 C 
HETATM   13  O   UNK N   1      32.396  13.692   8.551  0.00  0.00    -0.263 OA
BRANCH  12  14
HETATM   14  O   UNK N   1      34.003  13.876   7.005  0.00  0.00    -0.325 OA
HETATM   15  C   UNK N   1      35.266  14.308   6.668  0.00  0.00     0.213 C 
ENDBRANCH  12  14
ENDBRANCH   1  12
TORSDOF 6
ENDMDL
MODEL 6
REMARK VINA RESULT:      -4.4      8.437     10.522
REMARK  6 active torsions:
REMARK  status: ('A' for Active; 'I' for Inactive)
REMARK       I    between atoms: C_2  and  N_4 
REMARK    1  A    between atoms: N_4  and  O_5 
REMARK    2  A    between atoms: C_6  and  N_4 
REMARK    3  A    between atoms: C_6  and  C_7 
REMARK    4  A    between atoms: C_6  and  C_11 
REMARK    5  A    between atoms: C_7  and  C_8 
REMARK    6  A    between atoms: C_11  and  O_13 
ROOT
HETATM    1  C   UNK N   1      25.147  19.495   3.921  0.00  0.00     0.217 C 
ENDROOT
BRANCH   1   2
HETATM    2  N   UNK N   1      24.581  18.257   4.467  0.00  0.00    -0.214 N 
HETATM    3  C   UNK N   1      24.927  17.033   3.969  0.00  0.00     0.240 C 
HETATM    4  C   UNK N   1      24.337  15.786   4.546  0.00  0.00     0.119 C 
HETATM    5  O   UNK N   1      25.727  16.936   3.051  0.00  0.00    -0.272 OA
BRANCH   2   6
HETATM    6  O   UNK N   1      23.719  18.318   5.499  0.00  0.00    -0.284 OA
HETATM    7  H   UNK N   1      22.933  17.778   5.671  0.00  0.00     0.245 HD
ENDBRANCH   2   6
ENDBRANCH   1   2
BRANCH   1   8
HETATM    8  C   UNK N   1      25.693  20.374   5.067  0.00  0.00     0.042 C 
BRANCH   8   9
HETATM    9  C   UNK N   1      27.169  20.760   4.995  0.00  0.00    -0.020 C 
HETATM   10  C   UNK N   1      27.575  21.366   6.322  0.00  0.00     0.009 C 
HETATM   11  C   UNK N   1      28.058  19.566   4.707  0.00  0.00     0.009 C 
ENDBRANCH   8   9
ENDBRANCH   1   8
BRANCH   1  12
HETATM   12  C   UNK N   1      24.126  20.258   3.094  0.00  0.00     0.284 C 
HETATM   13  O   UNK N   1      24.486  20.972   2.167  0.00  0.00    -0.263 OA
BRANCH  12  14
HETATM   14  O   UNK N   1      22.810  20.166   3.412  0.00  0.00    -0.325 OA
HETATM   15  C   UNK N   1      21.809  20.495   2.528  0.00  0.00     0.213 C 
ENDBRANCH  12  14
ENDBRANCH   1  12
TORSDOF 6
ENDMDL
MODEL 7
REMARK VINA RESULT:      -4.4     15.192     16.582
REMARK  6 active torsions:
REMARK  status: ('A' for Active; 'I' for Inactive)
REMARK       I    between atoms: C_2  and  N_4 
REMARK    1  A    between atoms: N_4  and  O_5 
REMARK    2  A    between atoms: C_6  and  N_4 
REMARK    3  A    between atoms: C_6  and  C_7 
REMARK    4  A    between atoms: C_6  and  C_11 
REMARK    5  A    between atoms: C_7  and  C_8 
REMARK    6  A    between atoms: C_11  and  O_13 
ROOT
HETATM    1  C   UNK N   1      26.838  24.849  -4.804  0.00  0.00     0.217 C 
ENDROOT
BRANCH   1   2
HETATM    2  N   UNK N   1      27.240  23.987  -5.921  0.00  0.00    -0.214 N 
HETATM    3  C   UNK N   1      26.345  23.166  -6.548  0.00  0.00     0.240 C 
HETATM    4  C   UNK N   1      26.780  22.299  -7.685  0.00  0.00     0.119 C 
HETATM    5  O   UNK N   1      25.176  23.132  -6.194  0.00  0.00    -0.272 OA
BRANCH   2   6
HETATM    6  O   UNK N   1      28.511  24.016  -6.361  0.00  0.00    -0.284 OA
HETATM    7  H   UNK N   1      28.872  23.710  -7.207  0.00  0.00     0.245 HD
ENDBRANCH   2   6
ENDBRANCH   1   2
BRANCH   1   8
HETATM    8  C   UNK N   1      27.225  26.312  -5.106  0.00  0.00     0.042 C 
BRANCH   8   9
HETATM    9  C   UNK N   1      26.107  27.350  -5.030  0.00  0.00    -0.020 C 
HETATM   10  C   UNK N   1      24.879  26.789  -5.715  0.00  0.00     0.009 C 
HETATM   11  C   UNK N   1      25.752  27.703  -3.598  0.00  0.00     0.009 C 
ENDBRANCH   8   9
ENDBRANCH   1   8
BRANCH   1  12
HETATM   12  C   UNK N   1      27.452  24.386  -3.494  0.00  0.00     0.284 C 
HETATM   13  O   UNK N   1      26.740  24.132  -2.530  0.00  0.00    -0.263 OA
BRANCH  12  14
HETATM   14  O   UNK N   1      28.801  24.287  -3.390  0.00  0.00    -0.325 OA
HETATM   15  C   UNK N   1      29.420  23.228  -2.766  0.00  0.00     0.213 C 
ENDBRANCH  12  14
ENDBRANCH   1  12
TORSDOF 6
ENDMDL
MODEL 8
REMARK VINA RESULT:      -4.4      5.707      8.086
REMARK  6 active torsions:
REMARK  status: ('A' for Active; 'I' for Inactive)
REMARK       I    between atoms: C_2  and  N_4 
REMARK    1  A    between atoms: N_4  and  O_5 
REMARK    2  A    between atoms: C_6  and  N_4 
REMARK    3  A    between atoms: C_6  and  C_7 
REMARK    4  A    between atoms: C_6  and  C_11 
REMARK    5  A    between atoms: C_7  and  C_8 
REMARK    6  A    between atoms: C_11  and  O_13 
ROOT
HETATM    1  C   UNK N   1      36.565  13.041  13.249  0.00  0.00     0.217 C 
ENDROOT
BRANCH   1   2
HETATM    2  N   UNK N   1      35.270  12.357  13.315  0.00  0.00    -0.214 N 
HETATM    3  C   UNK N   1      35.108  11.202  14.027  0.00  0.00     0.240 C 
HETATM    4  C   UNK N   1      33.775  10.526  14.081  0.00  0.00     0.119 C 
HETATM    5  O   UNK N   1      36.045  10.706  14.635  0.00  0.00    -0.272 OA
BRANCH   2   6
HETATM    6  O   UNK N   1      34.205  12.884  12.685  0.00  0.00    -0.284 OA
HETATM    7  H   UNK N   1      33.337  13.121  13.045  0.00  0.00     0.245 HD
ENDBRANCH   2   6
ENDBRANCH   1   2
BRANCH   1   8
HETATM    8  C   UNK N   1      36.515  14.342  14.078  0.00  0.00     0.042 C 
BRANCH   8   9
HETATM    9  C   UNK N   1      36.982  14.252  15.530  0.00  0.00    -0.020 C 
HETATM   10  C   UNK N   1      37.434  15.625  15.979  0.00  0.00     0.009 C 
HETATM   11  C   UNK N   1      35.879  13.771  16.454  0.00  0.00     0.009 C 
ENDBRANCH   8   9
ENDBRANCH   1   8
BRANCH   1  12
HETATM   12  C   UNK N   1      36.970  13.329  11.813  0.00  0.00     0.284 C 
HETATM   13  O   UNK N   1      38.041  12.926  11.376  0.00  0.00    -0.263 OA
BRANCH  12  14
HETATM   14  O   UNK N   1      36.147  14.067  11.026  0.00  0.00    -0.325 OA
HETATM   15  C   UNK N   1      36.582  15.170  10.328  0.00  0.00     0.213 C 
ENDBRANCH  12  14
ENDBRANCH   1  12
TORSDOF 6
ENDMDL
MODEL 9
REMARK VINA RESULT:      -4.3     15.112     16.755
REMARK  6 active torsions:
REMARK  status: ('A' for Active; 'I' for Inactive)
REMARK       I    between atoms: C_2  and  N_4 
REMARK    1  A    between atoms: N_4  and  O_5 
REMARK    2  A    between atoms: C_6  and  N_4 
REMARK    3  A    between atoms: C_6  and  C_7 
REMARK    4  A    between atoms: C_6  and  C_11 
REMARK    5  A    between atoms: C_7  and  C_8 
REMARK    6  A    between atoms: C_11  and  O_13 
ROOT
HETATM    1  C   UNK N   1      27.296  25.099  -4.571  0.00  0.00     0.217 C 
ENDROOT
BRANCH   1   2
HETATM    2  N   UNK N   1      27.756  24.243  -3.473  0.00  0.00    -0.214 N 
HETATM    3  C   UNK N   1      29.072  23.902  -3.337  0.00  0.00     0.240 C 
HETATM    4  C   UNK N   1      29.516  23.030  -2.207  0.00  0.00     0.119 C 
HETATM    5  O   UNK N   1      29.908  24.308  -4.131  0.00  0.00    -0.272 OA
BRANCH   2   6
HETATM    6  O   UNK N   1      26.874  23.799  -2.560  0.00  0.00    -0.284 OA
HETATM    7  H   UNK N   1      25.984  23.438  -2.694  0.00  0.00     0.245 HD
ENDBRANCH   2   6
ENDBRANCH   1   2
BRANCH   1   8
HETATM    8  C   UNK N   1      26.249  26.106  -4.048  0.00  0.00     0.042 C 
BRANCH   8   9
HETATM    9  C   UNK N   1      26.002  27.348  -4.903  0.00  0.00    -0.020 C 
HETATM   10  C   UNK N   1      24.686  27.180  -5.632  0.00  0.00     0.009 C 
HETATM   11  C   UNK N   1      25.943  28.613  -4.068  0.00  0.00     0.009 C 
ENDBRANCH   8   9
ENDBRANCH   1   8
BRANCH   1  12
HETATM   12  C   UNK N   1      26.730  24.278  -5.719  0.00  0.00     0.284 C 
HETATM   13  O   UNK N   1      25.877  23.424  -5.510  0.00  0.00    -0.263 OA
BRANCH  12  14
HETATM   14  O   UNK N   1      27.202  24.478  -6.974  0.00  0.00    -0.325 OA
HETATM   15  C   UNK N   1      26.391  24.852  -8.020  0.00  0.00     0.213 C 
ENDBRANCH  12  14
ENDBRANCH   1  12
TORSDOF 6
ENDMDL
