MODEL 1
REMARK VINA RESULT:      -5.2      0.000      0.000
REMARK  6 active torsions:
REMARK  status: ('A' for Active; 'I' for Inactive)
REMARK    1  A    between atoms: P_1  and  O_5 
REMARK    2  A    between atoms: C_6  and  O_5 
REMARK    3  A    between atoms: C_6  and  C_7 
REMARK    4  A    between atoms: C_6  and  C_9 
REMARK    5  A    between atoms: C_9  and  O_10 
REMARK    6  A    between atoms: O_10  and  C_15 
ROOT
HETATM    1  C   UNK N   1      28.721  24.045  -4.063  0.00  0.00     0.154 C 
ENDROOT
BRANCH   1   2
HETATM    2  O   UNK N   1      29.442  22.832  -3.995  0.00  0.00    -0.316 OA
BRANCH   2   3
HETATM    3  P   UNK N   1      31.013  23.118  -3.276  0.00  0.00     0.284 P 
HETATM    4 Cl   UNK N   1      32.795  22.378  -4.150  0.00  0.00    -0.027 Cl
HETATM    5  C   UNK N   1      31.008  21.262  -3.408  0.00  0.00     0.135 C 
HETATM    6  O   UNK N   1      30.848  22.782  -1.770  0.00  0.00    -0.274 OA
ENDBRANCH   2   3
ENDBRANCH   1   2
BRANCH   1   7
HETATM    7  C   UNK N   1      29.644  25.265  -3.932  0.00  0.00     0.030 C 
HETATM    8  C   UNK N   1      29.456  26.230  -5.092  0.00  0.00     0.007 C 
ENDBRANCH   1   7
BRANCH   1   9
HETATM    9  C   UNK N   1      27.702  24.044  -2.924  0.00  0.00     0.208 C 
BRANCH   9  10
HETATM   10  O   UNK N   1      26.436  24.299  -3.412  0.00  0.00    -0.349 OA
BRANCH  10  11
HETATM   11  C   UNK N   1      26.067  25.466  -3.992  0.00  0.00     0.068 A 
HETATM   12  C   UNK N   1      25.523  25.509  -5.288  0.00  0.00     0.037 A 
HETATM   13  C   UNK N   1      25.136  26.730  -5.848  0.00  0.00     0.003 A 
HETATM   14  C   UNK N   1      25.290  27.915  -5.120  0.00  0.00     0.000 A 
HETATM   15  C   UNK N   1      25.834  27.878  -3.833  0.00  0.00     0.003 A 
HETATM   16  C   UNK N   1      26.220  26.656  -3.272  0.00  0.00     0.037 A 
ENDBRANCH  10  11
ENDBRANCH   9  10
ENDBRANCH   1   9
TORSDOF 6
ENDMDL
MODEL 2
REMARK VINA RESULT:      -5.0     10.837     13.847
REMARK  6 active torsions:
REMARK  status: ('A' for Active; 'I' for Inactive)
REMARK    1  A    between atoms: P_1  and  O_5 
REMARK    2  A    between atoms: C_6  and  O_5 
REMARK    3  A    between atoms: C_6  and  C_7 
REMARK    4  A    between atoms: C_6  and  C_9 
REMARK    5  A    between atoms: C_9  and  O_10 
REMARK    6  A    between atoms: O_10  and  C_15 
ROOT
HETATM    1  C   UNK N   1      28.036  17.825   6.632  0.00  0.00     0.154 C 
ENDROOT
BRANCH   1   2
HETATM    2  O   UNK N   1      27.065  18.373   5.766  0.00  0.00    -0.316 OA
BRANCH   2   3
HETATM    3  P   UNK N   1      27.619  19.920   5.159  0.00  0.00     0.284 P 
HETATM    4 Cl   UNK N   1      27.105  21.742   6.109  0.00  0.00    -0.027 Cl
HETATM    5  C   UNK N   1      25.778  20.188   5.207  0.00  0.00     0.135 C 
HETATM    6  O   UNK N   1      27.343  19.890   3.632  0.00  0.00    -0.274 OA
ENDBRANCH   2   3
ENDBRANCH   1   2
BRANCH   1   7
HETATM    7  C   UNK N   1      28.293  18.730   7.845  0.00  0.00     0.030 C 
HETATM    8  C   UNK N   1      28.137  17.966   9.151  0.00  0.00     0.007 C 
ENDBRANCH   1   7
BRANCH   1   9
HETATM    9  C   UNK N   1      29.327  17.654   5.834  0.00  0.00     0.208 C 
BRANCH   9  10
HETATM   10  O   UNK N   1      30.202  16.823   6.506  0.00  0.00    -0.349 OA
BRANCH  10  11
HETATM   11  C   UNK N   1      31.481  17.152   6.805  0.00  0.00     0.068 A 
HETATM   12  C   UNK N   1      31.855  17.571   8.095  0.00  0.00     0.037 A 
HETATM   13  C   UNK N   1      33.189  17.884   8.373  0.00  0.00     0.003 A 
HETATM   14  C   UNK N   1      34.156  17.783   7.368  0.00  0.00     0.000 A 
HETATM   15  C   UNK N   1      33.789  17.371   6.084  0.00  0.00     0.003 A 
HETATM   16  C   UNK N   1      32.456  17.056   5.805  0.00  0.00     0.037 A 
ENDBRANCH  10  11
ENDBRANCH   9  10
ENDBRANCH   1   9
TORSDOF 6
ENDMDL
MODEL 3
REMARK VINA RESULT:      -4.9     19.023     22.406
REMARK  6 active torsions:
REMARK  status: ('A' for Active; 'I' for Inactive)
REMARK    1  A    between atoms: P_1  and  O_5 
REMARK    2  A    between atoms: C_6  and  O_5 
REMARK    3  A    between atoms: C_6  and  C_7 
REMARK    4  A    between atoms: C_6  and  C_9 
REMARK    5  A    between atoms: C_9  and  O_10 
REMARK    6  A    between atoms: O_10  and  C_15 
ROOT
HETATM    1  C   UNK N   1      36.482  14.080  12.155  0.00  0.00     0.154 C 
ENDROOT
BRANCH   1   2
HETATM    2  O   UNK N   1      35.257  14.235  11.469  0.00  0.00    -0.316 OA
BRANCH   2   3
HETATM    3  P   UNK N   1      35.127  15.870  10.855  0.00  0.00     0.284 P 
HETATM    4 Cl   UNK N   1      33.873  16.354   9.218  0.00  0.00    -0.027 Cl
HETATM    5  C   UNK N   1      35.601  14.942   9.313  0.00  0.00     0.135 C 
HETATM    6  O   UNK N   1      36.587  16.380  10.720  0.00  0.00    -0.274 OA
ENDBRANCH   2   3
ENDBRANCH   1   2
BRANCH   1   7
HETATM    7  C   UNK N   1      37.090  12.689  11.930  0.00  0.00     0.030 C 
HETATM    8  C   UNK N   1      36.106  11.758  11.237  0.00  0.00     0.007 C 
ENDBRANCH   1   7
BRANCH   1   9
HETATM    9  C   UNK N   1      36.210  14.289  13.644  0.00  0.00     0.208 C 
BRANCH   9  10
HETATM   10  O   UNK N   1      35.040  13.655  14.013  0.00  0.00    -0.349 OA
BRANCH  10  11
HETATM   11  C   UNK N   1      34.987  12.589  14.846  0.00  0.00     0.068 A 
HETATM   12  C   UNK N   1      35.657  12.581  16.083  0.00  0.00     0.037 A 
HETATM   13  C   UNK N   1      35.564  11.470  16.926  0.00  0.00     0.003 A 
HETATM   14  C   UNK N   1      34.805  10.360  16.541  0.00  0.00     0.000 A 
HETATM   15  C   UNK N   1      34.140  10.361  15.311  0.00  0.00     0.003 A 
HETATM   16  C   UNK N   1      34.231  11.473  14.468  0.00  0.00     0.037 A 
ENDBRANCH  10  11
ENDBRANCH   9  10
ENDBRANCH   1   9
TORSDOF 6
ENDMDL
MODEL 4
REMARK VINA RESULT:      -4.9      3.299      6.132
REMARK  6 active torsions:
REMARK  status: ('A' for Active; 'I' for Inactive)
REMARK    1  A    between atoms: P_1  and  O_5 
REMARK    2  A    between atoms: C_6  and  O_5 
REMARK    3  A    between atoms: C_6  and  C_7 
REMARK    4  A    between atoms: C_6  and  C_9 
REMARK    5  A    between atoms: C_9  and  O_10 
REMARK    6  A    between atoms: O_10  and  C_15 
ROOT
HETATM    1  C   UNK N   1      26.678  25.329  -4.094  0.00  0.00     0.154 C 
ENDROOT
BRANCH   1   2
HETATM    2  O   UNK N   1      26.243  26.296  -3.161  0.00  0.00    -0.316 OA
BRANCH   2   3
HETATM    3  P   UNK N   1      25.929  27.811  -3.983  0.00  0.00     0.284 P 
HETATM    4 Cl   UNK N   1      26.728  28.229  -5.899  0.00  0.00    -0.027 Cl
HETATM    5  C   UNK N   1      27.790  27.775  -3.987  0.00  0.00     0.135 C 
HETATM    6  O   UNK N   1      26.183  28.917  -2.924  0.00  0.00    -0.274 OA
ENDBRANCH   2   3
ENDBRANCH   1   2
BRANCH   1   7
HETATM    7  C   UNK N   1      25.529  24.842  -4.988  0.00  0.00     0.030 C 
HETATM    8  C   UNK N   1      25.931  23.615  -5.791  0.00  0.00     0.007 C 
ENDBRANCH   1   7
BRANCH   1   9
HETATM    9  C   UNK N   1      27.255  24.152  -3.309  0.00  0.00     0.208 C 
BRANCH   9  10
HETATM   10  O   UNK N   1      28.635  24.174  -3.354  0.00  0.00    -0.349 OA
BRANCH  10  11
HETATM   11  C   UNK N   1      29.397  23.126  -3.747  0.00  0.00     0.068 A 
HETATM   12  C   UNK N   1      30.239  22.445  -2.850  0.00  0.00     0.037 A 
HETATM   13  C   UNK N   1      30.998  21.355  -3.287  0.00  0.00     0.003 A 
HETATM   14  C   UNK N   1      30.922  20.939  -4.621  0.00  0.00     0.000 A 
HETATM   15  C   UNK N   1      30.088  21.614  -5.517  0.00  0.00     0.003 A 
HETATM   16  C   UNK N   1      29.328  22.704  -5.080  0.00  0.00     0.037 A 
ENDBRANCH  10  11
ENDBRANCH   9  10
ENDBRANCH   1   9
TORSDOF 6
ENDMDL
MODEL 5
REMARK VINA RESULT:      -4.9     10.655     12.402
REMARK  6 active torsions:
REMARK  status: ('A' for Active; 'I' for Inactive)
REMARK    1  A    between atoms: P_1  and  O_5 
REMARK    2  A    between atoms: C_6  and  O_5 
REMARK    3  A    between atoms: C_6  and  C_7 
REMARK    4  A    between atoms: C_6  and  C_9 
REMARK    5  A    between atoms: C_9  and  O_10 
REMARK    6  A    between atoms: O_10  and  C_15 
ROOT
HETATM    1  C   UNK N   1      30.820  17.125   6.777  0.00  0.00     0.154 C 
ENDROOT
BRANCH   1   2
HETATM    2  O   UNK N   1      31.977  16.406   6.403  0.00  0.00    -0.316 OA
BRANCH   2   3
HETATM    3  P   UNK N   1      32.896  17.334   5.236  0.00  0.00     0.284 P 
HETATM    4 Cl   UNK N   1      33.117  16.700   3.227  0.00  0.00    -0.027 Cl
HETATM    5  C   UNK N   1      33.729  15.675   5.115  0.00  0.00     0.135 C 
HETATM    6  O   UNK N   1      34.227  17.694   5.947  0.00  0.00    -0.274 OA
ENDBRANCH   2   3
ENDBRANCH   1   2
BRANCH   1   7
HETATM    7  C   UNK N   1      30.549  17.024   8.285  0.00  0.00     0.030 C 
HETATM    8  C   UNK N   1      30.640  18.384   8.958  0.00  0.00     0.007 C 
ENDBRANCH   1   7
BRANCH   1   9
HETATM    9  C   UNK N   1      29.640  16.543   6.002  0.00  0.00     0.208 C 
BRANCH   9  10
HETATM   10  O   UNK N   1      28.458  17.130   6.410  0.00  0.00    -0.349 OA
BRANCH  10  11
HETATM   11  C   UNK N   1      28.047  18.358   6.016  0.00  0.00     0.068 A 
HETATM   12  C   UNK N   1      27.799  19.388   6.942  0.00  0.00     0.037 A 
HETATM   13  C   UNK N   1      27.393  20.650   6.498  0.00  0.00     0.003 A 
HETATM   14  C   UNK N   1      27.233  20.893   5.130  0.00  0.00     0.000 A 
HETATM   15  C   UNK N   1      27.475  19.872   4.206  0.00  0.00     0.003 A 
HETATM   16  C   UNK N   1      27.882  18.610   4.649  0.00  0.00     0.037 A 
ENDBRANCH  10  11
ENDBRANCH   9  10
ENDBRANCH   1   9
TORSDOF 6
ENDMDL
MODEL 6
REMARK VINA RESULT:      -4.8      4.396      5.794
REMARK  6 active torsions:
REMARK  status: ('A' for Active; 'I' for Inactive)
REMARK    1  A    between atoms: P_1  and  O_5 
REMARK    2  A    between atoms: C_6  and  O_5 
REMARK    3  A    between atoms: C_6  and  C_7 
REMARK    4  A    between atoms: C_6  and  C_9 
REMARK    5  A    between atoms: C_9  and  O_10 
REMARK    6  A    between atoms: O_10  and  C_15 
ROOT
HETATM    1  C   UNK N   1      26.226  23.271  -7.595  0.00  0.00     0.154 C 
ENDROOT
BRANCH   1   2
HETATM    2  O   UNK N   1      25.184  23.967  -8.247  0.00  0.00    -0.316 OA
BRANCH   2   3
HETATM    3  P   UNK N   1      25.672  24.365  -9.881  0.00  0.00     0.284 P 
HETATM    4 Cl   UNK N   1      27.506  25.340 -10.294  0.00  0.00    -0.027 Cl
HETATM    5  C   UNK N   1      25.780  26.029  -9.056  0.00  0.00     0.135 C 
HETATM    6  O   UNK N   1      24.430  25.026 -10.536  0.00  0.00    -0.274 OA
ENDBRANCH   2   3
ENDBRANCH   1   2
BRANCH   1   7
HETATM    7  C   UNK N   1      26.179  21.766  -7.891  0.00  0.00     0.030 C 
HETATM    8  C   UNK N   1      24.830  21.168  -7.523  0.00  0.00     0.007 C 
ENDBRANCH   1   7
BRANCH   1   9
HETATM    9  C   UNK N   1      26.073  23.506  -6.093  0.00  0.00     0.208 C 
BRANCH   9  10
HETATM   10  O   UNK N   1      25.156  24.510  -5.854  0.00  0.00    -0.349 OA
BRANCH  10  11
HETATM   11  C   UNK N   1      25.432  25.636  -5.154  0.00  0.00     0.068 A 
HETATM   12  C   UNK N   1      24.921  26.890  -5.538  0.00  0.00     0.037 A 
HETATM   13  C   UNK N   1      25.210  28.029  -4.781  0.00  0.00     0.003 A 
HETATM   14  C   UNK N   1      26.010  27.925  -3.638  0.00  0.00     0.000 A 
HETATM   15  C   UNK N   1      26.523  26.683  -3.254  0.00  0.00     0.003 A 
HETATM   16  C   UNK N   1      26.233  25.543  -4.010  0.00  0.00     0.037 A 
ENDBRANCH  10  11
ENDBRANCH   9  10
ENDBRANCH   1   9
TORSDOF 6
ENDMDL
MODEL 7
REMARK VINA RESULT:      -4.8     21.039     24.224
REMARK  6 active torsions:
REMARK  status: ('A' for Active; 'I' for Inactive)
REMARK    1  A    between atoms: P_1  and  O_5 
REMARK    2  A    between atoms: C_6  and  O_5 
REMARK    3  A    between atoms: C_6  and  C_7 
REMARK    4  A    between atoms: C_6  and  C_9 
REMARK    5  A    between atoms: C_9  and  O_10 
REMARK    6  A    between atoms: O_10  and  C_15 
ROOT
HETATM    1  C   UNK N   1      35.879  12.283  13.517  0.00  0.00     0.154 C 
ENDROOT
BRANCH   1   2
HETATM    2  O   UNK N   1      34.828  13.167  13.189  0.00  0.00    -0.316 OA
BRANCH   2   3
HETATM    3  P   UNK N   1      35.014  13.718  11.537  0.00  0.00     0.284 P 
HETATM    4 Cl   UNK N   1      36.921  14.065  10.682  0.00  0.00    -0.027 Cl
HETATM    5  C   UNK N   1      35.969  15.020  12.463  0.00  0.00     0.135 C 
HETATM    6  O   UNK N   1      34.014  14.894  11.377  0.00  0.00    -0.274 OA
ENDBRANCH   2   3
ENDBRANCH   1   2
BRANCH   1   7
HETATM    7  C   UNK N   1      35.396  10.828  13.598  0.00  0.00     0.030 C 
HETATM    8  C   UNK N   1      33.892  10.753  13.812  0.00  0.00     0.007 C 
ENDBRANCH   1   7
BRANCH   1   9
HETATM    9  C   UNK N   1      36.445  12.714  14.869  0.00  0.00     0.208 C 
BRANCH   9  10
HETATM   10  O   UNK N   1      35.420  12.980  15.757  0.00  0.00    -0.349 OA
BRANCH  10  11
HETATM   11  C   UNK N   1      35.390  12.534  17.034  0.00  0.00     0.068 A 
HETATM   12  C   UNK N   1      35.556  11.172  17.347  0.00  0.00     0.037 A 
HETATM   13  C   UNK N   1      35.538  10.749  18.679  0.00  0.00     0.003 A 
HETATM   14  C   UNK N   1      35.354  11.680  19.707  0.00  0.00     0.000 A 
HETATM   15  C   UNK N   1      35.185  13.033  19.402  0.00  0.00     0.003 A 
HETATM   16  C   UNK N   1      35.204  13.457  18.069  0.00  0.00     0.037 A 
ENDBRANCH  10  11
ENDBRANCH   9  10
ENDBRANCH   1   9
TORSDOF 6
ENDMDL
MODEL 8
REMARK VINA RESULT:      -4.8     11.203     13.001
REMARK  6 active torsions:
REMARK  status: ('A' for Active; 'I' for Inactive)
REMARK    1  A    between atoms: P_1  and  O_5 
REMARK    2  A    between atoms: C_6  and  O_5 
REMARK    3  A    between atoms: C_6  and  C_7 
REMARK    4  A    between atoms: C_6  and  C_9 
REMARK    5  A    between atoms: C_9  and  O_10 
REMARK    6  A    between atoms: O_10  and  C_15 
ROOT
HETATM    1  C   UNK N   1      30.696  17.486   7.736  0.00  0.00     0.154 C 
ENDROOT
BRANCH   1   2
HETATM    2  O   UNK N   1      31.313  16.252   8.040  0.00  0.00    -0.316 OA
BRANCH   2   3
HETATM    3  P   UNK N   1      32.997  16.518   8.441  0.00  0.00     0.284 P 
HETATM    4 Cl   UNK N   1      34.033  18.259   7.822  0.00  0.00    -0.027 Cl
HETATM    5  C   UNK N   1      33.036  16.687   6.589  0.00  0.00     0.135 C 
HETATM    6  O   UNK N   1      33.719  15.186   8.105  0.00  0.00    -0.274 OA
ENDBRANCH   2   3
ENDBRANCH   1   2
BRANCH   1   7
HETATM    7  C   UNK N   1      30.669  18.425   8.949  0.00  0.00     0.030 C 
HETATM    8  C   UNK N   1      29.404  18.233   9.772  0.00  0.00     0.007 C 
ENDBRANCH   1   7
BRANCH   1   9
HETATM    9  C   UNK N   1      29.268  17.191   7.280  0.00  0.00     0.208 C 
BRANCH   9  10
HETATM   10  O   UNK N   1      29.068  17.653   5.994  0.00  0.00    -0.349 OA
BRANCH  10  11
HETATM   11  C   UNK N   1      28.277  18.707   5.682  0.00  0.00     0.068 A 
HETATM   12  C   UNK N   1      27.892  18.977   4.356  0.00  0.00     0.037 A 
HETATM   13  C   UNK N   1      27.059  20.063   4.073  0.00  0.00     0.003 A 
HETATM   14  C   UNK N   1      26.605  20.886   5.109  0.00  0.00     0.000 A 
HETATM   15  C   UNK N   1      26.986  20.623   6.428  0.00  0.00     0.003 A 
HETATM   16  C   UNK N   1      27.819  19.536   6.712  0.00  0.00     0.037 A 
ENDBRANCH  10  11
ENDBRANCH   9  10
ENDBRANCH   1   9
TORSDOF 6
ENDMDL
MODEL 9
REMARK VINA RESULT:      -4.7     20.303     23.508
REMARK  6 active torsions:
REMARK  status: ('A' for Active; 'I' for Inactive)
REMARK    1  A    between atoms: P_1  and  O_5 
REMARK    2  A    between atoms: C_6  and  O_5 
REMARK    3  A    between atoms: C_6  and  C_7 
REMARK    4  A    between atoms: C_6  and  C_9 
REMARK    5  A    between atoms: C_9  and  O_10 
REMARK    6  A    between atoms: O_10  and  C_15 
ROOT
HETATM    1  C   UNK N   1      35.695  12.994  13.086  0.00  0.00     0.154 C 
ENDROOT
BRANCH   1   2
HETATM    2  O   UNK N   1      34.949  13.506  12.001  0.00  0.00    -0.316 OA
BRANCH   2   3
HETATM    3  P   UNK N   1      35.934  14.624  11.081  0.00  0.00     0.284 P 
HETATM    4 Cl   UNK N   1      35.409  16.665  10.869  0.00  0.00    -0.027 Cl
HETATM    5  C   UNK N   1      34.279  14.838  10.257  0.00  0.00     0.135 C 
HETATM    6  O   UNK N   1      36.247  13.898   9.745  0.00  0.00    -0.274 OA
ENDBRANCH   2   3
ENDBRANCH   1   2
BRANCH   1   7
HETATM    7  C   UNK N   1      36.757  11.988  12.622  0.00  0.00     0.030 C 
HETATM    8  C   UNK N   1      37.618  11.514  13.784  0.00  0.00     0.007 C 
ENDBRANCH   1   7
BRANCH   1   9
HETATM    9  C   UNK N   1      34.719  12.311  14.041  0.00  0.00     0.208 C 
BRANCH   9  10
HETATM   10  O   UNK N   1      34.554  13.068  15.184  0.00  0.00    -0.349 OA
BRANCH  10  11
HETATM   11  C   UNK N   1      34.841  12.627  16.432  0.00  0.00     0.068 A 
HETATM   12  C   UNK N   1      35.087  11.268  16.699  0.00  0.00     0.037 A 
HETATM   13  C   UNK N   1      35.399  10.851  17.996  0.00  0.00     0.003 A 
HETATM   14  C   UNK N   1      35.467  11.786  19.035  0.00  0.00     0.000 A 
HETATM   15  C   UNK N   1      35.220  13.137  18.775  0.00  0.00     0.003 A 
HETATM   16  C   UNK N   1      34.909  13.555  17.478  0.00  0.00     0.037 A 
ENDBRANCH  10  11
ENDBRANCH   9  10
ENDBRANCH   1   9
TORSDOF 6
ENDMDL
