MODEL 1
REMARK VINA RESULT:      -7.7      0.000      0.000
REMARK  5 active torsions:
REMARK  status: ('A' for Active; 'I' for Inactive)
REMARK    1  A    between atoms: N_1  and  C_2 
REMARK    2  A    between atoms: C_8  and  N_9 
REMARK    3  A    between atoms: N_9  and  C_10 
REMARK    4  A    between atoms: C_10  and  C_11 
REMARK    5  A    between atoms: C_15  and  C_17 
ROOT
HETATM    1  C   UNK N   1      31.399  16.446   6.375  0.00  0.00    -0.040 A 
HETATM    2  C   UNK N   1      32.107  17.170   5.413  0.00  0.00     0.009 A 
HETATM    3  C   UNK N   1      33.441  17.515   5.634  0.00  0.00     0.001 A 
HETATM    4  C   UNK N   1      34.069  17.143   6.823  0.00  0.00     0.012 A 
HETATM    5  C   UNK N   1      33.374  16.409   7.799  0.00  0.00    -0.025 A 
HETATM    6  C   UNK N   1      32.029  16.067   7.568  0.00  0.00     0.021 A 
ENDROOT
BRANCH   1   7
HETATM    7  C   UNK N   1      29.950  16.189   6.148  0.00  0.00     0.158 C 
BRANCH   7   8
HETATM    8  N   UNK N   1      29.095  16.934   7.037  0.00  0.00    -0.383 N 
HETATM    9  H   UNK N   1      28.918  16.590   7.942  0.00  0.00     0.160 HD
BRANCH   8  10
HETATM   10  C   UNK N   1      28.501  18.159   6.624  0.00  0.00     0.072 A 
HETATM   11  C   UNK N   1      27.806  19.004   7.521  0.00  0.00     0.125 A 
HETATM   12  N   UNK N   1      27.218  20.143   7.060  0.00  0.00    -0.351 N 
HETATM   13  C   UNK N   1      27.273  20.496   5.749  0.00  0.00     0.090 A 
ATOM     14  HN  UNK N   1      26.722  20.746   7.716  1.00  0.00     0.166 HD
HETATM   15  C   UNK N   1      27.963  19.698   4.837  0.00  0.00     0.019 A 
HETATM   16  C   UNK N   1      28.583  18.529   5.280  0.00  0.00     0.034 A 
BRANCH  11  17
HETATM   17  N   UNK N   1      27.729  18.705   8.897  0.00  0.00    -0.384 N 
HETATM   18  H   UNK N   1      26.880  18.819   9.383  0.00  0.00     0.157 HD
HETATM   19  H   UNK N   1      28.527  18.382   9.374  0.00  0.00     0.157 HD
ENDBRANCH  11  17
ENDBRANCH   8  10
ENDBRANCH   7   8
ENDBRANCH   1   7
BRANCH   5  20
HETATM   20  C   UNK N   1      34.049  16.018   9.058  0.00  0.00    -0.024 A 
HETATM   21  C   UNK N   1      33.825  14.741   9.621  0.00  0.00     0.042 A 
HETATM   22  C   UNK N   1      34.483  14.422  10.805  0.00  0.00     0.043 A 
HETATM   23  C   UNK N   1      35.317  15.300  11.427  0.00  0.00    -0.008 A 
HETATM   24  N   UNK N   1      34.409  13.269  11.484  0.00  0.00    -0.365 N 
HETATM   25  C   UNK N   1      35.566  16.568  10.914  0.00  0.00     0.014 A 
HETATM   26  C   UNK N   1      35.800  14.690  12.559  0.00  0.00     0.030 A 
HETATM   27  C   UNK N   1      34.926  16.924   9.713  0.00  0.00     0.013 A 
HETATM   28  C   UNK N   1      35.214  13.423  12.565  0.00  0.00     0.089 A 
HETATM   29  H   UNK N   1      33.878  12.474  11.247  0.00  0.00     0.165 HD
ENDBRANCH   5  20
TORSDOF 5
ENDMDL
MODEL 2
REMARK VINA RESULT:      -7.5      7.765     13.037
REMARK  5 active torsions:
REMARK  status: ('A' for Active; 'I' for Inactive)
REMARK    1  A    between atoms: N_1  and  C_2 
REMARK    2  A    between atoms: C_8  and  N_9 
REMARK    3  A    between atoms: N_9  and  C_10 
REMARK    4  A    between atoms: C_10  and  C_11 
REMARK    5  A    between atoms: C_15  and  C_17 
ROOT
HETATM    1  C   UNK N   1      35.634  11.271  19.067  0.00  0.00    -0.040 A 
HETATM    2  C   UNK N   1      35.374  12.458  19.755  0.00  0.00     0.009 A 
HETATM    3  C   UNK N   1      35.102  13.632  19.053  0.00  0.00     0.001 A 
HETATM    4  C   UNK N   1      35.096  13.625  17.657  0.00  0.00     0.012 A 
HETATM    5  C   UNK N   1      35.350  12.438  16.949  0.00  0.00    -0.025 A 
HETATM    6  C   UNK N   1      35.625  11.259  17.665  0.00  0.00     0.021 A 
ENDROOT
BRANCH   1   7
HETATM    7  C   UNK N   1      36.024  10.065  19.849  0.00  0.00     0.158 C 
BRANCH   7   8
HETATM    8  N   UNK N   1      35.165   9.819  20.980  0.00  0.00    -0.383 N 
HETATM    9  H   UNK N   1      35.515   9.944  21.892  0.00  0.00     0.160 HD
BRANCH   8  10
HETATM   10  C   UNK N   1      33.819   9.397  20.798  0.00  0.00     0.072 A 
HETATM   11  C   UNK N   1      32.737   9.998  21.483  0.00  0.00     0.125 A 
HETATM   12  N   UNK N   1      31.474   9.521  21.303  0.00  0.00    -0.351 N 
HETATM   13  C   UNK N   1      31.216   8.470  20.481  0.00  0.00     0.090 A 
ATOM     14  HN  UNK N   1      30.701   9.964  21.799  1.00  0.00     0.166 HD
HETATM   15  C   UNK N   1      32.253   7.861  19.776  0.00  0.00     0.019 A 
HETATM   16  C   UNK N   1      33.557   8.332  19.932  0.00  0.00     0.034 A 
BRANCH  11  17
HETATM   17  N   UNK N   1      32.934  11.105  22.334  0.00  0.00    -0.384 N 
HETATM   18  H   UNK N   1      33.809  11.556  22.365  0.00  0.00     0.157 HD
HETATM   19  H   UNK N   1      32.196  11.427  22.899  0.00  0.00     0.157 HD
ENDBRANCH  11  17
ENDBRANCH   8  10
ENDBRANCH   7   8
ENDBRANCH   1   7
BRANCH   5  20
HETATM   20  C   UNK N   1      35.342  12.440  15.468  0.00  0.00    -0.024 A 
HETATM   21  C   UNK N   1      36.187  13.317  14.750  0.00  0.00     0.042 A 
HETATM   22  C   UNK N   1      36.142  13.280  13.360  0.00  0.00     0.043 A 
HETATM   23  C   UNK N   1      35.310  12.439  12.686  0.00  0.00    -0.008 A 
HETATM   24  N   UNK N   1      36.865  14.020  12.509  0.00  0.00    -0.365 N 
HETATM   25  C   UNK N   1      34.458  11.560  13.348  0.00  0.00     0.014 A 
HETATM   26  C   UNK N   1      35.501  12.646  11.342  0.00  0.00     0.030 A 
HETATM   27  C   UNK N   1      34.482  11.562  14.754  0.00  0.00     0.013 A 
HETATM   28  C   UNK N   1      36.479  13.640  11.266  0.00  0.00     0.089 A 
HETATM   29  H   UNK N   1      37.538  14.701  12.740  0.00  0.00     0.165 HD
ENDBRANCH   5  20
TORSDOF 5
ENDMDL
MODEL 3
REMARK VINA RESULT:      -7.5     12.777     15.336
REMARK  5 active torsions:
REMARK  status: ('A' for Active; 'I' for Inactive)
REMARK    1  A    between atoms: N_1  and  C_2 
REMARK    2  A    between atoms: C_8  and  N_9 
REMARK    3  A    between atoms: N_9  and  C_10 
REMARK    4  A    between atoms: C_10  and  C_11 
REMARK    5  A    between atoms: C_15  and  C_17 
ROOT
HETATM    1  C   UNK N   1      27.185  22.733  -7.251  0.00  0.00    -0.040 A 
HETATM    2  C   UNK N   1      27.056  21.800  -8.282  0.00  0.00     0.009 A 
HETATM    3  C   UNK N   1      27.965  20.749  -8.397  0.00  0.00     0.001 A 
HETATM    4  C   UNK N   1      29.013  20.632  -7.483  0.00  0.00     0.012 A 
HETATM    5  C   UNK N   1      29.155  21.557  -6.436  0.00  0.00    -0.025 A 
HETATM    6  C   UNK N   1      28.234  22.615  -6.329  0.00  0.00     0.021 A 
ENDROOT
BRANCH   1   7
HETATM    7  C   UNK N   1      26.259  23.898  -7.224  0.00  0.00     0.158 C 
BRANCH   7   8
HETATM    8  N   UNK N   1      25.576  24.054  -5.964  0.00  0.00    -0.383 N 
HETATM    9  H   UNK N   1      25.029  23.314  -5.614  0.00  0.00     0.160 HD
BRANCH   8  10
HETATM   10  C   UNK N   1      25.680  25.262  -5.221  0.00  0.00     0.072 A 
HETATM   11  C   UNK N   1      26.327  25.324  -3.963  0.00  0.00     0.125 A 
HETATM   12  N   UNK N   1      26.356  26.500  -3.276  0.00  0.00    -0.351 N 
HETATM   13  C   UNK N   1      25.773  27.627  -3.760  0.00  0.00     0.090 A 
ATOM     14  HN  UNK N   1      26.828  26.534  -2.372  1.00  0.00     0.166 HD
HETATM   15  C   UNK N   1      25.140  27.610  -5.003  0.00  0.00     0.019 A 
HETATM   16  C   UNK N   1      25.100  26.424  -5.735  0.00  0.00     0.034 A 
BRANCH  11  17
HETATM   17  N   UNK N   1      26.970  24.195  -3.415  0.00  0.00    -0.384 N 
HETATM   18  H   UNK N   1      27.732  23.783  -3.882  0.00  0.00     0.157 HD
HETATM   19  H   UNK N   1      26.655  23.818  -2.563  0.00  0.00     0.157 HD
ENDBRANCH  11  17
ENDBRANCH   8  10
ENDBRANCH   7   8
ENDBRANCH   1   7
BRANCH   5  20
HETATM   20  C   UNK N   1      30.271  21.424  -5.471  0.00  0.00    -0.024 A 
HETATM   21  C   UNK N   1      31.412  20.658  -5.800  0.00  0.00     0.042 A 
HETATM   22  C   UNK N   1      32.433  20.563  -4.859  0.00  0.00     0.043 A 
HETATM   23  C   UNK N   1      32.355  21.175  -3.645  0.00  0.00    -0.008 A 
HETATM   24  N   UNK N   1      33.588  19.897  -4.986  0.00  0.00    -0.365 N 
HETATM   25  C   UNK N   1      31.252  21.937  -3.275  0.00  0.00     0.014 A 
HETATM   26  C   UNK N   1      33.508  20.889  -2.956  0.00  0.00     0.030 A 
HETATM   27  C   UNK N   1      30.203  22.063  -4.203  0.00  0.00     0.013 A 
HETATM   28  C   UNK N   1      34.257  20.089  -3.821  0.00  0.00     0.089 A 
HETATM   29  H   UNK N   1      33.889  19.374  -5.764  0.00  0.00     0.165 HD
ENDBRANCH   5  20
TORSDOF 5
ENDMDL
MODEL 4
REMARK VINA RESULT:      -7.4      2.447      8.822
REMARK  5 active torsions:
REMARK  status: ('A' for Active; 'I' for Inactive)
REMARK    1  A    between atoms: N_1  and  C_2 
REMARK    2  A    between atoms: C_8  and  N_9 
REMARK    3  A    between atoms: N_9  and  C_10 
REMARK    4  A    between atoms: C_10  and  C_11 
REMARK    5  A    between atoms: C_15  and  C_17 
ROOT
HETATM    1  C   UNK N   1      30.491  16.819   7.934  0.00  0.00    -0.040 A 
HETATM    2  C   UNK N   1      30.358  17.113   9.293  0.00  0.00     0.009 A 
HETATM    3  C   UNK N   1      29.402  18.032   9.722  0.00  0.00     0.001 A 
HETATM    4  C   UNK N   1      28.579  18.668   8.792  0.00  0.00     0.012 A 
HETATM    5  C   UNK N   1      28.695  18.380   7.422  0.00  0.00    -0.025 A 
HETATM    6  C   UNK N   1      29.663  17.453   6.997  0.00  0.00     0.021 A 
ENDROOT
BRANCH   1   7
HETATM    7  C   UNK N   1      31.592  15.913   7.506  0.00  0.00     0.158 C 
BRANCH   7   8
HETATM    8  N   UNK N   1      32.897  16.515   7.610  0.00  0.00    -0.383 N 
HETATM    9  H   UNK N   1      33.264  17.015   6.845  0.00  0.00     0.160 HD
BRANCH   8  10
HETATM   10  C   UNK N   1      33.665  16.396   8.801  0.00  0.00     0.072 A 
HETATM   11  C   UNK N   1      34.588  17.388   9.210  0.00  0.00     0.125 A 
HETATM   12  N   UNK N   1      35.328  17.198  10.338  0.00  0.00    -0.351 N 
HETATM   13  C   UNK N   1      35.214  16.071  11.089  0.00  0.00     0.090 A 
ATOM     14  HN  UNK N   1      35.988  17.921  10.625  1.00  0.00     0.166 HD
HETATM   15  C   UNK N   1      34.303  15.079  10.727  0.00  0.00     0.019 A 
HETATM   16  C   UNK N   1      33.524  15.247   9.583  0.00  0.00     0.034 A 
BRANCH  11  17
HETATM   17  N   UNK N   1      34.740  18.589   8.487  0.00  0.00    -0.384 N 
HETATM   18  H   UNK N   1      34.436  19.442   8.873  0.00  0.00     0.157 HD
HETATM   19  H   UNK N   1      35.149  18.573   7.592  0.00  0.00     0.157 HD
ENDBRANCH  11  17
ENDBRANCH   8  10
ENDBRANCH   7   8
ENDBRANCH   1   7
BRANCH   5  20
HETATM   20  C   UNK N   1      27.816  19.060   6.442  0.00  0.00    -0.024 A 
HETATM   21  C   UNK N   1      27.200  18.324   5.404  0.00  0.00     0.042 A 
HETATM   22  C   UNK N   1      26.384  19.008   4.509  0.00  0.00     0.043 A 
HETATM   23  C   UNK N   1      26.177  20.351   4.602  0.00  0.00    -0.008 A 
HETATM   24  N   UNK N   1      25.710  18.491   3.473  0.00  0.00    -0.365 N 
HETATM   25  C   UNK N   1      26.763  21.118   5.603  0.00  0.00     0.014 A 
HETATM   26  C   UNK N   1      25.336  20.718   3.581  0.00  0.00     0.030 A 
HETATM   27  C   UNK N   1      27.588  20.460   6.533  0.00  0.00     0.013 A 
HETATM   28  C   UNK N   1      25.063  19.533   2.894  0.00  0.00     0.089 A 
HETATM   29  H   UNK N   1      25.691  17.548   3.190  0.00  0.00     0.165 HD
ENDBRANCH   5  20
TORSDOF 5
ENDMDL
MODEL 5
REMARK VINA RESULT:      -7.3      4.299     10.589
REMARK  5 active torsions:
REMARK  status: ('A' for Active; 'I' for Inactive)
REMARK    1  A    between atoms: N_1  and  C_2 
REMARK    2  A    between atoms: C_8  and  N_9 
REMARK    3  A    between atoms: N_9  and  C_10 
REMARK    4  A    between atoms: C_10  and  C_11 
REMARK    5  A    between atoms: C_15  and  C_17 
ROOT
HETATM    1  C   UNK N   1      27.211  18.070   4.877  0.00  0.00    -0.040 A 
HETATM    2  C   UNK N   1      28.006  19.199   4.666  0.00  0.00     0.009 A 
HETATM    3  C   UNK N   1      27.453  20.357   4.120  0.00  0.00     0.001 A 
HETATM    4  C   UNK N   1      26.101  20.387   3.775  0.00  0.00     0.012 A 
HETATM    5  C   UNK N   1      25.285  19.263   3.986  0.00  0.00    -0.025 A 
HETATM    6  C   UNK N   1      25.852  18.099   4.536  0.00  0.00     0.021 A 
ENDROOT
BRANCH   1   7
HETATM    7  C   UNK N   1      27.861  16.822   5.363  0.00  0.00     0.158 C 
BRANCH   7   8
HETATM    8  N   UNK N   1      27.942  16.746   6.801  0.00  0.00    -0.383 N 
HETATM    9  H   UNK N   1      27.172  16.408   7.313  0.00  0.00     0.160 HD
BRANCH   8  10
HETATM   10  C   UNK N   1      29.117  17.154   7.490  0.00  0.00     0.072 A 
HETATM   11  C   UNK N   1      29.073  17.961   8.651  0.00  0.00     0.125 A 
HETATM   12  N   UNK N   1      30.233  18.359   9.243  0.00  0.00    -0.351 N 
HETATM   13  C   UNK N   1      31.448  18.006   8.746  0.00  0.00     0.090 A 
ATOM     14  HN  UNK N   1      30.190  18.938  10.081  1.00  0.00     0.166 HD
HETATM   15  C   UNK N   1      31.533  17.197   7.613  0.00  0.00     0.019 A 
HETATM   16  C   UNK N   1      30.362  16.766   6.989  0.00  0.00     0.034 A 
BRANCH  11  17
HETATM   17  N   UNK N   1      27.845  18.345   9.228  0.00  0.00    -0.384 N 
HETATM   18  H   UNK N   1      27.043  17.787   9.105  0.00  0.00     0.157 HD
HETATM   19  H   UNK N   1      27.789  19.174   9.755  0.00  0.00     0.157 HD
ENDBRANCH  11  17
ENDBRANCH   8  10
ENDBRANCH   7   8
ENDBRANCH   1   7
BRANCH   5  20
HETATM   20  C   UNK N   1      23.851  19.305   3.617  0.00  0.00    -0.024 A 
HETATM   21  C   UNK N   1      23.002  18.218   3.927  0.00  0.00     0.042 A 
HETATM   22  C   UNK N   1      21.663  18.305   3.559  0.00  0.00     0.043 A 
HETATM   23  C   UNK N   1      21.162  19.392   2.910  0.00  0.00    -0.008 A 
HETATM   24  N   UNK N   1      20.706  17.391   3.771  0.00  0.00    -0.365 N 
HETATM   25  C   UNK N   1      21.958  20.484   2.581  0.00  0.00     0.014 A 
HETATM   26  C   UNK N   1      19.825  19.170   2.689  0.00  0.00     0.030 A 
HETATM   27  C   UNK N   1      23.316  20.436   2.944  0.00  0.00     0.013 A 
HETATM   28  C   UNK N   1      19.572  17.912   3.239  0.00  0.00     0.089 A 
HETATM   29  H   UNK N   1      20.807  16.520   4.219  0.00  0.00     0.165 HD
ENDBRANCH   5  20
TORSDOF 5
ENDMDL
MODEL 6
REMARK VINA RESULT:      -7.2      4.645      8.648
REMARK  5 active torsions:
REMARK  status: ('A' for Active; 'I' for Inactive)
REMARK    1  A    between atoms: N_1  and  C_2 
REMARK    2  A    between atoms: C_8  and  N_9 
REMARK    3  A    between atoms: N_9  and  C_10 
REMARK    4  A    between atoms: C_10  and  C_11 
REMARK    5  A    between atoms: C_15  and  C_17 
ROOT
HETATM    1  C   UNK N   1      35.570  13.303  13.212  0.00  0.00    -0.040 A 
HETATM    2  C   UNK N   1      36.327  14.447  13.473  0.00  0.00     0.009 A 
HETATM    3  C   UNK N   1      36.771  14.716  14.768  0.00  0.00     0.001 A 
HETATM    4  C   UNK N   1      36.452  13.844  15.809  0.00  0.00     0.012 A 
HETATM    5  C   UNK N   1      35.697  12.685  15.564  0.00  0.00    -0.025 A 
HETATM    6  C   UNK N   1      35.252  12.422  14.256  0.00  0.00     0.021 A 
ENDROOT
BRANCH   1   7
HETATM    7  C   UNK N   1      35.027  13.106  11.840  0.00  0.00     0.158 C 
BRANCH   7   8
HETATM    8  N   UNK N   1      35.425  14.139  10.917  0.00  0.00    -0.383 N 
HETATM    9  H   UNK N   1      36.374  14.392  10.852  0.00  0.00     0.160 HD
BRANCH   8  10
HETATM   10  C   UNK N   1      34.466  14.799  10.101  0.00  0.00     0.072 A 
HETATM   11  C   UNK N   1      34.326  16.208  10.085  0.00  0.00     0.125 A 
HETATM   12  N   UNK N   1      33.359  16.782   9.317  0.00  0.00    -0.351 N 
HETATM   13  C   UNK N   1      32.510  16.039   8.560  0.00  0.00     0.090 A 
ATOM     14  HN  UNK N   1      33.269  17.798   9.310  1.00  0.00     0.166 HD
HETATM   15  C   UNK N   1      32.627  14.650   8.536  0.00  0.00     0.019 A 
HETATM   16  C   UNK N   1      33.613  14.031   9.305  0.00  0.00     0.034 A 
BRANCH  11  17
HETATM   17  N   UNK N   1      35.188  17.037  10.832  0.00  0.00    -0.384 N 
HETATM   18  H   UNK N   1      35.207  18.008  10.668  0.00  0.00     0.157 HD
HETATM   19  H   UNK N   1      35.774  16.644  11.517  0.00  0.00     0.157 HD
ENDBRANCH  11  17
ENDBRANCH   8  10
ENDBRANCH   7   8
ENDBRANCH   1   7
BRANCH   5  20
HETATM   20  C   UNK N   1      35.364  11.764  16.676  0.00  0.00    -0.024 A 
HETATM   21  C   UNK N   1      35.405  12.217  18.014  0.00  0.00     0.042 A 
HETATM   22  C   UNK N   1      35.083  11.314  19.022  0.00  0.00     0.043 A 
HETATM   23  C   UNK N   1      34.745  10.023  18.755  0.00  0.00    -0.008 A 
HETATM   24  N   UNK N   1      35.056  11.552  20.341  0.00  0.00    -0.365 N 
HETATM   25  C   UNK N   1      34.693   9.530  17.455  0.00  0.00     0.014 A 
HETATM   26  C   UNK N   1      34.490   9.399  19.951  0.00  0.00     0.030 A 
HETATM   27  C   UNK N   1      35.003  10.416  16.408  0.00  0.00     0.013 A 
HETATM   28  C   UNK N   1      34.693  10.381  20.922  0.00  0.00     0.089 A 
HETATM   29  H   UNK N   1      35.258  12.403  20.794  0.00  0.00     0.165 HD
ENDBRANCH   5  20
TORSDOF 5
ENDMDL
MODEL 7
REMARK VINA RESULT:      -7.2      6.685     11.025
REMARK  5 active torsions:
REMARK  status: ('A' for Active; 'I' for Inactive)
REMARK    1  A    between atoms: N_1  and  C_2 
REMARK    2  A    between atoms: C_8  and  N_9 
REMARK    3  A    between atoms: N_9  and  C_10 
REMARK    4  A    between atoms: C_10  and  C_11 
REMARK    5  A    between atoms: C_15  and  C_17 
ROOT
HETATM    1  C   UNK N   1      20.538  18.004   3.619  0.00  0.00    -0.040 A 
HETATM    2  C   UNK N   1      19.833  18.970   2.898  0.00  0.00     0.009 A 
HETATM    3  C   UNK N   1      20.485  20.112   2.430  0.00  0.00     0.001 A 
HETATM    4  C   UNK N   1      21.844  20.294   2.689  0.00  0.00     0.012 A 
HETATM    5  C   UNK N   1      22.569  19.329   3.408  0.00  0.00    -0.025 A 
HETATM    6  C   UNK N   1      21.904  18.182   3.877  0.00  0.00     0.021 A 
ENDROOT
BRANCH   1   7
HETATM    7  C   UNK N   1      19.785  16.853   4.190  0.00  0.00     0.158 C 
BRANCH   7   8
HETATM    8  N   UNK N   1      20.636  15.873   4.819  0.00  0.00    -0.383 N 
HETATM    9  H   UNK N   1      21.255  15.342   4.267  0.00  0.00     0.160 HD
BRANCH   8  10
HETATM   10  C   UNK N   1      20.592  15.661   6.224  0.00  0.00     0.072 A 
HETATM   11  C   UNK N   1      20.596  14.366   6.795  0.00  0.00     0.125 A 
HETATM   12  N   UNK N   1      20.506  14.224   8.147  0.00  0.00    -0.351 N 
HETATM   13  C   UNK N   1      20.406  15.296   8.975  0.00  0.00     0.090 A 
ATOM     14  HN  UNK N   1      20.513  13.286   8.548  1.00  0.00     0.166 HD
HETATM   15  C   UNK N   1      20.416  16.589   8.452  0.00  0.00     0.019 A 
HETATM   16  C   UNK N   1      20.515  16.769   7.072  0.00  0.00     0.034 A 
BRANCH  11  17
HETATM   17  N   UNK N   1      20.718  13.213   5.993  0.00  0.00    -0.384 N 
HETATM   18  H   UNK N   1      20.070  12.477   6.081  0.00  0.00     0.157 HD
HETATM   19  H   UNK N   1      21.454  13.144   5.344  0.00  0.00     0.157 HD
ENDBRANCH  11  17
ENDBRANCH   8  10
ENDBRANCH   7   8
ENDBRANCH   1   7
BRANCH   5  20
HETATM   20  C   UNK N   1      24.012  19.531   3.678  0.00  0.00    -0.024 A 
HETATM   21  C   UNK N   1      24.632  18.879   4.768  0.00  0.00     0.042 A 
HETATM   22  C   UNK N   1      25.989  19.101   4.979  0.00  0.00     0.043 A 
HETATM   23  C   UNK N   1      26.719  19.926   4.179  0.00  0.00    -0.008 A 
HETATM   24  N   UNK N   1      26.753  18.572   5.945  0.00  0.00    -0.365 N 
HETATM   25  C   UNK N   1      26.153  20.591   3.097  0.00  0.00     0.014 A 
HETATM   26  C   UNK N   1      28.010  19.933   4.649  0.00  0.00     0.030 A 
HETATM   27  C   UNK N   1      24.785  20.385   2.846  0.00  0.00     0.013 A 
HETATM   28  C   UNK N   1      27.997  19.078   5.752  0.00  0.00     0.089 A 
HETATM   29  H   UNK N   1      26.469  17.946   6.650  0.00  0.00     0.165 HD
ENDBRANCH   5  20
TORSDOF 5
ENDMDL
MODEL 8
REMARK VINA RESULT:      -7.1      6.989     11.415
REMARK  5 active torsions:
REMARK  status: ('A' for Active; 'I' for Inactive)
REMARK    1  A    between atoms: N_1  and  C_2 
REMARK    2  A    between atoms: C_8  and  N_9 
REMARK    3  A    between atoms: N_9  and  C_10 
REMARK    4  A    between atoms: C_10  and  C_11 
REMARK    5  A    between atoms: C_15  and  C_17 
ROOT
HETATM    1  C   UNK N   1      20.576  18.207   3.289  0.00  0.00    -0.040 A 
HETATM    2  C   UNK N   1      19.897  19.269   2.688  0.00  0.00     0.009 A 
HETATM    3  C   UNK N   1      20.572  20.451   2.382  0.00  0.00     0.001 A 
HETATM    4  C   UNK N   1      21.928  20.577   2.683  0.00  0.00     0.012 A 
HETATM    5  C   UNK N   1      22.628  19.516   3.282  0.00  0.00    -0.025 A 
HETATM    6  C   UNK N   1      21.940  18.329   3.589  0.00  0.00     0.021 A 
ENDROOT
BRANCH   1   7
HETATM    7  C   UNK N   1      19.799  17.004   3.695  0.00  0.00     0.158 C 
BRANCH   7   8
HETATM    8  N   UNK N   1      19.434  16.160   2.584  0.00  0.00    -0.383 N 
HETATM    9  H   UNK N   1      18.616  16.358   2.073  0.00  0.00     0.160 HD
BRANCH   8  10
HETATM   10  C   UNK N   1      20.238  15.046   2.218  0.00  0.00     0.072 A 
HETATM   11  C   UNK N   1      20.097  13.777   2.828  0.00  0.00     0.125 A 
HETATM   12  N   UNK N   1      20.926  12.758   2.468  0.00  0.00    -0.351 N 
HETATM   13  C   UNK N   1      21.900  12.923   1.535  0.00  0.00     0.090 A 
ATOM     14  HN  UNK N   1      20.814  11.846   2.912  1.00  0.00     0.166 HD
HETATM   15  C   UNK N   1      22.059  14.153   0.899  0.00  0.00     0.019 A 
HETATM   16  C   UNK N   1      21.220  15.215   1.239  0.00  0.00     0.034 A 
BRANCH  11  17
HETATM   17  N   UNK N   1      19.093  13.535   3.789  0.00  0.00    -0.384 N 
HETATM   18  H   UNK N   1      18.147  13.506   3.519  0.00  0.00     0.157 HD
HETATM   19  H   UNK N   1      19.340  13.395   4.731  0.00  0.00     0.157 HD
ENDBRANCH  11  17
ENDBRANCH   8  10
ENDBRANCH   7   8
ENDBRANCH   1   7
BRANCH   5  20
HETATM   20  C   UNK N   1      24.069  19.659   3.598  0.00  0.00    -0.024 A 
HETATM   21  C   UNK N   1      24.624  18.994   4.715  0.00  0.00     0.042 A 
HETATM   22  C   UNK N   1      25.982  19.161   4.969  0.00  0.00     0.043 A 
HETATM   23  C   UNK N   1      26.773  19.944   4.185  0.00  0.00    -0.008 A 
HETATM   24  N   UNK N   1      26.690  18.612   5.965  0.00  0.00    -0.365 N 
HETATM   25  C   UNK N   1      26.272  20.621   3.077  0.00  0.00     0.014 A 
HETATM   26  C   UNK N   1      28.046  19.902   4.698  0.00  0.00     0.030 A 
HETATM   27  C   UNK N   1      24.905  20.470   2.783  0.00  0.00     0.013 A 
HETATM   28  C   UNK N   1      27.960  19.061   5.809  0.00  0.00     0.089 A 
HETATM   29  H   UNK N   1      26.356  18.007   6.666  0.00  0.00     0.165 HD
ENDBRANCH   5  20
TORSDOF 5
ENDMDL
MODEL 9
REMARK VINA RESULT:      -7.0      3.868      6.711
REMARK  5 active torsions:
REMARK  status: ('A' for Active; 'I' for Inactive)
REMARK    1  A    between atoms: N_1  and  C_2 
REMARK    2  A    between atoms: C_8  and  N_9 
REMARK    3  A    between atoms: N_9  and  C_10 
REMARK    4  A    between atoms: C_10  and  C_11 
REMARK    5  A    between atoms: C_15  and  C_17 
ROOT
HETATM    1  C   UNK N   1      26.273  19.816   4.410  0.00  0.00    -0.040 A 
HETATM    2  C   UNK N   1      26.020  20.877   5.281  0.00  0.00     0.009 A 
HETATM    3  C   UNK N   1      26.744  21.001   6.467  0.00  0.00     0.001 A 
HETATM    4  C   UNK N   1      27.719  20.056   6.790  0.00  0.00     0.012 A 
HETATM    5  C   UNK N   1      27.991  18.985   5.923  0.00  0.00    -0.025 A 
HETATM    6  C   UNK N   1      27.255  18.868   4.730  0.00  0.00     0.021 A 
ENDROOT
BRANCH   1   7
HETATM    7  C   UNK N   1      25.409  19.660   3.208  0.00  0.00     0.158 C 
BRANCH   7   8
HETATM    8  N   UNK N   1      24.094  20.226   3.376  0.00  0.00    -0.383 N 
HETATM    9  H   UNK N   1      23.986  21.204   3.402  0.00  0.00     0.160 HD
BRANCH   8  10
HETATM   10  C   UNK N   1      22.950  19.391   3.506  0.00  0.00     0.072 A 
HETATM   11  C   UNK N   1      21.651  19.824   3.148  0.00  0.00     0.125 A 
HETATM   12  N   UNK N   1      20.586  18.996   3.337  0.00  0.00    -0.351 N 
HETATM   13  C   UNK N   1      20.730  17.754   3.871  0.00  0.00     0.090 A 
ATOM     14  HN  UNK N   1      19.655  19.317   3.073  1.00  0.00     0.166 HD
HETATM   15  C   UNK N   1      21.996  17.285   4.221  0.00  0.00     0.019 A 
HETATM   16  C   UNK N   1      23.108  18.106   4.032  0.00  0.00     0.034 A 
BRANCH  11  17
HETATM   17  N   UNK N   1      21.436  21.092   2.571  0.00  0.00    -0.384 N 
HETATM   18  H   UNK N   1      20.535  21.489   2.568  0.00  0.00     0.157 HD
HETATM   19  H   UNK N   1      22.189  21.581   2.169  0.00  0.00     0.157 HD
ENDBRANCH  11  17
ENDBRANCH   8  10
ENDBRANCH   7   8
ENDBRANCH   1   7
BRANCH   5  20
HETATM   20  C   UNK N   1      29.028  17.988   6.274  0.00  0.00    -0.024 A 
HETATM   21  C   UNK N   1      29.522  17.906   7.596  0.00  0.00     0.042 A 
HETATM   22  C   UNK N   1      30.496  16.953   7.874  0.00  0.00     0.043 A 
HETATM   23  C   UNK N   1      30.983  16.116   6.917  0.00  0.00    -0.008 A 
HETATM   24  N   UNK N   1      31.078  16.715   9.058  0.00  0.00    -0.365 N 
HETATM   25  C   UNK N   1      30.531  16.160   5.602  0.00  0.00     0.014 A 
HETATM   26  C   UNK N   1      31.922  15.306   7.505  0.00  0.00     0.030 A 
HETATM   27  C   UNK N   1      29.539  17.106   5.284  0.00  0.00     0.013 A 
HETATM   28  C   UNK N   1      31.958  15.706   8.843  0.00  0.00     0.089 A 
HETATM   29  H   UNK N   1      30.904  17.180   9.908  0.00  0.00     0.165 HD
ENDBRANCH   5  20
TORSDOF 5
ENDMDL
