REMARK  5 active torsions:
REMARK  status: ('A' for Active; 'I' for Inactive)
REMARK    1  A    between atoms: N_1  and  C_2 
REMARK    2  A    between atoms: C_8  and  N_9 
REMARK    3  A    between atoms: N_9  and  C_10 
REMARK    4  A    between atoms: C_10  and  C_11 
REMARK    5  A    between atoms: C_15  and  C_17 
ROOT
HETATM    1  C   UNK N   1       1.907   0.972  -0.339  0.00  0.00    -0.040 A 
HETATM    2  C   UNK N   1       3.023   1.787  -0.137  0.00  0.00     0.009 A 
HETATM    3  C   UNK N   1       2.862   3.149   0.117  0.00  0.00     0.001 A 
HETATM    4  C   UNK N   1       1.582   3.703   0.162  0.00  0.00     0.012 A 
HETATM    5  C   UNK N   1       0.448   2.897  -0.033  0.00  0.00    -0.025 A 
HETATM    6  C   UNK N   1       0.620   1.525  -0.290  0.00  0.00     0.021 A 
ENDROOT
BRANCH   1   7
HETATM    7  C   UNK N   1       2.124  -0.453  -0.711  0.00  0.00     0.158 C 
BRANCH   7   8
HETATM    8  N   UNK N   1       1.383  -1.375   0.113  0.00  0.00    -0.383 N 
HETATM    9  H   UNK N   1       0.636  -1.043   0.662  0.00  0.00     0.160 HD
BRANCH   8  10
HETATM   10  C   UNK N   1       1.717  -2.757   0.146  0.00  0.00     0.072 A 
HETATM   11  C   UNK N   1       3.046  -3.219  -0.007  0.00  0.00     0.125 A 
HETATM   12  N   UNK N   1       3.300  -4.557  -0.012  0.00  0.00    -0.351 N 
HETATM   13  C   UNK N   1       2.307  -5.475   0.121  0.00  0.00     0.090 A 
ATOM     14  HN  UNK N   1       4.262  -4.879  -0.120  1.00  0.00     0.166 HD
HETATM   15  C   UNK N   1       0.987  -5.059   0.291  0.00  0.00     0.019 A 
HETATM   16  C   UNK N   1       0.695  -3.695   0.309  0.00  0.00     0.034 A 
BRANCH  11  17
HETATM   17  N   UNK N   1       4.124  -2.318  -0.129  0.00  0.00    -0.384 N 
HETATM   18  H   UNK N   1       5.045  -2.656  -0.213  0.00  0.00     0.157 HD
HETATM   19  H   UNK N   1       3.955  -1.349  -0.129  0.00  0.00     0.157 HD
ENDBRANCH  11  17
ENDBRANCH   8  10
ENDBRANCH   7   8
ENDBRANCH   1   7
BRANCH   5  20
HETATM   20  C   UNK N   1      -0.907   3.494   0.017  0.00  0.00    -0.024 A 
HETATM   21  C   UNK N   1      -2.053   2.672  -0.077  0.00  0.00     0.042 A 
HETATM   22  C   UNK N   1      -3.303   3.281  -0.025  0.00  0.00     0.043 A 
HETATM   23  C   UNK N   1      -3.445   4.629   0.103  0.00  0.00    -0.008 A 
HETATM   24  N   UNK N   1      -4.498   2.678  -0.088  0.00  0.00    -0.365 N 
HETATM   25  C   UNK N   1      -2.348   5.479   0.196  0.00  0.00     0.014 A 
HETATM   26  C   UNK N   1      -4.789   4.910   0.120  0.00  0.00     0.030 A 
HETATM   27  C   UNK N   1      -1.067   4.899   0.156  0.00  0.00     0.013 A 
HETATM   28  C   UNK N   1      -5.419   3.670  -0.001  0.00  0.00     0.089 A 
HETATM   29  H   UNK N   1      -4.671   1.713  -0.180  0.00  0.00     0.165 HD
ENDBRANCH   5  20
TORSDOF 5
