MODEL 1
REMARK VINA RESULT:      -8.0      0.000      0.000
REMARK  8 active torsions:
REMARK  status: ('A' for Active; 'I' for Inactive)
REMARK    1  A    between atoms: N_1  and  C_2 
REMARK    2  A    between atoms: C_8  and  N_9 
REMARK    3  A    between atoms: N_9  and  C_10 
REMARK    4  A    between atoms: C_10  and  C_11 
REMARK    5  A    between atoms: C_13  and  C_26 
REMARK    6  A    between atoms: C_16  and  O_17 
REMARK    7  A    between atoms: O_17  and  C_18 
REMARK    8  A    between atoms: C_18  and  C_19 
ROOT
HETATM    1  C   UNK N   1      26.080  15.750   5.956  0.00  0.00    -0.006 A 
HETATM    2  C   UNK N   1      25.468  15.031   6.971  0.00  0.00     0.024 A 
HETATM    3  C   UNK N   1      24.156  14.586   6.923  0.00  0.00    -0.025 A 
HETATM    4  C   UNK N   1      23.393  14.871   5.793  0.00  0.00     0.015 A 
HETATM    5  C   UNK N   1      23.963  15.594   4.740  0.00  0.00     0.038 A 
HETATM    6  C   UNK N   1      25.296  16.049   4.781  0.00  0.00     0.077 A 
ENDROOT
BRANCH   1   7
HETATM    7  C   UNK N   1      27.500  16.059   6.356  0.00  0.00     0.161 C 
BRANCH   7   8
HETATM    8  N   UNK N   1      27.872  17.269   7.024  0.00  0.00    -0.383 N 
HETATM    9  H   UNK N   1      27.205  17.978   7.175  0.00  0.00     0.160 HD
BRANCH   8  10
HETATM   10  C   UNK N   1      29.210  17.437   7.467  0.00  0.00     0.072 A 
HETATM   11  C   UNK N   1      29.488  18.039   8.700  0.00  0.00     0.125 A 
HETATM   12  N   UNK N   1      30.775  18.194   9.111  0.00  0.00    -0.351 N 
HETATM   13  C   UNK N   1      31.824  17.776   8.351  0.00  0.00     0.090 A 
ATOM     14  HN  UNK N   1      30.960  18.634  10.012  1.00  0.00     0.166 HD
HETATM   15  C   UNK N   1      31.597  17.171   7.115  0.00  0.00     0.019 A 
HETATM   16  C   UNK N   1      30.287  17.002   6.674  0.00  0.00     0.034 A 
BRANCH  11  17
HETATM   17  N   UNK N   1      28.436  18.489   9.524  0.00  0.00    -0.384 N 
HETATM   18  H   UNK N   1      27.552  18.058   9.474  0.00  0.00     0.157 HD
HETATM   19  H   UNK N   1      28.584  19.234  10.150  0.00  0.00     0.157 HD
ENDBRANCH  11  17
ENDBRANCH   8  10
ENDBRANCH   7   8
ENDBRANCH   1   7
BRANCH   6  20
HETATM   20  O   UNK N   1      25.703  16.736   3.681  0.00  0.00    -0.345 OA
BRANCH  20  21
HETATM   21  C   UNK N   1      25.455  18.034   3.326  0.00  0.00     0.232 C 
BRANCH  21  22
HETATM   22  C   UNK N   1      26.192  18.978   4.222  0.00  0.00     0.033 A 
HETATM   23  N   UNK N   1      25.556  19.593   5.260  0.00  0.00    -0.367 N 
HETATM   24  C   UNK N   1      26.208  20.455   6.086  0.00  0.00     0.088 A 
ATOM     25  HN  UNK N   1      24.566  19.402   5.421  1.00  0.00     0.165 HD
HETATM   26  C   UNK N   1      27.562  20.728   5.883  0.00  0.00     0.017 A 
HETATM   27  C   UNK N   1      28.233  20.110   4.827  0.00  0.00     0.003 A 
HETATM   28  C   UNK N   1      27.546  19.230   3.991  0.00  0.00     0.027 A 
ENDBRANCH  21  22
ENDBRANCH  20  21
ENDBRANCH   6  20
BRANCH   3  29
HETATM   29  C   UNK N   1      23.639  13.830   8.083  0.00  0.00    -0.024 A 
HETATM   30  C   UNK N   1      24.532  13.502   9.129  0.00  0.00     0.042 A 
HETATM   31  C   UNK N   1      24.053  12.795  10.214  0.00  0.00     0.043 A 
HETATM   32  C   UNK N   1      22.754  12.410  10.303  0.00  0.00    -0.008 A 
HETATM   33  N   UNK N   1      24.753  12.402  11.287  0.00  0.00    -0.365 N 
HETATM   34  C   UNK N   1      21.829  12.706   9.302  0.00  0.00     0.014 A 
HETATM   35  C   UNK N   1      22.604  11.734  11.491  0.00  0.00     0.030 A 
HETATM   36  C   UNK N   1      22.282  13.427   8.176  0.00  0.00     0.013 A 
HETATM   37  C   UNK N   1      23.871  11.747  12.081  0.00  0.00     0.089 A 
HETATM   38  H   UNK N   1      25.709  12.556  11.462  0.00  0.00     0.165 HD
ENDBRANCH   3  29
TORSDOF 8
ENDMDL
MODEL 2
REMARK VINA RESULT:      -8.0      3.030      4.898
REMARK  8 active torsions:
REMARK  status: ('A' for Active; 'I' for Inactive)
REMARK    1  A    between atoms: N_1  and  C_2 
REMARK    2  A    between atoms: C_8  and  N_9 
REMARK    3  A    between atoms: N_9  and  C_10 
REMARK    4  A    between atoms: C_10  and  C_11 
REMARK    5  A    between atoms: C_13  and  C_26 
REMARK    6  A    between atoms: C_16  and  O_17 
REMARK    7  A    between atoms: O_17  and  C_18 
REMARK    8  A    between atoms: C_18  and  C_19 
ROOT
HETATM    1  C   UNK N   1      22.658  15.896   5.272  0.00  0.00    -0.006 A 
HETATM    2  C   UNK N   1      22.702  15.243   6.493  0.00  0.00     0.024 A 
HETATM    3  C   UNK N   1      21.679  14.447   6.984  0.00  0.00    -0.025 A 
HETATM    4  C   UNK N   1      20.530  14.282   6.214  0.00  0.00     0.015 A 
HETATM    5  C   UNK N   1      20.435  14.920   4.972  0.00  0.00     0.038 A 
HETATM    6  C   UNK N   1      21.470  15.731   4.466  0.00  0.00     0.077 A 
ENDROOT
BRANCH   1   7
HETATM    7  C   UNK N   1      23.940  16.663   5.075  0.00  0.00     0.161 C 
BRANCH   7   8
HETATM    8  N   UNK N   1      24.103  18.023   5.493  0.00  0.00    -0.383 N 
HETATM    9  H   UNK N   1      23.696  18.336   6.332  0.00  0.00     0.160 HD
BRANCH   8  10
HETATM   10  C   UNK N   1      24.858  18.913   4.685  0.00  0.00     0.072 A 
HETATM   11  C   UNK N   1      26.197  19.192   4.982  0.00  0.00     0.125 A 
HETATM   12  N   UNK N   1      26.908  20.048   4.199  0.00  0.00    -0.351 N 
HETATM   13  C   UNK N   1      26.352  20.655   3.115  0.00  0.00     0.090 A 
ATOM     14  HN  UNK N   1      27.883  20.239   4.430  1.00  0.00     0.166 HD
HETATM   15  C   UNK N   1      25.021  20.408   2.780  0.00  0.00     0.019 A 
HETATM   16  C   UNK N   1      24.274  19.536   3.567  0.00  0.00     0.034 A 
BRANCH  11  17
HETATM   17  N   UNK N   1      26.819  18.588   6.095  0.00  0.00    -0.384 N 
HETATM   18  H   UNK N   1      26.649  17.640   6.298  0.00  0.00     0.157 HD
HETATM   19  H   UNK N   1      27.422  19.113   6.668  0.00  0.00     0.157 HD
ENDBRANCH  11  17
ENDBRANCH   8  10
ENDBRANCH   7   8
ENDBRANCH   1   7
BRANCH   6  20
HETATM   20  O   UNK N   1      21.228  16.280   3.247  0.00  0.00    -0.345 OA
BRANCH  20  21
HETATM   21  C   UNK N   1      20.096  16.889   2.777  0.00  0.00     0.232 C 
BRANCH  21  22
HETATM   22  C   UNK N   1      20.356  18.332   2.481  0.00  0.00     0.033 A 
HETATM   23  N   UNK N   1      20.423  18.777   1.194  0.00  0.00    -0.367 N 
HETATM   24  C   UNK N   1      20.658  20.086   0.903  0.00  0.00     0.088 A 
ATOM     25  HN  UNK N   1      20.293  18.114   0.429  1.00  0.00     0.165 HD
HETATM   26  C   UNK N   1      20.838  21.009   1.935  0.00  0.00     0.017 A 
HETATM   27  C   UNK N   1      20.774  20.575   3.259  0.00  0.00     0.003 A 
HETATM   28  C   UNK N   1      20.532  19.230   3.536  0.00  0.00     0.027 A 
ENDBRANCH  21  22
ENDBRANCH  20  21
ENDBRANCH   6  20
BRANCH   3  29
HETATM   29  C   UNK N   1      21.868  13.813   8.306  0.00  0.00    -0.024 A 
HETATM   30  C   UNK N   1      23.181  13.499   8.723  0.00  0.00     0.042 A 
HETATM   31  C   UNK N   1      23.362  12.907   9.958  0.00  0.00     0.043 A 
HETATM   32  C   UNK N   1      22.317  12.620  10.777  0.00  0.00    -0.008 A 
HETATM   33  N   UNK N   1      24.528  12.544  10.510  0.00  0.00    -0.365 N 
HETATM   34  C   UNK N   1      21.001  12.908  10.416  0.00  0.00     0.014 A 
HETATM   35  C   UNK N   1      22.830  12.043  11.914  0.00  0.00     0.030 A 
HETATM   36  C   UNK N   1      20.776  13.514   9.161  0.00  0.00     0.013 A 
HETATM   37  C   UNK N   1      24.213  12.010  11.715  0.00  0.00     0.089 A 
HETATM   38  H   UNK N   1      25.427  12.644  10.120  0.00  0.00     0.165 HD
ENDBRANCH   3  29
TORSDOF 8
ENDMDL
MODEL 3
REMARK VINA RESULT:      -7.8      5.542      9.419
REMARK  8 active torsions:
REMARK  status: ('A' for Active; 'I' for Inactive)
REMARK    1  A    between atoms: N_1  and  C_2 
REMARK    2  A    between atoms: C_8  and  N_9 
REMARK    3  A    between atoms: N_9  and  C_10 
REMARK    4  A    between atoms: C_10  and  C_11 
REMARK    5  A    between atoms: C_13  and  C_26 
REMARK    6  A    between atoms: C_16  and  O_17 
REMARK    7  A    between atoms: O_17  and  C_18 
REMARK    8  A    between atoms: C_18  and  C_19 
ROOT
HETATM    1  C   UNK N   1      34.144  16.134   8.477  0.00  0.00    -0.006 A 
HETATM    2  C   UNK N   1      34.388  15.603   9.733  0.00  0.00     0.024 A 
HETATM    3  C   UNK N   1      35.297  14.587   9.983  0.00  0.00    -0.025 A 
HETATM    4  C   UNK N   1      36.018  14.056   8.915  0.00  0.00     0.015 A 
HETATM    5  C   UNK N   1      35.809  14.557   7.625  0.00  0.00     0.038 A 
HETATM    6  C   UNK N   1      34.887  15.590   7.364  0.00  0.00     0.077 A 
ENDROOT
BRANCH   1   7
HETATM    7  C   UNK N   1      33.099  17.214   8.591  0.00  0.00     0.161 C 
BRANCH   7   8
HETATM    8  N   UNK N   1      31.765  16.959   9.041  0.00  0.00    -0.383 N 
HETATM    9  H   UNK N   1      31.609  16.476   9.885  0.00  0.00     0.160 HD
BRANCH   8  10
HETATM   10  C   UNK N   1      30.668  17.409   8.260  0.00  0.00     0.072 A 
HETATM   11  C   UNK N   1      29.706  18.271   8.803  0.00  0.00     0.125 A 
HETATM   12  N   UNK N   1      28.661  18.694   8.042  0.00  0.00    -0.351 N 
HETATM   13  C   UNK N   1      28.514  18.302   6.747  0.00  0.00     0.090 A 
ATOM     14  HN  UNK N   1      27.969  19.321   8.453  1.00  0.00     0.166 HD
HETATM   15  C   UNK N   1      29.446  17.446   6.163  0.00  0.00     0.019 A 
HETATM   16  C   UNK N   1      30.524  17.000   6.922  0.00  0.00     0.034 A 
BRANCH  11  17
HETATM   17  N   UNK N   1      29.815  18.705  10.140  0.00  0.00    -0.384 N 
HETATM   18  H   UNK N   1      29.741  19.663  10.354  0.00  0.00     0.157 HD
HETATM   19  H   UNK N   1      29.964  18.050  10.860  0.00  0.00     0.157 HD
ENDBRANCH  11  17
ENDBRANCH   8  10
ENDBRANCH   7   8
ENDBRANCH   1   7
BRANCH   6  20
HETATM   20  O   UNK N   1      34.798  15.966   6.061  0.00  0.00    -0.345 OA
BRANCH  20  21
HETATM   21  C   UNK N   1      34.572  15.202   4.949  0.00  0.00     0.232 C 
BRANCH  21  22
HETATM   22  C   UNK N   1      33.285  15.588   4.295  0.00  0.00     0.033 A 
HETATM   23  N   UNK N   1      32.263  14.693   4.184  0.00  0.00    -0.367 N 
HETATM   24  C   UNK N   1      31.083  15.025   3.592  0.00  0.00     0.088 A 
ATOM     25  HN  UNK N   1      32.384  13.749   4.554  1.00  0.00     0.165 HD
HETATM   26  C   UNK N   1      30.897  16.310   3.079  0.00  0.00     0.017 A 
HETATM   27  C   UNK N   1      31.929  17.243   3.181  0.00  0.00     0.003 A 
HETATM   28  C   UNK N   1      33.130  16.883   3.792  0.00  0.00     0.027 A 
ENDBRANCH  21  22
ENDBRANCH  20  21
ENDBRANCH   6  20
BRANCH   3  29
HETATM   29  C   UNK N   1      35.451  14.122  11.378  0.00  0.00    -0.024 A 
HETATM   30  C   UNK N   1      36.194  14.919  12.278  0.00  0.00     0.042 A 
HETATM   31  C   UNK N   1      36.340  14.488  13.582  0.00  0.00     0.043 A 
HETATM   32  C   UNK N   1      35.791  13.326  14.019  0.00  0.00    -0.008 A 
HETATM   33  N   UNK N   1      37.006  15.112  14.563  0.00  0.00    -0.365 N 
HETATM   34  C   UNK N   1      35.048  12.500  13.175  0.00  0.00     0.014 A 
HETATM   35  C   UNK N   1      36.117  13.189  15.348  0.00  0.00     0.030 A 
HETATM   36  C   UNK N   1      34.877  12.908  11.835  0.00  0.00     0.013 A 
HETATM   37  C   UNK N   1      36.876  14.321  15.656  0.00  0.00     0.089 A 
HETATM   38  H   UNK N   1      37.490  15.967  14.502  0.00  0.00     0.165 HD
ENDBRANCH   3  29
TORSDOF 8
ENDMDL
MODEL 4
REMARK VINA RESULT:      -7.8      2.673      5.461
REMARK  8 active torsions:
REMARK  status: ('A' for Active; 'I' for Inactive)
REMARK    1  A    between atoms: N_1  and  C_2 
REMARK    2  A    between atoms: C_8  and  N_9 
REMARK    3  A    between atoms: N_9  and  C_10 
REMARK    4  A    between atoms: C_10  and  C_11 
REMARK    5  A    between atoms: C_13  and  C_26 
REMARK    6  A    between atoms: C_16  and  O_17 
REMARK    7  A    between atoms: O_17  and  C_18 
REMARK    8  A    between atoms: C_18  and  C_19 
ROOT
HETATM    1  C   UNK N   1      24.485  16.271   5.220  0.00  0.00    -0.006 A 
HETATM    2  C   UNK N   1      23.987  15.582   6.314  0.00  0.00     0.024 A 
HETATM    3  C   UNK N   1      24.584  14.456   6.859  0.00  0.00    -0.025 A 
HETATM    4  C   UNK N   1      25.758  13.975   6.283  0.00  0.00     0.015 A 
HETATM    5  C   UNK N   1      26.304  14.635   5.176  0.00  0.00     0.038 A 
HETATM    6  C   UNK N   1      25.702  15.780   4.617  0.00  0.00     0.077 A 
ENDROOT
BRANCH   1   7
HETATM    7  C   UNK N   1      23.577  17.434   4.913  0.00  0.00     0.161 C 
BRANCH   7   8
HETATM    8  N   UNK N   1      22.241  17.268   4.426  0.00  0.00    -0.383 N 
HETATM    9  H   UNK N   1      21.734  16.452   4.638  0.00  0.00     0.160 HD
BRANCH   8  10
HETATM   10  C   UNK N   1      21.656  18.292   3.636  0.00  0.00     0.072 A 
HETATM   11  C   UNK N   1      20.369  18.141   3.105  0.00  0.00     0.125 A 
HETATM   12  N   UNK N   1      19.822  19.131   2.349  0.00  0.00    -0.351 N 
HETATM   13  C   UNK N   1      20.493  20.285   2.085  0.00  0.00     0.090 A 
ATOM     14  HN  UNK N   1      18.883  19.005   1.970  1.00  0.00     0.166 HD
HETATM   15  C   UNK N   1      21.777  20.480   2.593  0.00  0.00     0.019 A 
HETATM   16  C   UNK N   1      22.358  19.481   3.369  0.00  0.00     0.034 A 
BRANCH  11  17
HETATM   17  N   UNK N   1      19.633  16.964   3.349  0.00  0.00    -0.384 N 
HETATM   18  H   UNK N   1      20.102  16.108   3.480  0.00  0.00     0.157 HD
HETATM   19  H   UNK N   1      18.650  16.996   3.389  0.00  0.00     0.157 HD
ENDBRANCH  11  17
ENDBRANCH   8  10
ENDBRANCH   7   8
ENDBRANCH   1   7
BRANCH   6  20
HETATM   20  O   UNK N   1      26.352  16.305   3.545  0.00  0.00    -0.345 OA
BRANCH  20  21
HETATM   21  C   UNK N   1      27.500  17.049   3.503  0.00  0.00     0.232 C 
BRANCH  21  22
HETATM   22  C   UNK N   1      27.327  18.331   4.252  0.00  0.00     0.033 A 
HETATM   23  N   UNK N   1      27.915  18.512   5.470  0.00  0.00    -0.367 N 
HETATM   24  C   UNK N   1      27.769  19.672   6.167  0.00  0.00     0.088 A 
ATOM     25  HN  UNK N   1      28.478  17.760   5.868  1.00  0.00     0.165 HD
HETATM   26  C   UNK N   1      27.003  20.713   5.640  0.00  0.00     0.017 A 
HETATM   27  C   UNK N   1      26.393  20.550   4.396  0.00  0.00     0.003 A 
HETATM   28  C   UNK N   1      26.554  19.354   3.697  0.00  0.00     0.027 A 
ENDBRANCH  21  22
ENDBRANCH  20  21
ENDBRANCH   6  20
BRANCH   3  29
HETATM   29  C   UNK N   1      23.936  13.825   8.028  0.00  0.00    -0.024 A 
HETATM   30  C   UNK N   1      24.752  13.361   9.085  0.00  0.00     0.042 A 
HETATM   31  C   UNK N   1      24.150  12.771  10.179  0.00  0.00     0.043 A 
HETATM   32  C   UNK N   1      22.803  12.627  10.266  0.00  0.00    -0.008 A 
HETATM   33  N   UNK N   1      24.764  12.278  11.263  0.00  0.00    -0.365 N 
HETATM   34  C   UNK N   1      21.949  13.067   9.254  0.00  0.00     0.014 A 
HETATM   35  C   UNK N   1      22.530  12.010  11.465  0.00  0.00     0.030 A 
HETATM   36  C   UNK N   1      22.528  13.675   8.119  0.00  0.00     0.013 A 
HETATM   37  C   UNK N   1      23.777  11.806  12.062  0.00  0.00     0.089 A 
HETATM   38  H   UNK N   1      25.733  12.261  11.441  0.00  0.00     0.165 HD
ENDBRANCH   3  29
TORSDOF 8
ENDMDL
MODEL 5
REMARK VINA RESULT:      -7.7      7.730     11.536
REMARK  8 active torsions:
REMARK  status: ('A' for Active; 'I' for Inactive)
REMARK    1  A    between atoms: N_1  and  C_2 
REMARK    2  A    between atoms: C_8  and  N_9 
REMARK    3  A    between atoms: N_9  and  C_10 
REMARK    4  A    between atoms: C_10  and  C_11 
REMARK    5  A    between atoms: C_13  and  C_26 
REMARK    6  A    between atoms: C_16  and  O_17 
REMARK    7  A    between atoms: O_17  and  C_18 
REMARK    8  A    between atoms: C_18  and  C_19 
ROOT
HETATM    1  C   UNK N   1      36.294  14.618  11.490  0.00  0.00    -0.006 A 
HETATM    2  C   UNK N   1      36.068  14.099  12.754  0.00  0.00     0.024 A 
HETATM    3  C   UNK N   1      36.611  12.909  13.212  0.00  0.00    -0.025 A 
HETATM    4  C   UNK N   1      37.437  12.178  12.361  0.00  0.00     0.015 A 
HETATM    5  C   UNK N   1      37.698  12.658  11.073  0.00  0.00     0.038 A 
HETATM    6  C   UNK N   1      37.149  13.867  10.600  0.00  0.00     0.077 A 
ENDROOT
BRANCH   1   7
HETATM    7  C   UNK N   1      35.544  15.918  11.348  0.00  0.00     0.161 C 
BRANCH   7   8
HETATM    8  N   UNK N   1      35.441  16.622  10.106  0.00  0.00    -0.383 N 
HETATM    9  H   UNK N   1      36.216  17.110   9.746  0.00  0.00     0.160 HD
BRANCH   8  10
HETATM   10  C   UNK N   1      34.209  16.612   9.400  0.00  0.00     0.072 A 
HETATM   11  C   UNK N   1      33.861  17.667   8.548  0.00  0.00     0.125 A 
HETATM   12  N   UNK N   1      32.677  17.643   7.878  0.00  0.00    -0.351 N 
HETATM   13  C   UNK N   1      31.802  16.609   8.009  0.00  0.00     0.090 A 
ATOM     14  HN  UNK N   1      32.440  18.420   7.261  1.00  0.00     0.166 HD
HETATM   15  C   UNK N   1      32.105  15.536   8.845  0.00  0.00     0.019 A 
HETATM   16  C   UNK N   1      33.311  15.539   9.541  0.00  0.00     0.034 A 
BRANCH  11  17
HETATM   17  N   UNK N   1      34.734  18.762   8.379  0.00  0.00    -0.384 N 
HETATM   18  H   UNK N   1      34.388  19.621   8.046  0.00  0.00     0.157 HD
HETATM   19  H   UNK N   1      35.690  18.667   8.594  0.00  0.00     0.157 HD
ENDBRANCH  11  17
ENDBRANCH   8  10
ENDBRANCH   7   8
ENDBRANCH   1   7
BRANCH   6  20
HETATM   20  O   UNK N   1      37.496  14.198   9.328  0.00  0.00    -0.345 OA
BRANCH  20  21
HETATM   21  C   UNK N   1      37.453  13.440   8.190  0.00  0.00     0.232 C 
BRANCH  21  22
HETATM   22  C   UNK N   1      36.178  13.674   7.446  0.00  0.00     0.033 A 
HETATM   23  N   UNK N   1      36.024  14.776   6.657  0.00  0.00    -0.367 N 
HETATM   24  C   UNK N   1      34.871  15.006   5.972  0.00  0.00     0.088 A 
ATOM     25  HN  UNK N   1      36.791  15.444   6.578  1.00  0.00     0.165 HD
HETATM   26  C   UNK N   1      33.809  14.105   6.066  0.00  0.00     0.017 A 
HETATM   27  C   UNK N   1      33.945  12.971   6.868  0.00  0.00     0.003 A 
HETATM   28  C   UNK N   1      35.135  12.752   7.562  0.00  0.00     0.027 A 
ENDBRANCH  21  22
ENDBRANCH  20  21
ENDBRANCH   6  20
BRANCH   3  29
HETATM   29  C   UNK N   1      36.280  12.480  14.588  0.00  0.00    -0.024 A 
HETATM   30  C   UNK N   1      35.940  13.468  15.539  0.00  0.00     0.042 A 
HETATM   31  C   UNK N   1      35.630  13.072  16.826  0.00  0.00     0.043 A 
HETATM   32  C   UNK N   1      35.644  11.766  17.198  0.00  0.00    -0.008 A 
HETATM   33  N   UNK N   1      35.287  13.866  17.849  0.00  0.00    -0.365 N 
HETATM   34  C   UNK N   1      35.973  10.749  16.301  0.00  0.00     0.014 A 
HETATM   35  C   UNK N   1      35.293  11.711  18.526  0.00  0.00     0.030 A 
HETATM   36  C   UNK N   1      36.295  11.116  14.976  0.00  0.00     0.013 A 
HETATM   37  C   UNK N   1      35.077  13.039  18.902  0.00  0.00     0.089 A 
HETATM   38  H   UNK N   1      35.204  14.847  17.838  0.00  0.00     0.165 HD
ENDBRANCH   3  29
TORSDOF 8
ENDMDL
MODEL 6
REMARK VINA RESULT:      -7.6     13.758     16.399
REMARK  8 active torsions:
REMARK  status: ('A' for Active; 'I' for Inactive)
REMARK    1  A    between atoms: N_1  and  C_2 
REMARK    2  A    between atoms: C_8  and  N_9 
REMARK    3  A    between atoms: N_9  and  C_10 
REMARK    4  A    between atoms: C_10  and  C_11 
REMARK    5  A    between atoms: C_13  and  C_26 
REMARK    6  A    between atoms: C_16  and  O_17 
REMARK    7  A    between atoms: O_17  and  C_18 
REMARK    8  A    between atoms: C_18  and  C_19 
ROOT
HETATM    1  C   UNK N   1      27.215  24.554  -5.546  0.00  0.00    -0.006 A 
HETATM    2  C   UNK N   1      28.247  23.630  -5.571  0.00  0.00     0.024 A 
HETATM    3  C   UNK N   1      28.903  23.170  -4.440  0.00  0.00    -0.025 A 
HETATM    4  C   UNK N   1      28.513  23.656  -3.195  0.00  0.00     0.015 A 
HETATM    5  C   UNK N   1      27.475  24.591  -3.114  0.00  0.00     0.038 A 
HETATM    6  C   UNK N   1      26.803  25.064  -4.259  0.00  0.00     0.077 A 
ENDROOT
BRANCH   1   7
HETATM    7  C   UNK N   1      26.748  24.813  -6.956  0.00  0.00     0.161 C 
BRANCH   7   8
HETATM    8  N   UNK N   1      25.555  24.237  -7.497  0.00  0.00    -0.383 N 
HETATM    9  H   UNK N   1      24.672  24.574  -7.220  0.00  0.00     0.160 HD
BRANCH   8  10
HETATM   10  C   UNK N   1      25.657  23.177  -8.435  0.00  0.00     0.072 A 
HETATM   11  C   UNK N   1      25.144  21.907  -8.141  0.00  0.00     0.125 A 
HETATM   12  N   UNK N   1      25.249  20.900  -9.050  0.00  0.00    -0.351 N 
HETATM   13  C   UNK N   1      25.846  21.087 -10.258  0.00  0.00     0.090 A 
ATOM     14  HN  UNK N   1      24.870  19.982  -8.820  1.00  0.00     0.166 HD
HETATM   15  C   UNK N   1      26.371  22.333 -10.595  0.00  0.00     0.019 A 
HETATM   16  C   UNK N   1      26.276  23.379  -9.681  0.00  0.00     0.034 A 
BRANCH  11  17
HETATM   17  N   UNK N   1      24.516  21.663  -6.902  0.00  0.00    -0.384 N 
HETATM   18  H   UNK N   1      24.371  22.404  -6.269  0.00  0.00     0.157 HD
HETATM   19  H   UNK N   1      24.223  20.753  -6.669  0.00  0.00     0.157 HD
ENDBRANCH  11  17
ENDBRANCH   8  10
ENDBRANCH   7   8
ENDBRANCH   1   7
BRANCH   6  20
HETATM   20  O   UNK N   1      25.819  25.969  -4.016  0.00  0.00    -0.345 OA
BRANCH  20  21
HETATM   21  C   UNK N   1      25.310  26.941  -4.833  0.00  0.00     0.232 C 
BRANCH  21  22
HETATM   22  C   UNK N   1      26.081  28.214  -4.684  0.00  0.00     0.033 A 
HETATM   23  N   UNK N   1      25.846  29.052  -3.635  0.00  0.00    -0.367 N 
HETATM   24  C   UNK N   1      26.537  30.215  -3.482  0.00  0.00     0.088 A 
ATOM     25  HN  UNK N   1      25.135  28.802  -2.947  1.00  0.00     0.165 HD
HETATM   26  C   UNK N   1      27.514  30.575  -4.413  0.00  0.00     0.017 A 
HETATM   27  C   UNK N   1      27.770  29.732  -5.494  0.00  0.00     0.003 A 
HETATM   28  C   UNK N   1      27.052  28.544  -5.633  0.00  0.00     0.027 A 
ENDBRANCH  21  22
ENDBRANCH  20  21
ENDBRANCH   6  20
BRANCH   3  29
HETATM   29  C   UNK N   1      29.988  22.182  -4.623  0.00  0.00    -0.024 A 
HETATM   30  C   UNK N   1      31.016  22.120  -3.655  0.00  0.00     0.042 A 
HETATM   31  C   UNK N   1      32.031  21.198  -3.822  0.00  0.00     0.043 A 
HETATM   32  C   UNK N   1      32.067  20.355  -4.886  0.00  0.00    -0.008 A 
HETATM   33  N   UNK N   1      33.077  21.002  -3.009  0.00  0.00    -0.365 N 
HETATM   34  C   UNK N   1      31.080  20.372  -5.871  0.00  0.00     0.014 A 
HETATM   35  C   UNK N   1      33.192  19.575  -4.756  0.00  0.00     0.030 A 
HETATM   36  C   UNK N   1      30.026  21.301  -5.735  0.00  0.00     0.013 A 
HETATM   37  C   UNK N   1      33.800  20.004  -3.574  0.00  0.00     0.089 A 
HETATM   38  H   UNK N   1      33.280  21.483  -2.174  0.00  0.00     0.165 HD
ENDBRANCH   3  29
TORSDOF 8
ENDMDL
MODEL 7
REMARK VINA RESULT:      -7.5      5.109      7.803
REMARK  8 active torsions:
REMARK  status: ('A' for Active; 'I' for Inactive)
REMARK    1  A    between atoms: N_1  and  C_2 
REMARK    2  A    between atoms: C_8  and  N_9 
REMARK    3  A    between atoms: N_9  and  C_10 
REMARK    4  A    between atoms: C_10  and  C_11 
REMARK    5  A    between atoms: C_13  and  C_26 
REMARK    6  A    between atoms: C_16  and  O_17 
REMARK    7  A    between atoms: O_17  and  C_18 
REMARK    8  A    between atoms: C_18  and  C_19 
ROOT
HETATM    1  C   UNK N   1      30.074  17.416   5.341  0.00  0.00    -0.006 A 
HETATM    2  C   UNK N   1      28.945  17.960   4.751  0.00  0.00     0.024 A 
HETATM    3  C   UNK N   1      27.923  18.577   5.456  0.00  0.00    -0.025 A 
HETATM    4  C   UNK N   1      28.022  18.662   6.843  0.00  0.00     0.015 A 
HETATM    5  C   UNK N   1      29.143  18.127   7.488  0.00  0.00     0.038 A 
HETATM    6  C   UNK N   1      30.186  17.499   6.779  0.00  0.00     0.077 A 
ENDROOT
BRANCH   1   7
HETATM    7  C   UNK N   1      30.961  16.835   4.269  0.00  0.00     0.161 C 
BRANCH   7   8
HETATM    8  N   UNK N   1      31.395  15.471   4.275  0.00  0.00    -0.383 N 
HETATM    9  H   UNK N   1      30.885  14.786   3.786  0.00  0.00     0.160 HD
BRANCH   8  10
HETATM   10  C   UNK N   1      32.567  15.117   4.994  0.00  0.00     0.072 A 
HETATM   11  C   UNK N   1      32.673  13.871   5.624  0.00  0.00     0.125 A 
HETATM   12  N   UNK N   1      33.803  13.545   6.309  0.00  0.00    -0.351 N 
HETATM   13  C   UNK N   1      34.854  14.404   6.405  0.00  0.00     0.090 A 
ATOM     14  HN  UNK N   1      33.864  12.633   6.761  1.00  0.00     0.166 HD
HETATM   15  C   UNK N   1      34.794  15.656   5.794  0.00  0.00     0.019 A 
HETATM   16  C   UNK N   1      33.648  16.011   5.088  0.00  0.00     0.034 A 
BRANCH  11  17
HETATM   17  N   UNK N   1      31.611  12.946   5.553  0.00  0.00    -0.384 N 
HETATM   18  H   UNK N   1      31.723  12.039   5.920  0.00  0.00     0.157 HD
HETATM   19  H   UNK N   1      30.759  13.205   5.135  0.00  0.00     0.157 HD
ENDBRANCH  11  17
ENDBRANCH   8  10
ENDBRANCH   7   8
ENDBRANCH   1   7
BRANCH   6  20
HETATM   20  O   UNK N   1      31.204  17.032   7.547  0.00  0.00    -0.345 OA
BRANCH  20  21
HETATM   21  C   UNK N   1      32.243  17.712   8.123  0.00  0.00     0.232 C 
BRANCH  21  22
HETATM   22  C   UNK N   1      33.086  16.792   8.946  0.00  0.00     0.033 A 
HETATM   23  N   UNK N   1      34.248  17.229   9.510  0.00  0.00    -0.367 N 
HETATM   24  C   UNK N   1      35.030  16.407  10.262  0.00  0.00     0.088 A 
ATOM     25  HN  UNK N   1      34.540  18.196   9.365  1.00  0.00     0.165 HD
HETATM   26  C   UNK N   1      34.649  15.080  10.472  0.00  0.00     0.017 A 
HETATM   27  C   UNK N   1      33.464  14.611   9.905  0.00  0.00     0.003 A 
HETATM   28  C   UNK N   1      32.676  15.470   9.137  0.00  0.00     0.027 A 
ENDBRANCH  21  22
ENDBRANCH  20  21
ENDBRANCH   6  20
BRANCH   3  29
HETATM   29  C   UNK N   1      26.778  19.112   4.689  0.00  0.00    -0.024 A 
HETATM   30  C   UNK N   1      25.490  18.591   4.947  0.00  0.00     0.042 A 
HETATM   31  C   UNK N   1      24.417  19.089   4.233  0.00  0.00     0.043 A 
HETATM   32  C   UNK N   1      24.568  20.060   3.295  0.00  0.00    -0.008 A 
HETATM   33  N   UNK N   1      23.136  18.715   4.346  0.00  0.00    -0.365 N 
HETATM   34  C   UNK N   1      25.815  20.610   2.999  0.00  0.00     0.014 A 
HETATM   35  C   UNK N   1      23.323  20.328   2.774  0.00  0.00     0.030 A 
HETATM   36  C   UNK N   1      26.936  20.126   3.709  0.00  0.00     0.013 A 
HETATM   37  C   UNK N   1      22.452  19.471   3.452  0.00  0.00     0.089 A 
HETATM   38  H   UNK N   1      22.767  18.033   4.952  0.00  0.00     0.165 HD
ENDBRANCH   3  29
TORSDOF 8
ENDMDL
MODEL 8
REMARK VINA RESULT:      -7.4     10.373     13.093
REMARK  8 active torsions:
REMARK  status: ('A' for Active; 'I' for Inactive)
REMARK    1  A    between atoms: N_1  and  C_2 
REMARK    2  A    between atoms: C_8  and  N_9 
REMARK    3  A    between atoms: N_9  and  C_10 
REMARK    4  A    between atoms: C_10  and  C_11 
REMARK    5  A    between atoms: C_13  and  C_26 
REMARK    6  A    between atoms: C_16  and  O_17 
REMARK    7  A    between atoms: O_17  and  C_18 
REMARK    8  A    between atoms: C_18  and  C_19 
ROOT
HETATM    1  C   UNK N   1      34.553  11.113  14.540  0.00  0.00    -0.006 A 
HETATM    2  C   UNK N   1      34.686  10.476  15.763  0.00  0.00     0.024 A 
HETATM    3  C   UNK N   1      35.000  11.127  16.946  0.00  0.00    -0.025 A 
HETATM    4  C   UNK N   1      35.197  12.505  16.920  0.00  0.00     0.015 A 
HETATM    5  C   UNK N   1      35.074  13.197  15.710  0.00  0.00     0.038 A 
HETATM    6  C   UNK N   1      34.756  12.543  14.504  0.00  0.00     0.077 A 
ENDROOT
BRANCH   1   7
HETATM    7  C   UNK N   1      34.209  10.093  13.485  0.00  0.00     0.161 C 
BRANCH   7   8
HETATM    8  N   UNK N   1      33.598  10.440  12.239  0.00  0.00    -0.383 N 
HETATM    9  H   UNK N   1      32.617  10.466  12.157  0.00  0.00     0.160 HD
BRANCH   8  10
HETATM   10  C   UNK N   1      34.419  10.747  11.122  0.00  0.00     0.072 A 
HETATM   11  C   UNK N   1      33.854  11.039   9.875  0.00  0.00     0.125 A 
HETATM   12  N   UNK N   1      34.654  11.332   8.814  0.00  0.00    -0.351 N 
HETATM   13  C   UNK N   1      36.011  11.351   8.924  0.00  0.00     0.090 A 
ATOM     14  HN  UNK N   1      34.226  11.542   7.912  1.00  0.00     0.166 HD
HETATM   15  C   UNK N   1      36.618  11.067  10.146  0.00  0.00     0.019 A 
HETATM   16  C   UNK N   1      35.820  10.765  11.246  0.00  0.00     0.034 A 
BRANCH  11  17
HETATM   17  N   UNK N   1      32.454  11.032   9.710  0.00  0.00    -0.384 N 
HETATM   18  H   UNK N   1      32.014  11.753   9.203  0.00  0.00     0.157 HD
HETATM   19  H   UNK N   1      31.915  10.307  10.101  0.00  0.00     0.157 HD
ENDBRANCH  11  17
ENDBRANCH   8  10
ENDBRANCH   7   8
ENDBRANCH   1   7
BRANCH   6  20
HETATM   20  O   UNK N   1      34.673  13.352  13.415  0.00  0.00    -0.345 OA
BRANCH  20  21
HETATM   21  C   UNK N   1      35.639  14.125  12.830  0.00  0.00     0.232 C 
BRANCH  21  22
HETATM   22  C   UNK N   1      35.094  14.840  11.636  0.00  0.00     0.033 A 
HETATM   23  N   UNK N   1      34.026  14.339  10.952  0.00  0.00    -0.367 N 
HETATM   24  C   UNK N   1      33.515  14.975   9.862  0.00  0.00     0.088 A 
ATOM     25  HN  UNK N   1      33.599  13.466  11.263  1.00  0.00     0.165 HD
HETATM   26  C   UNK N   1      34.084  16.171   9.420  0.00  0.00     0.017 A 
HETATM   27  C   UNK N   1      35.177  16.702  10.106  0.00  0.00     0.003 A 
HETATM   28  C   UNK N   1      35.686  16.034  11.220  0.00  0.00     0.027 A 
ENDBRANCH  21  22
ENDBRANCH  20  21
ENDBRANCH   6  20
BRANCH   3  29
HETATM   29  C   UNK N   1      35.108  10.314  18.176  0.00  0.00    -0.024 A 
HETATM   30  C   UNK N   1      35.798  10.854  19.285  0.00  0.00     0.042 A 
HETATM   31  C   UNK N   1      35.901  10.097  20.436  0.00  0.00     0.043 A 
HETATM   32  C   UNK N   1      35.360   8.855  20.529  0.00  0.00    -0.008 A 
HETATM   33  N   UNK N   1      36.515  10.449  21.574  0.00  0.00    -0.365 N 
HETATM   34  C   UNK N   1      34.669   8.273  19.467  0.00  0.00     0.014 A 
HETATM   35  C   UNK N   1      35.637   8.378  21.789  0.00  0.00     0.030 A 
HETATM   36  C   UNK N   1      34.542   9.016  18.274  0.00  0.00     0.013 A 
HETATM   37  C   UNK N   1      36.359   9.397  22.415  0.00  0.00     0.089 A 
HETATM   38  H   UNK N   1      36.983  11.295  21.760  0.00  0.00     0.165 HD
ENDBRANCH   3  29
TORSDOF 8
ENDMDL
MODEL 9
REMARK VINA RESULT:      -7.4      2.297      7.194
REMARK  8 active torsions:
REMARK  status: ('A' for Active; 'I' for Inactive)
REMARK    1  A    between atoms: N_1  and  C_2 
REMARK    2  A    between atoms: C_8  and  N_9 
REMARK    3  A    between atoms: N_9  and  C_10 
REMARK    4  A    between atoms: C_10  and  C_11 
REMARK    5  A    between atoms: C_13  and  C_26 
REMARK    6  A    between atoms: C_16  and  O_17 
REMARK    7  A    between atoms: O_17  and  C_18 
REMARK    8  A    between atoms: C_18  and  C_19 
ROOT
HETATM    1  C   UNK N   1      25.248  15.594   6.164  0.00  0.00    -0.006 A 
HETATM    2  C   UNK N   1      26.481  15.921   6.704  0.00  0.00     0.024 A 
HETATM    3  C   UNK N   1      27.299  16.929   6.215  0.00  0.00    -0.025 A 
HETATM    4  C   UNK N   1      26.868  17.667   5.115  0.00  0.00     0.015 A 
HETATM    5  C   UNK N   1      25.629  17.377   4.532  0.00  0.00     0.038 A 
HETATM    6  C   UNK N   1      24.793  16.354   5.023  0.00  0.00     0.077 A 
ENDROOT
BRANCH   1   7
HETATM    7  C   UNK N   1      24.650  14.456   6.951  0.00  0.00     0.161 C 
BRANCH   7   8
HETATM    8  N   UNK N   1      25.349  13.792   8.008  0.00  0.00    -0.383 N 
HETATM    9  H   UNK N   1      26.332  13.837   8.059  0.00  0.00     0.160 HD
BRANCH   8  10
HETATM   10  C   UNK N   1      24.613  13.068   8.983  0.00  0.00     0.072 A 
HETATM   11  C   UNK N   1      24.980  13.107  10.334  0.00  0.00     0.125 A 
HETATM   12  N   UNK N   1      24.265  12.407  11.256  0.00  0.00    -0.351 N 
HETATM   13  C   UNK N   1      23.185  11.657  10.906  0.00  0.00     0.090 A 
ATOM     14  HN  UNK N   1      24.546  12.446  12.236  1.00  0.00     0.166 HD
HETATM   15  C   UNK N   1      22.782  11.588   9.573  0.00  0.00     0.019 A 
HETATM   16  C   UNK N   1      23.499  12.295   8.611  0.00  0.00     0.034 A 
BRANCH  11  17
HETATM   17  N   UNK N   1      26.091  13.869  10.747  0.00  0.00    -0.384 N 
HETATM   18  H   UNK N   1      26.447  13.767  11.659  0.00  0.00     0.157 HD
HETATM   19  H   UNK N   1      26.513  14.504  10.124  0.00  0.00     0.157 HD
ENDBRANCH  11  17
ENDBRANCH   8  10
ENDBRANCH   7   8
ENDBRANCH   1   7
BRANCH   6  20
HETATM   20  O   UNK N   1      23.623  16.195   4.349  0.00  0.00    -0.345 OA
BRANCH  20  21
HETATM   21  C   UNK N   1      22.342  16.439   4.762  0.00  0.00     0.232 C 
BRANCH  21  22
HETATM   22  C   UNK N   1      21.722  17.528   3.948  0.00  0.00     0.033 A 
HETATM   23  N   UNK N   1      22.304  18.759   3.873  0.00  0.00    -0.367 N 
HETATM   24  C   UNK N   1      21.755  19.764   3.137  0.00  0.00     0.088 A 
ATOM     25  HN  UNK N   1      23.172  18.932   4.380  1.00  0.00     0.165 HD
HETATM   26  C   UNK N   1      20.567  19.548   2.436  0.00  0.00     0.017 A 
HETATM   27  C   UNK N   1      19.954  18.297   2.499  0.00  0.00     0.003 A 
HETATM   28  C   UNK N   1      20.533  17.280   3.258  0.00  0.00     0.027 A 
ENDBRANCH  21  22
ENDBRANCH  20  21
ENDBRANCH   6  20
BRANCH   3  29
HETATM   29  C   UNK N   1      28.590  17.164   6.896  0.00  0.00    -0.024 A 
HETATM   30  C   UNK N   1      29.783  16.996   6.156  0.00  0.00     0.042 A 
HETATM   31  C   UNK N   1      30.992  17.215   6.788  0.00  0.00     0.043 A 
HETATM   32  C   UNK N   1      31.063  17.584   8.093  0.00  0.00    -0.008 A 
HETATM   33  N   UNK N   1      32.212  17.104   6.246  0.00  0.00    -0.365 N 
HETATM   34  C   UNK N   1      29.919  17.763   8.870  0.00  0.00     0.014 A 
HETATM   35  C   UNK N   1      32.394  17.719   8.412  0.00  0.00     0.030 A 
HETATM   36  C   UNK N   1      28.664  17.549   8.259  0.00  0.00     0.013 A 
HETATM   37  C   UNK N   1      33.084  17.412   7.237  0.00  0.00     0.089 A 
HETATM   38  H   UNK N   1      32.429  16.851   5.320  0.00  0.00     0.165 HD
ENDBRANCH   3  29
TORSDOF 8
ENDMDL
