MODEL 1
REMARK VINA RESULT:      -8.0      0.000      0.000
REMARK  8 active torsions:
REMARK  status: ('A' for Active; 'I' for Inactive)
REMARK    1  A    between atoms: C_1  and  S_12 
REMARK    2  A    between atoms: S_12  and  N_15 
REMARK    3  A    between atoms: N_15  and  C_16 
REMARK    4  A    between atoms: C_16  and  C_17 
REMARK    5  A    between atoms: C_17  and  N_18 
REMARK    6  A    between atoms: N_18  and  C_19 
REMARK    7  A    between atoms: C_19  and  C_20 
REMARK    8  A    between atoms: C_21  and  C_22 
ROOT
HETATM    1  N   UNK N   1      34.333  17.235   9.947  0.00  0.00    -0.314 N 
HETATM    2  H   UNK N   1      33.765  17.746  10.622  0.00  0.00     0.172 HD
ENDROOT
BRANCH   1   3
HETATM    3  S   UNK N   1      34.126  17.277   8.188  0.00  0.00     0.259 S 
HETATM    4  O   UNK N   1      34.977  16.122   7.634  0.00  0.00    -0.201 OA
HETATM    5  O   UNK N   1      34.865  18.531   7.695  0.00  0.00    -0.201 OA
BRANCH   3   6
HETATM    6  C   UNK N   1      32.411  17.215   7.675  0.00  0.00     0.090 A 
HETATM    7  C   UNK N   1      31.405  17.164   8.647  0.00  0.00     0.026 A 
HETATM    8  C   UNK N   1      30.059  17.164   8.271  0.00  0.00     0.002 A 
HETATM    9  C   UNK N   1      29.706  17.223   6.920  0.00  0.00     0.014 A 
HETATM   10  C   UNK N   1      30.702  17.276   5.941  0.00  0.00    -0.009 A 
HETATM   11  C   UNK N   1      30.360  17.344   4.589  0.00  0.00     0.100 A 
HETATM   12  C   UNK N   1      32.062  17.271   6.312  0.00  0.00     0.000 A 
HETATM   13  N   UNK N   1      31.333  17.401   3.640  0.00  0.00    -0.374 N 
HETATM   14  C   UNK N   1      32.653  17.394   3.972  0.00  0.00     0.088 A 
ATOM     15  HN  UNK N   1      31.068  17.450   2.657  1.00  0.00     0.164 HD
HETATM   16  C   UNK N   1      33.040  17.331   5.312  0.00  0.00     0.031 A 
ENDBRANCH   3   6
ENDBRANCH   1   3
BRANCH   1  17
HETATM   17  C   UNK N   1      35.440  16.356  10.274  0.00  0.00     0.151 C 
BRANCH  17  18
HETATM   18  C   UNK N   1      34.999  15.343  11.315  0.00  0.00     0.134 C 
BRANCH  18  19
HETATM   19  N   UNK N   1      36.039  15.189  12.319  0.00  0.00    -0.417 N 
HETATM   20  H   UNK N   1      36.351  15.908  12.973  0.00  0.00     0.153 HD
BRANCH  19  21
HETATM   21  C   UNK N   1      36.557  13.832  12.230  0.00  0.00     0.141 C 
BRANCH  21  22
HETATM   22  C   UNK N   1      36.575  13.200  13.582  0.00  0.00    -0.007 C 
HETATM   23  C   UNK N   1      35.582  13.442  14.436  0.00  0.00     0.009 C 
BRANCH  23  24
HETATM   24  C   UNK N   1      35.527  12.850  15.782  0.00  0.00    -0.036 A 
HETATM   25  C   UNK N   1      35.856  11.499  15.935  0.00  0.00     0.012 A 
HETATM   26  C   UNK N   1      35.805  10.898  17.195  0.00  0.00     0.020 A 
HETATM   27  C   UNK N   1      35.427  11.647  18.313  0.00  0.00     0.011 A 
HETATM   28 Br   UNK N   1      35.357  10.821  20.028  0.00  0.00    -0.051 Br
HETATM   29  C   UNK N   1      35.100  12.999  18.170  0.00  0.00     0.020 A 
HETATM   30  C   UNK N   1      35.147  13.601  16.908  0.00  0.00     0.012 A 
ENDBRANCH  23  24
ENDBRANCH  21  22
ENDBRANCH  19  21
ENDBRANCH  18  19
ENDBRANCH  17  18
ENDBRANCH   1  17
TORSDOF 8
ENDMDL
MODEL 2
REMARK VINA RESULT:      -7.5      1.377      2.255
REMARK  8 active torsions:
REMARK  status: ('A' for Active; 'I' for Inactive)
REMARK    1  A    between atoms: C_1  and  S_12 
REMARK    2  A    between atoms: S_12  and  N_15 
REMARK    3  A    between atoms: N_15  and  C_16 
REMARK    4  A    between atoms: C_16  and  C_17 
REMARK    5  A    between atoms: C_17  and  N_18 
REMARK    6  A    between atoms: N_18  and  C_19 
REMARK    7  A    between atoms: C_19  and  C_20 
REMARK    8  A    between atoms: C_21  and  C_22 
ROOT
HETATM    1  N   UNK N   1      33.640  16.611   9.488  0.00  0.00    -0.314 N 
HETATM    2  H   UNK N   1      32.772  16.379   9.970  0.00  0.00     0.172 HD
ENDROOT
BRANCH   1   3
HETATM    3  S   UNK N   1      33.763  17.261   7.845  0.00  0.00     0.259 S 
HETATM    4  O   UNK N   1      34.889  16.470   7.160  0.00  0.00    -0.201 OA
HETATM    5  O   UNK N   1      34.354  18.674   7.980  0.00  0.00    -0.201 OA
BRANCH   3   6
HETATM    6  C   UNK N   1      32.212  17.223   6.950  0.00  0.00     0.090 A 
HETATM    7  C   UNK N   1      32.185  16.718   5.645  0.00  0.00     0.026 A 
HETATM    8  C   UNK N   1      30.978  16.634   4.945  0.00  0.00     0.002 A 
HETATM    9  C   UNK N   1      29.786  17.046   5.547  0.00  0.00     0.014 A 
HETATM   10  C   UNK N   1      29.801  17.550   6.850  0.00  0.00    -0.009 A 
HETATM   11  C   UNK N   1      28.614  17.956   7.463  0.00  0.00     0.100 A 
HETATM   12  C   UNK N   1      31.015  17.644   7.561  0.00  0.00     0.000 A 
HETATM   13  N   UNK N   1      28.633  18.441   8.734  0.00  0.00    -0.374 N 
HETATM   14  C   UNK N   1      29.793  18.545   9.440  0.00  0.00     0.088 A 
ATOM     15  HN  UNK N   1      27.758  18.735   9.169  1.00  0.00     0.164 HD
HETATM   16  C   UNK N   1      31.002  18.146   8.867  0.00  0.00     0.031 A 
ENDBRANCH   3   6
ENDBRANCH   1   3
BRANCH   1  17
HETATM   17  C   UNK N   1      34.973  16.462  10.040  0.00  0.00     0.151 C 
BRANCH  17  18
HETATM   18  C   UNK N   1      34.933  15.512  11.224  0.00  0.00     0.134 C 
BRANCH  18  19
HETATM   19  N   UNK N   1      36.258  15.410  11.815  0.00  0.00    -0.417 N 
HETATM   20  H   UNK N   1      36.891  16.188  12.004  0.00  0.00     0.153 HD
BRANCH  19  21
HETATM   21  C   UNK N   1      36.524  14.006  12.089  0.00  0.00     0.141 C 
BRANCH  21  22
HETATM   22  C   UNK N   1      36.447  13.746  13.557  0.00  0.00    -0.007 C 
HETATM   23  C   UNK N   1      35.794  12.675  14.003  0.00  0.00     0.009 C 
BRANCH  23  24
HETATM   24  C   UNK N   1      35.681  12.349  15.433  0.00  0.00    -0.036 A 
HETATM   25  C   UNK N   1      36.112  11.092  15.871  0.00  0.00     0.012 A 
HETATM   26  C   UNK N   1      36.009  10.743  17.220  0.00  0.00     0.020 A 
HETATM   27  C   UNK N   1      35.480  11.650  18.141  0.00  0.00     0.011 A 
HETATM   28 Br   UNK N   1      35.342  11.165  19.978  0.00  0.00    -0.051 Br
HETATM   29  C   UNK N   1      35.051  12.910  17.712  0.00  0.00     0.020 A 
HETATM   30  C   UNK N   1      35.148  13.260  16.361  0.00  0.00     0.012 A 
ENDBRANCH  23  24
ENDBRANCH  21  22
ENDBRANCH  19  21
ENDBRANCH  18  19
ENDBRANCH  17  18
ENDBRANCH   1  17
TORSDOF 8
ENDMDL
MODEL 3
REMARK VINA RESULT:      -7.3      4.885     11.273
REMARK  8 active torsions:
REMARK  status: ('A' for Active; 'I' for Inactive)
REMARK    1  A    between atoms: C_1  and  S_12 
REMARK    2  A    between atoms: S_12  and  N_15 
REMARK    3  A    between atoms: N_15  and  C_16 
REMARK    4  A    between atoms: C_16  and  C_17 
REMARK    5  A    between atoms: C_17  and  N_18 
REMARK    6  A    between atoms: N_18  and  C_19 
REMARK    7  A    between atoms: C_19  and  C_20 
REMARK    8  A    between atoms: C_21  and  C_22 
ROOT
HETATM    1  N   UNK N   1      36.961  12.514  13.962  0.00  0.00    -0.314 N 
HETATM    2  H   UNK N   1      37.791  12.559  14.553  0.00  0.00     0.172 HD
ENDROOT
BRANCH   1   3
HETATM    3  S   UNK N   1      35.489  11.597  14.324  0.00  0.00     0.259 S 
HETATM    4  O   UNK N   1      35.418  10.478  13.271  0.00  0.00    -0.201 OA
HETATM    5  O   UNK N   1      34.308  12.508  13.954  0.00  0.00    -0.201 OA
BRANCH   3   6
HETATM    6  C   UNK N   1      35.424  10.999  16.011  0.00  0.00     0.090 A 
HETATM    7  C   UNK N   1      35.481   9.622  16.254  0.00  0.00     0.026 A 
HETATM    8  C   UNK N   1      35.480   9.136  17.564  0.00  0.00     0.002 A 
HETATM    9  C   UNK N   1      35.430  10.022  18.643  0.00  0.00     0.014 A 
HETATM   10  C   UNK N   1      35.374  11.399  18.413  0.00  0.00    -0.009 A 
HETATM   11  C   UNK N   1      35.333  12.293  19.484  0.00  0.00     0.100 A 
HETATM   12  C   UNK N   1      35.369  11.898  17.094  0.00  0.00     0.000 A 
HETATM   13  N   UNK N   1      35.284  13.633  19.254  0.00  0.00    -0.374 N 
HETATM   14  C   UNK N   1      35.275  14.140  17.991  0.00  0.00     0.088 A 
ATOM     15  HN  UNK N   1      35.254  14.274  20.047  1.00  0.00     0.164 HD
HETATM   16  C   UNK N   1      35.319  13.282  16.890  0.00  0.00     0.031 A 
ENDBRANCH   3   6
ENDBRANCH   1   3
BRANCH   1  17
HETATM   17  C   UNK N   1      36.796  13.192  12.690  0.00  0.00     0.151 C 
BRANCH  17  18
HETATM   18  C   UNK N   1      36.316  14.613  12.927  0.00  0.00     0.134 C 
BRANCH  18  19
HETATM   19  N   UNK N   1      35.246  14.929  11.994  0.00  0.00    -0.417 N 
HETATM   20  H   UNK N   1      34.327  14.487  11.965  0.00  0.00     0.153 HD
BRANCH  19  21
HETATM   21  C   UNK N   1      35.714  15.987  11.111  0.00  0.00     0.141 C 
BRANCH  21  22
HETATM   22  C   UNK N   1      34.937  15.972   9.836  0.00  0.00    -0.007 C 
HETATM   23  C   UNK N   1      34.367  17.093   9.398  0.00  0.00     0.009 C 
BRANCH  23  24
HETATM   24  C   UNK N   1      33.593  17.157   8.149  0.00  0.00    -0.036 A 
HETATM   25  C   UNK N   1      32.205  16.995   8.211  0.00  0.00     0.012 A 
HETATM   26  C   UNK N   1      31.437  17.039   7.044  0.00  0.00     0.020 A 
HETATM   27  C   UNK N   1      32.053  17.249   5.808  0.00  0.00     0.011 A 
HETATM   28 Br   UNK N   1      31.000  17.306   4.222  0.00  0.00    -0.051 Br
HETATM   29  C   UNK N   1      33.440  17.417   5.738  0.00  0.00     0.020 A 
HETATM   30  C   UNK N   1      34.211  17.369   6.904  0.00  0.00     0.012 A 
ENDBRANCH  23  24
ENDBRANCH  21  22
ENDBRANCH  19  21
ENDBRANCH  18  19
ENDBRANCH  17  18
ENDBRANCH   1  17
TORSDOF 8
ENDMDL
MODEL 4
REMARK VINA RESULT:      -7.2      5.188     11.253
REMARK  8 active torsions:
REMARK  status: ('A' for Active; 'I' for Inactive)
REMARK    1  A    between atoms: C_1  and  S_12 
REMARK    2  A    between atoms: S_12  and  N_15 
REMARK    3  A    between atoms: N_15  and  C_16 
REMARK    4  A    between atoms: C_16  and  C_17 
REMARK    5  A    between atoms: C_17  and  N_18 
REMARK    6  A    between atoms: N_18  and  C_19 
REMARK    7  A    between atoms: C_19  and  C_20 
REMARK    8  A    between atoms: C_21  and  C_22 
ROOT
HETATM    1  N   UNK N   1      36.252  11.061  14.148  0.00  0.00    -0.314 N 
HETATM    2  H   UNK N   1      36.416  10.059  14.050  0.00  0.00     0.172 HD
ENDROOT
BRANCH   1   3
HETATM    3  S   UNK N   1      34.838  11.801  14.916  0.00  0.00     0.259 S 
HETATM    4  O   UNK N   1      33.654  10.870  14.608  0.00  0.00    -0.201 OA
HETATM    5  O   UNK N   1      34.516  13.066  14.105  0.00  0.00    -0.201 OA
BRANCH   3   6
HETATM    6  C   UNK N   1      35.067  12.118  16.664  0.00  0.00     0.090 A 
HETATM    7  C   UNK N   1      35.080  13.438  17.127  0.00  0.00     0.026 A 
HETATM    8  C   UNK N   1      35.209  13.708  18.492  0.00  0.00     0.002 A 
HETATM    9  C   UNK N   1      35.317  12.658  19.408  0.00  0.00     0.014 A 
HETATM   10  C   UNK N   1      35.303  11.336  18.959  0.00  0.00    -0.009 A 
HETATM   11  C   UNK N   1      35.402  10.280  19.867  0.00  0.00     0.100 A 
HETATM   12  C   UNK N   1      35.180  11.055  17.582  0.00  0.00     0.000 A 
HETATM   13  N   UNK N   1      35.382   8.994  19.424  0.00  0.00    -0.374 N 
HETATM   14  C   UNK N   1      35.267   8.697  18.101  0.00  0.00     0.088 A 
ATOM     15  HN  UNK N   1      35.455   8.233  20.100  1.00  0.00     0.164 HD
HETATM   16  C   UNK N   1      35.162   9.722  17.158  0.00  0.00     0.031 A 
ENDBRANCH   3   6
ENDBRANCH   1   3
BRANCH   1  17
HETATM   17  C   UNK N   1      37.141  12.108  13.680  0.00  0.00     0.151 C 
BRANCH  17  18
HETATM   18  C   UNK N   1      37.206  12.083  12.163  0.00  0.00     0.134 C 
BRANCH  18  19
HETATM   19  N   UNK N   1      37.581  13.398  11.668  0.00  0.00    -0.417 N 
HETATM   20  H   UNK N   1      38.490  13.655  11.282  0.00  0.00     0.153 HD
BRANCH  19  21
HETATM   21  C   UNK N   1      36.435  14.282  11.818  0.00  0.00     0.141 C 
BRANCH  21  22
HETATM   22  C   UNK N   1      35.881  14.636  10.479  0.00  0.00    -0.007 C 
HETATM   23  C   UNK N   1      35.350  15.842  10.283  0.00  0.00     0.009 C 
BRANCH  23  24
HETATM   24  C   UNK N   1      34.792  16.266   8.989  0.00  0.00    -0.036 A 
HETATM   25  C   UNK N   1      34.761  15.344   7.937  0.00  0.00     0.012 A 
HETATM   26  C   UNK N   1      34.249  15.714   6.691  0.00  0.00     0.020 A 
HETATM   27  C   UNK N   1      33.760  17.006   6.490  0.00  0.00     0.011 A 
HETATM   28 Br   UNK N   1      33.064  17.503   4.788  0.00  0.00    -0.051 Br
HETATM   29  C   UNK N   1      33.782  17.933   7.538  0.00  0.00     0.020 A 
HETATM   30  C   UNK N   1      34.299  17.566   8.785  0.00  0.00     0.012 A 
ENDBRANCH  23  24
ENDBRANCH  21  22
ENDBRANCH  19  21
ENDBRANCH  18  19
ENDBRANCH  17  18
ENDBRANCH   1  17
TORSDOF 8
ENDMDL
MODEL 5
REMARK VINA RESULT:      -7.1      1.517      2.444
REMARK  8 active torsions:
REMARK  status: ('A' for Active; 'I' for Inactive)
REMARK    1  A    between atoms: C_1  and  S_12 
REMARK    2  A    between atoms: S_12  and  N_15 
REMARK    3  A    between atoms: N_15  and  C_16 
REMARK    4  A    between atoms: C_16  and  C_17 
REMARK    5  A    between atoms: C_17  and  N_18 
REMARK    6  A    between atoms: N_18  and  C_19 
REMARK    7  A    between atoms: C_19  and  C_20 
REMARK    8  A    between atoms: C_21  and  C_22 
ROOT
HETATM    1  N   UNK N   1      35.881  15.197   9.061  0.00  0.00    -0.314 N 
HETATM    2  H   UNK N   1      36.318  14.774   8.242  0.00  0.00     0.172 HD
ENDROOT
BRANCH   1   3
HETATM    3  S   UNK N   1      34.324  16.042   9.074  0.00  0.00     0.259 S 
HETATM    4  O   UNK N   1      34.565  17.361   9.827  0.00  0.00    -0.201 OA
HETATM    5  O   UNK N   1      33.409  15.252  10.023  0.00  0.00    -0.201 OA
BRANCH   3   6
HETATM    6  C   UNK N   1      33.626  16.266   7.439  0.00  0.00     0.090 A 
HETATM    7  C   UNK N   1      34.390  15.932   6.315  0.00  0.00     0.026 A 
HETATM    8  C   UNK N   1      33.849  16.053   5.032  0.00  0.00     0.002 A 
HETATM    9  C   UNK N   1      32.537  16.502   4.862  0.00  0.00     0.014 A 
HETATM   10  C   UNK N   1      31.764  16.837   5.977  0.00  0.00    -0.009 A 
HETATM   11  C   UNK N   1      30.449  17.279   5.818  0.00  0.00     0.100 A 
HETATM   12  C   UNK N   1      32.304  16.723   7.274  0.00  0.00     0.000 A 
HETATM   13  N   UNK N   1      29.700  17.598   6.907  0.00  0.00    -0.374 N 
HETATM   14  C   UNK N   1      30.199  17.500   8.170  0.00  0.00     0.088 A 
ATOM     15  HN  UNK N   1      28.741  17.920   6.775  1.00  0.00     0.164 HD
HETATM   16  C   UNK N   1      31.508  17.059   8.375  0.00  0.00     0.031 A 
ENDBRANCH   3   6
ENDBRANCH   1   3
BRANCH   1  17
HETATM   17  C   UNK N   1      36.434  15.201  10.401  0.00  0.00     0.151 C 
BRANCH  17  18
HETATM   18  C   UNK N   1      36.672  13.774  10.861  0.00  0.00     0.134 C 
BRANCH  18  19
HETATM   19  N   UNK N   1      37.151  13.775  12.234  0.00  0.00    -0.417 N 
HETATM   20  H   UNK N   1      38.008  13.335  12.570  0.00  0.00     0.153 HD
BRANCH  19  21
HETATM   21  C   UNK N   1      36.195  14.515  13.046  0.00  0.00     0.141 C 
BRANCH  21  22
HETATM   22  C   UNK N   1      36.208  14.003  14.447  0.00  0.00    -0.007 C 
HETATM   23  C   UNK N   1      35.371  13.029  14.801  0.00  0.00     0.009 C 
BRANCH  23  24
HETATM   24  C   UNK N   1      35.330  12.468  16.161  0.00  0.00    -0.036 A 
HETATM   25  C   UNK N   1      35.369  11.078  16.315  0.00  0.00     0.012 A 
HETATM   26  C   UNK N   1      35.319  10.509  17.590  0.00  0.00     0.020 A 
HETATM   27  C   UNK N   1      35.236  11.326  18.719  0.00  0.00     0.011 A 
HETATM   28 Br   UNK N   1      35.168  10.543  20.454  0.00  0.00    -0.051 Br
HETATM   29  C   UNK N   1      35.202  12.717  18.574  0.00  0.00     0.020 A 
HETATM   30  C   UNK N   1      35.246  13.289  17.299  0.00  0.00     0.012 A 
ENDBRANCH  23  24
ENDBRANCH  21  22
ENDBRANCH  19  21
ENDBRANCH  18  19
ENDBRANCH  17  18
ENDBRANCH   1  17
TORSDOF 8
ENDMDL
MODEL 6
REMARK VINA RESULT:      -7.0     17.104     19.950
REMARK  8 active torsions:
REMARK  status: ('A' for Active; 'I' for Inactive)
REMARK    1  A    between atoms: C_1  and  S_12 
REMARK    2  A    between atoms: S_12  and  N_15 
REMARK    3  A    between atoms: N_15  and  C_16 
REMARK    4  A    between atoms: C_16  and  C_17 
REMARK    5  A    between atoms: C_17  and  N_18 
REMARK    6  A    between atoms: N_18  and  C_19 
REMARK    7  A    between atoms: C_19  and  C_20 
REMARK    8  A    between atoms: C_21  and  C_22 
ROOT
HETATM    1  N   UNK N   1      31.781  21.834  -6.581  0.00  0.00    -0.314 N 
HETATM    2  H   UNK N   1      32.390  22.649  -6.656  0.00  0.00     0.172 HD
ENDROOT
BRANCH   1   3
HETATM    3  S   UNK N   1      30.067  21.788  -7.027  0.00  0.00     0.259 S 
HETATM    4  O   UNK N   1      29.372  20.941  -5.949  0.00  0.00    -0.201 OA
HETATM    5  O   UNK N   1      29.970  20.911  -8.285  0.00  0.00    -0.201 OA
BRANCH   3   6
HETATM    6  C   UNK N   1      29.346  23.414  -7.238  0.00  0.00     0.090 A 
HETATM    7  C   UNK N   1      30.184  24.513  -7.460  0.00  0.00     0.026 A 
HETATM    8  C   UNK N   1      29.642  25.783  -7.674  0.00  0.00     0.002 A 
HETATM    9  C   UNK N   1      28.256  25.964  -7.678  0.00  0.00     0.014 A 
HETATM   10  C   UNK N   1      27.410  24.874  -7.459  0.00  0.00    -0.009 A 
HETATM   11  C   UNK N   1      26.024  25.044  -7.469  0.00  0.00     0.100 A 
HETATM   12  C   UNK N   1      27.949  23.591  -7.236  0.00  0.00     0.000 A 
HETATM   13  N   UNK N   1      25.204  23.978  -7.262  0.00  0.00    -0.374 N 
HETATM   14  C   UNK N   1      25.700  22.729  -7.040  0.00  0.00     0.088 A 
ATOM     15  HN  UNK N   1      24.194  24.117  -7.271  1.00  0.00     0.164 HD
HETATM   16  C   UNK N   1      27.079  22.514  -7.026  0.00  0.00     0.031 A 
ENDBRANCH   3   6
ENDBRANCH   1   3
BRANCH   1  17
HETATM   17  C   UNK N   1      32.180  20.527  -6.093  0.00  0.00     0.151 C 
BRANCH  17  18
HETATM   18  C   UNK N   1      32.626  20.636  -4.646  0.00  0.00     0.134 C 
BRANCH  18  19
HETATM   19  N   UNK N   1      31.462  20.681  -3.777  0.00  0.00    -0.417 N 
HETATM   20  H   UNK N   1      30.697  20.005  -3.765  0.00  0.00     0.153 HD
BRANCH  19  21
HETATM   21  C   UNK N   1      31.576  21.856  -2.927  0.00  0.00     0.141 C 
BRANCH  21  22
HETATM   22  C   UNK N   1      30.344  22.691  -3.036  0.00  0.00    -0.007 C 
HETATM   23  C   UNK N   1      30.401  23.873  -3.647  0.00  0.00     0.009 C 
BRANCH  23  24
HETATM   24  C   UNK N   1      29.228  24.748  -3.800  0.00  0.00    -0.036 A 
HETATM   25  C   UNK N   1      29.434  26.109  -4.049  0.00  0.00     0.012 A 
HETATM   26  C   UNK N   1      28.345  26.973  -4.188  0.00  0.00     0.020 A 
HETATM   27  C   UNK N   1      27.042  26.480  -4.084  0.00  0.00     0.011 A 
HETATM   28 Br   UNK N   1      25.562  27.665  -4.273  0.00  0.00    -0.051 Br
HETATM   29  C   UNK N   1      26.827  25.120  -3.839  0.00  0.00     0.020 A 
HETATM   30  C   UNK N   1      27.916  24.254  -3.695  0.00  0.00     0.012 A 
ENDBRANCH  23  24
ENDBRANCH  21  22
ENDBRANCH  19  21
ENDBRANCH  18  19
ENDBRANCH  17  18
ENDBRANCH   1  17
TORSDOF 8
ENDMDL
MODEL 7
REMARK VINA RESULT:      -6.9      1.375      2.599
REMARK  8 active torsions:
REMARK  status: ('A' for Active; 'I' for Inactive)
REMARK    1  A    between atoms: C_1  and  S_12 
REMARK    2  A    between atoms: S_12  and  N_15 
REMARK    3  A    between atoms: N_15  and  C_16 
REMARK    4  A    between atoms: C_16  and  C_17 
REMARK    5  A    between atoms: C_17  and  N_18 
REMARK    6  A    between atoms: N_18  and  C_19 
REMARK    7  A    between atoms: C_19  and  C_20 
REMARK    8  A    between atoms: C_21  and  C_22 
ROOT
HETATM    1  N   UNK N   1      33.635  16.027   8.479  0.00  0.00    -0.314 N 
HETATM    2  H   UNK N   1      33.074  15.180   8.382  0.00  0.00     0.172 HD
ENDROOT
BRANCH   1   3
HETATM    3  S   UNK N   1      33.347  17.554   7.628  0.00  0.00     0.259 S 
HETATM    4  O   UNK N   1      34.706  18.272   7.575  0.00  0.00    -0.201 OA
HETATM    5  O   UNK N   1      32.519  18.431   8.580  0.00  0.00    -0.201 OA
BRANCH   3   6
HETATM    6  C   UNK N   1      32.587  17.337   6.021  0.00  0.00     0.090 A 
HETATM    7  C   UNK N   1      33.390  17.353   4.874  0.00  0.00     0.026 A 
HETATM    8  C   UNK N   1      32.826  17.138   3.614  0.00  0.00     0.002 A 
HETATM    9  C   UNK N   1      31.455  16.896   3.489  0.00  0.00     0.014 A 
HETATM   10  C   UNK N   1      30.644  16.875   4.627  0.00  0.00    -0.009 A 
HETATM   11  C   UNK N   1      29.275  16.626   4.513  0.00  0.00     0.100 A 
HETATM   12  C   UNK N   1      31.204  17.097   5.902  0.00  0.00     0.000 A 
HETATM   13  N   UNK N   1      28.491  16.601   5.625  0.00  0.00    -0.374 N 
HETATM   14  C   UNK N   1      29.007  16.815   6.867  0.00  0.00     0.088 A 
ATOM     15  HN  UNK N   1      27.493  16.418   5.527  1.00  0.00     0.164 HD
HETATM   16  C   UNK N   1      30.372  17.065   7.026  0.00  0.00     0.031 A 
ENDBRANCH   3   6
ENDBRANCH   1   3
BRANCH   1  17
HETATM   17  C   UNK N   1      34.796  16.173   9.336  0.00  0.00     0.151 C 
BRANCH  17  18
HETATM   18  C   UNK N   1      35.696  14.959   9.189  0.00  0.00     0.134 C 
BRANCH  18  19
HETATM   19  N   UNK N   1      35.439  14.026  10.274  0.00  0.00    -0.417 N 
HETATM   20  H   UNK N   1      35.228  13.033  10.172  0.00  0.00     0.153 HD
BRANCH  19  21
HETATM   21  C   UNK N   1      35.536  14.754  11.530  0.00  0.00     0.141 C 
BRANCH  21  22
HETATM   22  C   UNK N   1      35.332  13.824  12.680  0.00  0.00    -0.007 C 
HETATM   23  C   UNK N   1      36.199  13.825  13.691  0.00  0.00     0.009 C 
BRANCH  23  24
HETATM   24  C   UNK N   1      36.060  12.943  14.860  0.00  0.00    -0.036 A 
HETATM   25  C   UNK N   1      35.289  13.380  15.943  0.00  0.00     0.012 A 
HETATM   26  C   UNK N   1      35.144  12.576  17.075  0.00  0.00     0.020 A 
HETATM   27  C   UNK N   1      35.765  11.326  17.131  0.00  0.00     0.011 A 
HETATM   28 Br   UNK N   1      35.564  10.235  18.680  0.00  0.00    -0.051 Br
HETATM   29  C   UNK N   1      36.534  10.879  16.051  0.00  0.00     0.020 A 
HETATM   30  C   UNK N   1      36.684  11.685  14.918  0.00  0.00     0.012 A 
ENDBRANCH  23  24
ENDBRANCH  21  22
ENDBRANCH  19  21
ENDBRANCH  18  19
ENDBRANCH  17  18
ENDBRANCH   1  17
TORSDOF 8
ENDMDL
MODEL 8
REMARK VINA RESULT:      -6.8      4.827     11.146
REMARK  8 active torsions:
REMARK  status: ('A' for Active; 'I' for Inactive)
REMARK    1  A    between atoms: C_1  and  S_12 
REMARK    2  A    between atoms: S_12  and  N_15 
REMARK    3  A    between atoms: N_15  and  C_16 
REMARK    4  A    between atoms: C_16  and  C_17 
REMARK    5  A    between atoms: C_17  and  N_18 
REMARK    6  A    between atoms: N_18  and  C_19 
REMARK    7  A    between atoms: C_19  and  C_20 
REMARK    8  A    between atoms: C_21  and  C_22 
ROOT
HETATM    1  N   UNK N   1      36.135  14.527  13.802  0.00  0.00    -0.314 N 
HETATM    2  H   UNK N   1      36.212  15.367  14.375  0.00  0.00     0.172 HD
ENDROOT
BRANCH   1   3
HETATM    3  S   UNK N   1      35.729  12.909  14.400  0.00  0.00     0.259 S 
HETATM    4  O   UNK N   1      36.805  11.967  13.834  0.00  0.00    -0.201 OA
HETATM    5  O   UNK N   1      34.455  12.479  13.657  0.00  0.00    -0.201 OA
BRANCH   3   6
HETATM    6  C   UNK N   1      35.573  12.831  16.183  0.00  0.00     0.090 A 
HETATM    7  C   UNK N   1      35.570  14.017  16.924  0.00  0.00     0.026 A 
HETATM    8  C   UNK N   1      35.402  13.984  18.311  0.00  0.00     0.002 A 
HETATM    9  C   UNK N   1      35.227  12.763  18.968  0.00  0.00     0.014 A 
HETATM   10  C   UNK N   1      35.226  11.572  18.238  0.00  0.00    -0.009 A 
HETATM   11  C   UNK N   1      35.043  10.348  18.885  0.00  0.00     0.100 A 
HETATM   12  C   UNK N   1      35.401  11.597  16.839  0.00  0.00     0.000 A 
HETATM   13  N   UNK N   1      35.037   9.192  18.168  0.00  0.00    -0.374 N 
HETATM   14  C   UNK N   1      35.208   9.189  16.818  0.00  0.00     0.088 A 
ATOM     15  HN  UNK N   1      34.903   8.305  18.655  1.00  0.00     0.164 HD
HETATM   16  C   UNK N   1      35.390  10.390  16.131  0.00  0.00     0.031 A 
ENDBRANCH   3   6
ENDBRANCH   1   3
BRANCH   1  17
HETATM   17  C   UNK N   1      36.338  14.465  12.367  0.00  0.00     0.151 C 
BRANCH  17  18
HETATM   18  C   UNK N   1      35.269  15.283  11.665  0.00  0.00     0.134 C 
BRANCH  18  19
HETATM   19  N   UNK N   1      34.180  14.413  11.251  0.00  0.00    -0.417 N 
HETATM   20  H   UNK N   1      33.318  14.244  11.771  0.00  0.00     0.153 HD
BRANCH  19  21
HETATM   21  C   UNK N   1      34.533  13.825   9.967  0.00  0.00     0.141 C 
BRANCH  21  22
HETATM   22  C   UNK N   1      33.771  14.493   8.871  0.00  0.00    -0.007 C 
HETATM   23  C   UNK N   1      32.546  14.957   9.107  0.00  0.00     0.009 C 
BRANCH  23  24
HETATM   24  C   UNK N   1      31.738  15.631   8.079  0.00  0.00    -0.036 A 
HETATM   25  C   UNK N   1      31.066  16.810   8.420  0.00  0.00     0.012 A 
HETATM   26  C   UNK N   1      30.279  17.472   7.474  0.00  0.00     0.020 A 
HETATM   27  C   UNK N   1      30.164  16.963   6.179  0.00  0.00     0.011 A 
HETATM   28 Br   UNK N   1      29.089  17.871   4.895  0.00  0.00    -0.051 Br
HETATM   29  C   UNK N   1      30.836  15.788   5.828  0.00  0.00     0.020 A 
HETATM   30  C   UNK N   1      31.620  15.120   6.774  0.00  0.00     0.012 A 
ENDBRANCH  23  24
ENDBRANCH  21  22
ENDBRANCH  19  21
ENDBRANCH  18  19
ENDBRANCH  17  18
ENDBRANCH   1  17
TORSDOF 8
ENDMDL
MODEL 9
REMARK VINA RESULT:      -6.8      1.722      2.266
REMARK  8 active torsions:
REMARK  status: ('A' for Active; 'I' for Inactive)
REMARK    1  A    between atoms: C_1  and  S_12 
REMARK    2  A    between atoms: S_12  and  N_15 
REMARK    3  A    between atoms: N_15  and  C_16 
REMARK    4  A    between atoms: C_16  and  C_17 
REMARK    5  A    between atoms: C_17  and  N_18 
REMARK    6  A    between atoms: N_18  and  C_19 
REMARK    7  A    between atoms: C_19  and  C_20 
REMARK    8  A    between atoms: C_21  and  C_22 
ROOT
HETATM    1  N   UNK N   1      32.951  15.712   9.560  0.00  0.00    -0.314 N 
HETATM    2  H   UNK N   1      32.486  15.579  10.458  0.00  0.00     0.172 HD
ENDROOT
BRANCH   1   3
HETATM    3  S   UNK N   1      32.135  15.968   8.008  0.00  0.00     0.259 S 
HETATM    4  O   UNK N   1      31.875  14.567   7.430  0.00  0.00    -0.201 OA
HETATM    5  O   UNK N   1      33.189  16.555   7.056  0.00  0.00    -0.201 OA
BRANCH   3   6
HETATM    6  C   UNK N   1      30.660  16.975   8.141  0.00  0.00     0.090 A 
HETATM    7  C   UNK N   1      30.245  17.423   9.401  0.00  0.00     0.026 A 
HETATM    8  C   UNK N   1      29.125  18.248   9.524  0.00  0.00     0.002 A 
HETATM    9  C   UNK N   1      28.413  18.640   8.387  0.00  0.00     0.014 A 
HETATM   10  C   UNK N   1      28.817  18.201   7.124  0.00  0.00    -0.009 A 
HETATM   11  C   UNK N   1      28.117  18.594   5.982  0.00  0.00     0.100 A 
HETATM   12  C   UNK N   1      29.943  17.363   6.992  0.00  0.00     0.000 A 
HETATM   13  N   UNK N   1      28.519  18.167   4.754  0.00  0.00    -0.374 N 
HETATM   14  C   UNK N   1      29.601  17.355   4.600  0.00  0.00     0.088 A 
ATOM     15  HN  UNK N   1      27.998  18.463   3.929  1.00  0.00     0.164 HD
HETATM   16  C   UNK N   1      30.332  16.941   5.715  0.00  0.00     0.031 A 
ENDBRANCH   3   6
ENDBRANCH   1   3
BRANCH   1  17
HETATM   17  C   UNK N   1      34.386  15.722   9.349  0.00  0.00     0.151 C 
BRANCH  17  18
HETATM   18  C   UNK N   1      35.030  16.747  10.265  0.00  0.00     0.134 C 
BRANCH  18  19
HETATM   19  N   UNK N   1      35.841  16.069  11.264  0.00  0.00    -0.417 N 
HETATM   20  H   UNK N   1      36.086  16.434  12.185  0.00  0.00     0.153 HD
BRANCH  19  21
HETATM   21  C   UNK N   1      36.240  14.779  10.722  0.00  0.00     0.141 C 
BRANCH  21  22
HETATM   22  C   UNK N   1      36.279  13.756  11.808  0.00  0.00    -0.007 C 
HETATM   23  C   UNK N   1      36.143  14.135  13.077  0.00  0.00     0.009 C 
BRANCH  23  24
HETATM   24  C   UNK N   1      36.164  13.185  14.200  0.00  0.00    -0.036 A 
HETATM   25  C   UNK N   1      36.966  12.044  14.098  0.00  0.00     0.012 A 
HETATM   26  C   UNK N   1      37.003  11.112  15.139  0.00  0.00     0.020 A 
HETATM   27  C   UNK N   1      36.241  11.319  16.291  0.00  0.00     0.011 A 
HETATM   28 Br   UNK N   1      36.295  10.044  17.705  0.00  0.00    -0.051 Br
HETATM   29  C   UNK N   1      35.439  12.460  16.403  0.00  0.00     0.020 A 
HETATM   30  C   UNK N   1      35.397  13.391  15.360  0.00  0.00     0.012 A 
ENDBRANCH  23  24
ENDBRANCH  21  22
ENDBRANCH  19  21
ENDBRANCH  18  19
ENDBRANCH  17  18
ENDBRANCH   1  17
TORSDOF 8
ENDMDL
