REMARK  8 active torsions:
REMARK  status: ('A' for Active; 'I' for Inactive)
REMARK    1  A    between atoms: C_1  and  S_12 
REMARK    2  A    between atoms: S_12  and  N_15 
REMARK    3  A    between atoms: N_15  and  C_16 
REMARK    4  A    between atoms: C_16  and  C_17 
REMARK    5  A    between atoms: C_17  and  N_18 
REMARK    6  A    between atoms: N_18  and  C_19 
REMARK    7  A    between atoms: C_19  and  C_20 
REMARK    8  A    between atoms: C_21  and  C_22 
ROOT
HETATM    1  N   UNK N   1      -1.292   0.360   1.271  0.00  0.00    -0.314 N 
HETATM    2  H   UNK N   1      -1.899   0.504   2.078  0.00  0.00     0.172 HD
ENDROOT
BRANCH   1   3
HETATM    3  S   UNK N   1      -1.725  -0.537  -0.194  0.00  0.00     0.259 S 
HETATM    4  O   UNK N   1      -0.614  -1.581  -0.395  0.00  0.00    -0.201 OA
HETATM    5  O   UNK N   1      -1.521   0.430  -1.371  0.00  0.00    -0.201 OA
BRANCH   3   6
HETATM    6  C   UNK N   1      -3.370  -1.243  -0.132  0.00  0.00     0.090 A 
HETATM    7  C   UNK N   1      -3.519  -2.634  -0.091  0.00  0.00     0.026 A 
HETATM    8  C   UNK N   1      -4.790  -3.206   0.006  0.00  0.00     0.002 A 
HETATM    9  C   UNK N   1      -5.924  -2.392   0.071  0.00  0.00     0.014 A 
HETATM   10  C   UNK N   1      -5.788  -1.002   0.033  0.00  0.00    -0.009 A 
HETATM   11  C   UNK N   1      -6.914  -0.180   0.106  0.00  0.00     0.100 A 
HETATM   12  C   UNK N   1      -4.509  -0.417  -0.071  0.00  0.00     0.000 A 
HETATM   13  N   UNK N   1      -6.775   1.173   0.074  0.00  0.00    -0.374 N 
HETATM   14  C   UNK N   1      -5.552   1.762  -0.029  0.00  0.00     0.088 A 
ATOM     15  HN  UNK N   1      -7.607   1.761   0.128  1.00  0.00     0.164 HD
HETATM   16  C   UNK N   1      -4.399   0.978  -0.101  0.00  0.00     0.031 A 
ENDBRANCH   3   6
ENDBRANCH   1   3
BRANCH   1  17
HETATM   17  C   UNK N   1       0.064   0.858   1.139  0.00  0.00     0.151 C 
BRANCH  17  18
HETATM   18  C   UNK N   1       0.035   2.303   0.674  0.00  0.00     0.134 C 
BRANCH  18  19
HETATM   19  N   UNK N   1       0.793   2.435  -0.560  0.00  0.00    -0.417 N 
HETATM   20  H   UNK N   1       0.413   2.376  -1.505  0.00  0.00     0.153 HD
BRANCH  19  21
HETATM   21  C   UNK N   1       2.187   2.666  -0.212  0.00  0.00     0.141 C 
BRANCH  21  22
HETATM   22  C   UNK N   1       2.928   1.371  -0.174  0.00  0.00    -0.007 C 
HETATM   23  C   UNK N   1       4.257   1.374  -0.090  0.00  0.00     0.009 C 
BRANCH  23  24
HETATM   24  C   UNK N   1       5.055   0.139  -0.041  0.00  0.00    -0.036 A 
HETATM   25  C   UNK N   1       6.450   0.240  -0.069  0.00  0.00     0.012 A 
HETATM   26  C   UNK N   1       7.241  -0.911  -0.036  0.00  0.00     0.020 A 
HETATM   27  C   UNK N   1       6.642  -2.171   0.030  0.00  0.00     0.011 A 
HETATM   28 Br   UNK N   1       7.727  -3.736   0.073  0.00  0.00    -0.051 Br
HETATM   29  C   UNK N   1       5.248  -2.281   0.063  0.00  0.00     0.020 A 
HETATM   30  C   UNK N   1       4.454  -1.130   0.025  0.00  0.00     0.012 A 
ENDBRANCH  23  24
ENDBRANCH  21  22
ENDBRANCH  19  21
ENDBRANCH  18  19
ENDBRANCH  17  18
ENDBRANCH   1  17
TORSDOF 8
