REMARK  5 active torsions:
REMARK  status: ('A' for Active; 'I' for Inactive)
REMARK    1  A    between atoms: C_1  and  S_12 
REMARK    2  A    between atoms: S_12  and  N_15 
REMARK    3  A    between atoms: N_15  and  C_16 
REMARK    4  A    between atoms: C_16  and  C_17 
REMARK    5  A    between atoms: C_17  and  N_18 
ROOT
HETATM    1  C   UNK N   1      -0.765  -0.968  -0.022  0.00  0.00     0.090 A 
HETATM    2  C   UNK N   1      -0.932  -2.349   0.118  0.00  0.00     0.026 A 
HETATM    3  C   UNK N   1      -2.199  -2.897   0.339  0.00  0.00     0.002 A 
HETATM    4  C   UNK N   1      -3.318  -2.065   0.410  0.00  0.00     0.014 A 
HETATM    5  C   UNK N   1      -3.171  -0.688   0.275  0.00  0.00    -0.009 A 
HETATM    6  C   UNK N   1      -4.288   0.149   0.335  0.00  0.00     0.100 A 
HETATM    7  N   UNK N   1      -4.146   1.492   0.199  0.00  0.00    -0.374 N 
ATOM      8  HN  UNK N   1      -4.973   2.087   0.246  1.00  0.00     0.164 HD
HETATM    9  C   UNK N   1      -2.925   2.063   0.001  0.00  0.00     0.088 A 
HETATM   10  C   UNK N   1      -1.779   1.266  -0.075  0.00  0.00     0.031 A 
HETATM   11  C   UNK N   1      -1.890  -0.118   0.061  0.00  0.00     0.000 A 
ENDROOT
BRANCH   1  12
HETATM   12  S   UNK N   1       0.889  -0.348  -0.387  0.00  0.00     0.259 S 
HETATM   13  O   UNK N   1       1.990  -1.193   0.276  0.00  0.00    -0.201 OA
HETATM   14  O   UNK N   1       1.197  -0.567  -1.875  0.00  0.00    -0.201 OA
BRANCH  12  15
HETATM   15  N   UNK N   1       1.295   1.362  -0.114  0.00  0.00    -0.314 N 
HETATM   16  H   UNK N   1       0.706   2.150  -0.385  0.00  0.00     0.172 HD
BRANCH  15  17
HETATM   17  C   UNK N   1       2.588   1.483   0.550  0.00  0.00     0.151 C 
BRANCH  17  18
HETATM   18  C   UNK N   1       3.708   1.614  -0.474  0.00  0.00     0.133 C 
BRANCH  18  19
HETATM   19  N   UNK N   1       4.395   0.342  -0.638  0.00  0.00    -0.424 N 
HETATM   20  C   UNK N   1       5.526   0.340   0.275  0.00  0.00     0.139 C 
HETATM   21  H   UNK N   1       4.131  -0.410  -1.275  0.00  0.00     0.152 HD
ENDBRANCH  18  19
ENDBRANCH  17  18
ENDBRANCH  15  17
ENDBRANCH  12  15
ENDBRANCH   1  12
TORSDOF 5
