MODEL 1
REMARK VINA RESULT:      -6.1      0.000      0.000
REMARK  5 active torsions:
REMARK  status: ('A' for Active; 'I' for Inactive)
REMARK    1  A    between atoms: C_1  and  S_12 
REMARK    2  A    between atoms: S_12  and  N_15 
REMARK    3  A    between atoms: N_15  and  C_16 
REMARK    4  A    between atoms: C_16  and  C_17 
REMARK    5  A    between atoms: C_17  and  N_18 
ROOT
HETATM    1  C   UNK N   1      32.456  17.395   7.453  0.00  0.00     0.090 A 
HETATM    2  C   UNK N   1      31.421  17.383   8.393  0.00  0.00     0.026 A 
HETATM    3  C   UNK N   1      30.086  17.321   7.985  0.00  0.00     0.002 A 
HETATM    4  C   UNK N   1      29.772  17.259   6.625  0.00  0.00     0.014 A 
HETATM    5  C   UNK N   1      30.789  17.272   5.675  0.00  0.00    -0.009 A 
HETATM    6  C   UNK N   1      30.482  17.200   4.314  0.00  0.00     0.100 A 
HETATM    7  N   UNK N   1      31.473  17.209   3.387  0.00  0.00    -0.374 N 
ATOM      8  HN  UNK N   1      31.230  17.156   2.398  1.00  0.00     0.164 HD
HETATM    9  C   UNK N   1      32.785  17.287   3.747  0.00  0.00     0.088 A 
HETATM   10  C   UNK N   1      33.142  17.352   5.097  0.00  0.00     0.031 A 
HETATM   11  C   UNK N   1      32.147  17.345   6.076  0.00  0.00     0.000 A 
ENDROOT
BRANCH   1  12
HETATM   12  S   UNK N   1      34.154  17.393   8.063  0.00  0.00     0.259 S 
HETATM   13  O   UNK N   1      35.033  16.358   7.341  0.00  0.00    -0.201 OA
HETATM   14  O   UNK N   1      34.841  18.705   7.659  0.00  0.00    -0.201 OA
BRANCH  12  15
HETATM   15  N   UNK N   1      34.490  17.253   9.804  0.00  0.00    -0.314 N 
HETATM   16  H   UNK N   1      34.184  17.922  10.511  0.00  0.00     0.172 HD
BRANCH  15  17
HETATM   17  C   UNK N   1      35.264  16.049  10.082  0.00  0.00     0.151 C 
BRANCH  17  18
HETATM   18  C   UNK N   1      34.477  15.097  10.974  0.00  0.00     0.133 C 
BRANCH  18  19
HETATM   19  N   UNK N   1      33.127  14.922  10.460  0.00  0.00    -0.424 N 
HETATM   20  C   UNK N   1      33.203  13.979   9.357  0.00  0.00     0.139 C 
HETATM   21  H   UNK N   1      32.284  15.376  10.811  0.00  0.00     0.152 HD
ENDBRANCH  18  19
ENDBRANCH  17  18
ENDBRANCH  15  17
ENDBRANCH  12  15
ENDBRANCH   1  12
TORSDOF 5
ENDMDL
MODEL 2
REMARK VINA RESULT:      -6.1     11.103     13.033
REMARK  5 active torsions:
REMARK  status: ('A' for Active; 'I' for Inactive)
REMARK    1  A    between atoms: C_1  and  S_12 
REMARK    2  A    between atoms: S_12  and  N_15 
REMARK    3  A    between atoms: N_15  and  C_16 
REMARK    4  A    between atoms: C_16  and  C_17 
REMARK    5  A    between atoms: C_17  and  N_18 
ROOT
HETATM    1  C   UNK N   1      21.394  13.519   9.623  0.00  0.00     0.090 A 
HETATM    2  C   UNK N   1      20.268  13.093  10.334  0.00  0.00     0.026 A 
HETATM    3  C   UNK N   1      20.402  12.281  11.465  0.00  0.00     0.002 A 
HETATM    4  C   UNK N   1      21.671  11.897  11.904  0.00  0.00     0.014 A 
HETATM    5  C   UNK N   1      22.803  12.311  11.208  0.00  0.00    -0.009 A 
HETATM    6  C   UNK N   1      24.075  11.938  11.647  0.00  0.00     0.100 A 
HETATM    7  N   UNK N   1      25.180  12.344  10.972  0.00  0.00    -0.374 N 
ATOM      8  HN  UNK N   1      26.101  12.062  11.308  1.00  0.00     0.164 HD
HETATM    9  C   UNK N   1      25.087  13.120   9.855  0.00  0.00     0.088 A 
HETATM   10  C   UNK N   1      23.836  13.526   9.382  0.00  0.00     0.031 A 
HETATM   11  C   UNK N   1      22.680  13.125  10.053  0.00  0.00     0.000 A 
ENDROOT
BRANCH   1  12
HETATM   12  S   UNK N   1      21.141  14.631   8.226  0.00  0.00     0.259 S 
HETATM   13  O   UNK N   1      22.252  14.505   7.169  0.00  0.00    -0.201 OA
HETATM   14  O   UNK N   1      19.913  14.172   7.427  0.00  0.00    -0.201 OA
BRANCH  12  15
HETATM   15  N   UNK N   1      20.855  16.367   8.490  0.00  0.00    -0.314 N 
HETATM   16  H   UNK N   1      21.585  17.056   8.668  0.00  0.00     0.172 HD
BRANCH  15  17
HETATM   17  C   UNK N   1      19.429  16.668   8.419  0.00  0.00     0.151 C 
BRANCH  17  18
HETATM   18  C   UNK N   1      19.126  17.995   9.102  0.00  0.00     0.133 C 
BRANCH  18  19
HETATM   19  N   UNK N   1      17.816  17.951   9.734  0.00  0.00    -0.424 N 
HETATM   20  C   UNK N   1      16.940  17.187   8.861  0.00  0.00     0.139 C 
HETATM   21  H   UNK N   1      17.560  18.377  10.625  0.00  0.00     0.152 HD
ENDBRANCH  18  19
ENDBRANCH  17  18
ENDBRANCH  15  17
ENDBRANCH  12  15
ENDBRANCH   1  12
TORSDOF 5
ENDMDL
MODEL 3
REMARK VINA RESULT:      -5.9      6.945     11.231
REMARK  5 active torsions:
REMARK  status: ('A' for Active; 'I' for Inactive)
REMARK    1  A    between atoms: C_1  and  S_12 
REMARK    2  A    between atoms: S_12  and  N_15 
REMARK    3  A    between atoms: N_15  and  C_16 
REMARK    4  A    between atoms: C_16  and  C_17 
REMARK    5  A    between atoms: C_17  and  N_18 
ROOT
HETATM    1  C   UNK N   1      35.685  11.301  15.894  0.00  0.00     0.090 A 
HETATM    2  C   UNK N   1      35.756   9.908  15.992  0.00  0.00     0.026 A 
HETATM    3  C   UNK N   1      35.662   9.274  17.235  0.00  0.00     0.002 A 
HETATM    4  C   UNK N   1      35.485  10.031  18.395  0.00  0.00     0.014 A 
HETATM    5  C   UNK N   1      35.414  11.418  18.316  0.00  0.00    -0.009 A 
HETATM    6  C   UNK N   1      35.226  12.180  19.472  0.00  0.00     0.100 A 
HETATM    7  N   UNK N   1      35.153  13.534  19.396  0.00  0.00    -0.374 N 
ATOM      8  HN  UNK N   1      35.016  14.073  20.250  1.00  0.00     0.164 HD
HETATM    9  C   UNK N   1      35.259  14.187  18.205  0.00  0.00     0.088 A 
HETATM   10  C   UNK N   1      35.439  13.467  17.020  0.00  0.00     0.031 A 
HETATM   11  C   UNK N   1      35.518  12.075  17.063  0.00  0.00     0.000 A 
ENDROOT
BRANCH   1  12
HETATM   12  S   UNK N   1      35.731  12.037  14.247  0.00  0.00     0.259 S 
HETATM   13  O   UNK N   1      35.913  10.984  13.141  0.00  0.00    -0.201 OA
HETATM   14  O   UNK N   1      34.344  12.598  13.903  0.00  0.00    -0.201 OA
BRANCH  12  15
HETATM   15  N   UNK N   1      36.837  13.382  13.888  0.00  0.00    -0.314 N 
HETATM   16  H   UNK N   1      37.816  13.422  14.174  0.00  0.00     0.172 HD
BRANCH  15  17
HETATM   17  C   UNK N   1      36.152  14.421  13.128  0.00  0.00     0.151 C 
BRANCH  17  18
HETATM   18  C   UNK N   1      36.426  14.267  11.638  0.00  0.00     0.133 C 
BRANCH  18  19
HETATM   19  N   UNK N   1      36.688  15.565  11.034  0.00  0.00    -0.424 N 
HETATM   20  C   UNK N   1      35.441  16.312  11.056  0.00  0.00     0.139 C 
HETATM   21  H   UNK N   1      37.581  15.891  10.665  0.00  0.00     0.152 HD
ENDBRANCH  18  19
ENDBRANCH  17  18
ENDBRANCH  15  17
ENDBRANCH  12  15
ENDBRANCH   1  12
TORSDOF 5
ENDMDL
MODEL 4
REMARK VINA RESULT:      -5.9      6.963     11.064
REMARK  5 active torsions:
REMARK  status: ('A' for Active; 'I' for Inactive)
REMARK    1  A    between atoms: C_1  and  S_12 
REMARK    2  A    between atoms: S_12  and  N_15 
REMARK    3  A    between atoms: N_15  and  C_16 
REMARK    4  A    between atoms: C_16  and  C_17 
REMARK    5  A    between atoms: C_17  and  N_18 
ROOT
HETATM    1  C   UNK N   1      35.708  12.878  16.260  0.00  0.00     0.090 A 
HETATM    2  C   UNK N   1      35.596  13.943  17.158  0.00  0.00     0.026 A 
HETATM    3  C   UNK N   1      35.295  13.714  18.504  0.00  0.00     0.002 A 
HETATM    4  C   UNK N   1      35.116  12.410  18.969  0.00  0.00     0.014 A 
HETATM    5  C   UNK N   1      35.222  11.337  18.089  0.00  0.00    -0.009 A 
HETATM    6  C   UNK N   1      35.053  10.029  18.549  0.00  0.00     0.100 A 
HETATM    7  N   UNK N   1      35.161   8.982  17.692  0.00  0.00    -0.374 N 
ATOM      8  HN  UNK N   1      35.035   8.034  18.047  1.00  0.00     0.164 HD
HETATM    9  C   UNK N   1      35.435   9.167  16.371  0.00  0.00     0.088 A 
HETATM   10  C   UNK N   1      35.620  10.457  15.865  0.00  0.00     0.031 A 
HETATM   11  C   UNK N   1      35.516  11.556  16.719  0.00  0.00     0.000 A 
ENDROOT
BRANCH   1  12
HETATM   12  S   UNK N   1      36.180  13.251  14.559  0.00  0.00     0.259 S 
HETATM   13  O   UNK N   1      34.981  13.205  13.597  0.00  0.00    -0.201 OA
HETATM   14  O   UNK N   1      36.591  14.726  14.458  0.00  0.00    -0.201 OA
BRANCH  12  15
HETATM   15  N   UNK N   1      37.520  12.379  13.780  0.00  0.00    -0.314 N 
HETATM   16  H   UNK N   1      38.473  12.335  14.141  0.00  0.00     0.172 HD
BRANCH  15  17
HETATM   17  C   UNK N   1      37.069  11.737  12.551  0.00  0.00     0.151 C 
BRANCH  17  18
HETATM   18  C   UNK N   1      37.606  12.474  11.331  0.00  0.00     0.133 C 
BRANCH  18  19
HETATM   19  N   UNK N   1      37.436  13.910  11.491  0.00  0.00    -0.424 N 
HETATM   20  C   UNK N   1      36.439  14.339  10.525  0.00  0.00     0.139 C 
HETATM   21  H   UNK N   1      37.925  14.506  12.160  0.00  0.00     0.152 HD
ENDBRANCH  18  19
ENDBRANCH  17  18
ENDBRANCH  15  17
ENDBRANCH  12  15
ENDBRANCH   1  12
TORSDOF 5
ENDMDL
MODEL 5
REMARK VINA RESULT:      -5.8      2.045      3.312
REMARK  5 active torsions:
REMARK  status: ('A' for Active; 'I' for Inactive)
REMARK    1  A    between atoms: C_1  and  S_12 
REMARK    2  A    between atoms: S_12  and  N_15 
REMARK    3  A    between atoms: N_15  and  C_16 
REMARK    4  A    between atoms: C_16  and  C_17 
REMARK    5  A    between atoms: C_17  and  N_18 
ROOT
HETATM    1  C   UNK N   1      31.672  17.278   7.070  0.00  0.00     0.090 A 
HETATM    2  C   UNK N   1      31.638  16.874   5.732  0.00  0.00     0.026 A 
HETATM    3  C   UNK N   1      30.434  16.855   5.022  0.00  0.00     0.002 A 
HETATM    4  C   UNK N   1      29.249  17.255   5.643  0.00  0.00     0.014 A 
HETATM    5  C   UNK N   1      29.264  17.659   6.975  0.00  0.00    -0.009 A 
HETATM    6  C   UNK N   1      28.084  18.069   7.599  0.00  0.00     0.100 A 
HETATM    7  N   UNK N   1      28.098  18.468   8.897  0.00  0.00    -0.374 N 
ATOM      8  HN  UNK N   1      27.226  18.764   9.336  1.00  0.00     0.164 HD
HETATM    9  C   UNK N   1      29.249  18.481   9.625  0.00  0.00     0.088 A 
HETATM   10  C   UNK N   1      30.456  18.088   9.041  0.00  0.00     0.031 A 
HETATM   11  C   UNK N   1      30.477  17.672   7.710  0.00  0.00     0.000 A 
ENDROOT
BRANCH   1  12
HETATM   12  S   UNK N   1      33.277  17.353   7.890  0.00  0.00     0.259 S 
HETATM   13  O   UNK N   1      34.431  16.950   6.956  0.00  0.00    -0.201 OA
HETATM   14  O   UNK N   1      33.628  18.818   8.187  0.00  0.00    -0.201 OA
BRANCH  12  15
HETATM   15  N   UNK N   1      33.538  16.528   9.444  0.00  0.00    -0.314 N 
HETATM   16  H   UNK N   1      32.826  16.406  10.164  0.00  0.00     0.172 HD
BRANCH  15  17
HETATM   17  C   UNK N   1      34.912  16.050   9.547  0.00  0.00     0.151 C 
BRANCH  17  18
HETATM   18  C   UNK N   1      35.564  16.560  10.826  0.00  0.00     0.133 C 
BRANCH  18  19
HETATM   19  N   UNK N   1      36.602  15.641  11.266  0.00  0.00    -0.424 N 
HETATM   20  C   UNK N   1      36.889  14.748  10.155  0.00  0.00     0.139 C 
HETATM   21  H   UNK N   1      37.048  15.627  12.184  0.00  0.00     0.152 HD
ENDBRANCH  18  19
ENDBRANCH  17  18
ENDBRANCH  15  17
ENDBRANCH  12  15
ENDBRANCH   1  12
TORSDOF 5
ENDMDL
MODEL 6
REMARK VINA RESULT:      -5.4      8.283     11.919
REMARK  5 active torsions:
REMARK  status: ('A' for Active; 'I' for Inactive)
REMARK    1  A    between atoms: C_1  and  S_12 
REMARK    2  A    between atoms: S_12  and  N_15 
REMARK    3  A    between atoms: N_15  and  C_16 
REMARK    4  A    between atoms: C_16  and  C_17 
REMARK    5  A    between atoms: C_17  and  N_18 
ROOT
HETATM    1  C   UNK N   1      34.968  11.971  16.604  0.00  0.00     0.090 A 
HETATM    2  C   UNK N   1      34.962  13.308  17.013  0.00  0.00     0.026 A 
HETATM    3  C   UNK N   1      35.153  13.646  18.356  0.00  0.00     0.002 A 
HETATM    4  C   UNK N   1      35.364  12.644  19.305  0.00  0.00     0.014 A 
HETATM    5  C   UNK N   1      35.372  11.308  18.917  0.00  0.00    -0.009 A 
HETATM    6  C   UNK N   1      35.593  10.302  19.860  0.00  0.00     0.100 A 
HETATM    7  N   UNK N   1      35.605   8.998  19.482  0.00  0.00    -0.374 N 
ATOM      8  HN  UNK N   1      35.768   8.277  20.185  1.00  0.00     0.164 HD
HETATM    9  C   UNK N   1      35.405   8.631  18.185  0.00  0.00     0.088 A 
HETATM   10  C   UNK N   1      35.188   9.602  17.204  0.00  0.00     0.031 A 
HETATM   11  C   UNK N   1      35.169  10.951  17.559  0.00  0.00     0.000 A 
ENDROOT
BRANCH   1  12
HETATM   12  S   UNK N   1      34.798  11.624  14.842  0.00  0.00     0.259 S 
HETATM   13  O   UNK N   1      33.530  10.814  14.525  0.00  0.00    -0.201 OA
HETATM   14  O   UNK N   1      34.514  12.933  14.091  0.00  0.00    -0.201 OA
BRANCH  12  15
HETATM   15  N   UNK N   1      36.138  10.891  13.930  0.00  0.00    -0.314 N 
HETATM   16  H   UNK N   1      37.127  11.058  14.116  0.00  0.00     0.172 HD
BRANCH  15  17
HETATM   17  C   UNK N   1      35.627  10.019  12.879  0.00  0.00     0.151 C 
BRANCH  17  18
HETATM   18  C   UNK N   1      35.433  10.795  11.583  0.00  0.00     0.133 C 
BRANCH  18  19
HETATM   19  N   UNK N   1      34.023  11.088  11.376  0.00  0.00    -0.424 N 
HETATM   20  C   UNK N   1      33.349   9.823  11.134  0.00  0.00     0.139 C 
HETATM   21  H   UNK N   1      33.587  12.010  11.397  0.00  0.00     0.152 HD
ENDBRANCH  18  19
ENDBRANCH  17  18
ENDBRANCH  15  17
ENDBRANCH  12  15
ENDBRANCH   1  12
TORSDOF 5
ENDMDL
MODEL 7
REMARK VINA RESULT:      -5.3      5.748     10.281
REMARK  5 active torsions:
REMARK  status: ('A' for Active; 'I' for Inactive)
REMARK    1  A    between atoms: C_1  and  S_12 
REMARK    2  A    between atoms: S_12  and  N_15 
REMARK    3  A    between atoms: N_15  and  C_16 
REMARK    4  A    between atoms: C_16  and  C_17 
REMARK    5  A    between atoms: C_17  and  N_18 
ROOT
HETATM    1  C   UNK N   1      36.638  12.014  14.146  0.00  0.00     0.090 A 
HETATM    2  C   UNK N   1      37.435  10.946  13.722  0.00  0.00     0.026 A 
HETATM    3  C   UNK N   1      37.735   9.890  14.588  0.00  0.00     0.002 A 
HETATM    4  C   UNK N   1      37.229   9.888  15.889  0.00  0.00     0.014 A 
HETATM    5  C   UNK N   1      36.437  10.944  16.329  0.00  0.00    -0.009 A 
HETATM    6  C   UNK N   1      35.919  10.942  17.627  0.00  0.00     0.100 A 
HETATM    7  N   UNK N   1      35.142  11.969  18.056  0.00  0.00    -0.374 N 
ATOM      8  HN  UNK N   1      34.773  11.951  19.007  1.00  0.00     0.164 HD
HETATM    9  C   UNK N   1      34.843  13.023  17.246  0.00  0.00     0.088 A 
HETATM   10  C   UNK N   1      35.331  13.065  15.936  0.00  0.00     0.031 A 
HETATM   11  C   UNK N   1      36.133  12.026  15.464  0.00  0.00     0.000 A 
ENDROOT
BRANCH   1  12
HETATM   12  S   UNK N   1      36.229  13.294  12.943  0.00  0.00     0.259 S 
HETATM   13  O   UNK N   1      36.460  14.711  13.494  0.00  0.00    -0.201 OA
HETATM   14  O   UNK N   1      37.242  13.251  11.790  0.00  0.00    -0.201 OA
BRANCH  12  15
HETATM   15  N   UNK N   1      34.650  13.294  12.124  0.00  0.00    -0.314 N 
HETATM   16  H   UNK N   1      33.748  13.346  12.599  0.00  0.00     0.172 HD
BRANCH  15  17
HETATM   17  C   UNK N   1      34.821  13.208  10.678  0.00  0.00     0.151 C 
BRANCH  17  18
HETATM   18  C   UNK N   1      34.563  14.560  10.025  0.00  0.00     0.133 C 
BRANCH  18  19
HETATM   19  N   UNK N   1      34.418  15.593  11.040  0.00  0.00    -0.424 N 
HETATM   20  C   UNK N   1      35.356  16.654  10.714  0.00  0.00     0.139 C 
HETATM   21  H   UNK N   1      33.776  15.576  11.832  0.00  0.00     0.152 HD
ENDBRANCH  18  19
ENDBRANCH  17  18
ENDBRANCH  15  17
ENDBRANCH  12  15
ENDBRANCH   1  12
TORSDOF 5
ENDMDL
MODEL 8
REMARK VINA RESULT:      -5.3      4.043      8.159
REMARK  5 active torsions:
REMARK  status: ('A' for Active; 'I' for Inactive)
REMARK    1  A    between atoms: C_1  and  S_12 
REMARK    2  A    between atoms: S_12  and  N_15 
REMARK    3  A    between atoms: N_15  and  C_16 
REMARK    4  A    between atoms: C_16  and  C_17 
REMARK    5  A    between atoms: C_17  and  N_18 
ROOT
HETATM    1  C   UNK N   1      36.578  13.937  12.062  0.00  0.00     0.090 A 
HETATM    2  C   UNK N   1      36.292  14.592  13.263  0.00  0.00     0.026 A 
HETATM    3  C   UNK N   1      36.410  13.926  14.487  0.00  0.00     0.002 A 
HETATM    4  C   UNK N   1      36.829  12.595  14.520  0.00  0.00     0.014 A 
HETATM    5  C   UNK N   1      37.116  11.925  13.335  0.00  0.00    -0.009 A 
HETATM    6  C   UNK N   1      37.546  10.596  13.362  0.00  0.00     0.100 A 
HETATM    7  N   UNK N   1      37.831   9.944  12.207  0.00  0.00    -0.374 N 
ATOM      8  HN  UNK N   1      38.143   8.974  12.247  1.00  0.00     0.164 HD
HETATM    9  C   UNK N   1      37.709  10.555  10.995  0.00  0.00     0.088 A 
HETATM   10  C   UNK N   1      37.291  11.887  10.917  0.00  0.00     0.031 A 
HETATM   11  C   UNK N   1      36.991  12.586  12.086  0.00  0.00     0.000 A 
ENDROOT
BRANCH   1  12
HETATM   12  S   UNK N   1      36.481  14.890  10.533  0.00  0.00     0.259 S 
HETATM   13  O   UNK N   1      36.412  16.404  10.792  0.00  0.00    -0.201 OA
HETATM   14  O   UNK N   1      37.812  14.774   9.777  0.00  0.00    -0.201 OA
BRANCH  12  15
HETATM   15  N   UNK N   1      35.255  14.504   9.303  0.00  0.00    -0.314 N 
HETATM   16  H   UNK N   1      35.449  14.044   8.414  0.00  0.00     0.172 HD
BRANCH  15  17
HETATM   17  C   UNK N   1      33.934  14.940   9.741  0.00  0.00     0.151 C 
BRANCH  17  18
HETATM   18  C   UNK N   1      33.441  16.101   8.888  0.00  0.00     0.133 C 
BRANCH  18  19
HETATM   19  N   UNK N   1      33.965  17.360   9.396  0.00  0.00    -0.424 N 
HETATM   20  C   UNK N   1      34.414  18.135   8.251  0.00  0.00     0.139 C 
HETATM   21  H   UNK N   1      34.009  17.646  10.374  0.00  0.00     0.152 HD
ENDBRANCH  18  19
ENDBRANCH  17  18
ENDBRANCH  15  17
ENDBRANCH  12  15
ENDBRANCH   1  12
TORSDOF 5
ENDMDL
MODEL 9
REMARK VINA RESULT:      -5.2      4.169      6.680
REMARK  5 active torsions:
REMARK  status: ('A' for Active; 'I' for Inactive)
REMARK    1  A    between atoms: C_1  and  S_12 
REMARK    2  A    between atoms: S_12  and  N_15 
REMARK    3  A    between atoms: N_15  and  C_16 
REMARK    4  A    between atoms: C_16  and  C_17 
REMARK    5  A    between atoms: C_17  and  N_18 
ROOT
HETATM    1  C   UNK N   1      29.712  17.363   6.458  0.00  0.00     0.090 A 
HETATM    2  C   UNK N   1      29.342  17.469   7.802  0.00  0.00     0.026 A 
HETATM    3  C   UNK N   1      30.311  17.549   8.806  0.00  0.00     0.002 A 
HETATM    4  C   UNK N   1      31.667  17.535   8.471  0.00  0.00     0.014 A 
HETATM    5  C   UNK N   1      32.054  17.427   7.139  0.00  0.00    -0.009 A 
HETATM    6  C   UNK N   1      33.409  17.422   6.797  0.00  0.00     0.100 A 
HETATM    7  N   UNK N   1      33.787  17.322   5.498  0.00  0.00    -0.374 N 
ATOM      8  HN  UNK N   1      34.780  17.320   5.268  1.00  0.00     0.164 HD
HETATM    9  C   UNK N   1      32.871  17.224   4.494  0.00  0.00     0.088 A 
HETATM   10  C   UNK N   1      31.503  17.233   4.786  0.00  0.00     0.031 A 
HETATM   11  C   UNK N   1      31.081  17.335   6.112  0.00  0.00     0.000 A 
ENDROOT
BRANCH   1  12
HETATM   12  S   UNK N   1      28.402  17.348   5.218  0.00  0.00     0.259 S 
HETATM   13  O   UNK N   1      28.265  15.981   4.527  0.00  0.00    -0.201 OA
HETATM   14  O   UNK N   1      27.040  17.469   5.916  0.00  0.00    -0.201 OA
BRANCH  12  15
HETATM   15  N   UNK N   1      28.343  18.593   3.949  0.00  0.00    -0.314 N 
HETATM   16  H   UNK N   1      28.618  18.446   2.977  0.00  0.00     0.172 HD
BRANCH  15  17
HETATM   17  C   UNK N   1      27.849  19.854   4.489  0.00  0.00     0.151 C 
BRANCH  17  18
HETATM   18  C   UNK N   1      26.637  20.337   3.704  0.00  0.00     0.133 C 
BRANCH  18  19
HETATM   19  N   UNK N   1      25.564  19.357   3.776  0.00  0.00    -0.424 N 
HETATM   20  C   UNK N   1      24.335  20.031   3.393  0.00  0.00     0.139 C 
HETATM   21  H   UNK N   1      25.657  18.377   4.045  0.00  0.00     0.152 HD
ENDBRANCH  18  19
ENDBRANCH  17  18
ENDBRANCH  15  17
ENDBRANCH  12  15
ENDBRANCH   1  12
TORSDOF 5
ENDMDL
