MODEL 1
REMARK VINA RESULT:      -7.6      0.000      0.000
REMARK  8 active torsions:
REMARK  status: ('A' for Active; 'I' for Inactive)
REMARK    1  A    between atoms: N_9  and  C_10 
REMARK    2  A    between atoms: C_10  and  C_11 
REMARK    3  A    between atoms: C_11  and  O_13 
REMARK    4  A    between atoms: C_18  and  C_19 
REMARK    5  A    between atoms: C_19  and  O_20 
REMARK    6  A    between atoms: O_20  and  C_21 
REMARK    7  A    between atoms: C_21  and  C_22 
REMARK    8  A    between atoms: C_22  and  O_24 
ROOT
HETATM    1  C   UNK N   1      20.991  14.077   9.408  0.00  0.00    -0.024 A 
HETATM    2  C   UNK N   1      21.167  13.050  10.340  0.00  0.00     0.012 A 
HETATM    3  C   UNK N   1      22.285  12.213  10.258  0.00  0.00     0.001 A 
HETATM    4  C   UNK N   1      23.228  12.398   9.243  0.00  0.00     0.001 A 
HETATM    5  C   UNK N   1      23.057  13.418   8.303  0.00  0.00     0.013 A 
HETATM    6  C   UNK N   1      21.943  14.266   8.378  0.00  0.00    -0.009 A 
HETATM    7  C   UNK N   1      21.736  15.301   7.452  0.00  0.00     0.068 A 
HETATM    8  C   UNK N   1      22.540  15.635   6.300  0.00  0.00     0.270 A 
HETATM    9  N   UNK N   1      22.049  16.671   5.581  0.00  0.00    -0.227 N 
HETATM   10  S   UNK N   1      20.558  17.416   6.207  0.00  0.00     0.270 S 
HETATM   11  O   UNK N   1      21.151  18.800   5.897  0.00  0.00    -0.200 OA
HETATM   12  O   UNK N   1      21.178  17.956   7.511  0.00  0.00    -0.200 OA
HETATM   13  C   UNK N   1      20.639  16.149   7.542  0.00  0.00     0.113 A 
HETATM   14  C   UNK N   1      19.670  15.952   8.567  0.00  0.00     0.064 A 
HETATM   15  C   UNK N   1      19.870  14.909   9.490  0.00  0.00     0.031 A 
HETATM   16  O   UNK N   1      23.533  15.010   5.964  0.00  0.00    -0.266 OA
ENDROOT
BRANCH  14  17
HETATM   17  C   UNK N   1      18.457  16.804   8.703  0.00  0.00     0.295 C 
HETATM   18  O   UNK N   1      17.468  16.560   8.025  0.00  0.00    -0.259 OA
BRANCH  17  19
HETATM   19  O   UNK N   1      18.443  17.843   9.573  0.00  0.00    -0.307 OA
BRANCH  19  20
HETATM   20  C   UNK N   1      17.336  18.188  10.314  0.00  0.00     0.288 C 
BRANCH  20  21
HETATM   21  C   UNK N   1      17.736  19.008  11.502  0.00  0.00     0.165 C 
HETATM   22  O   UNK N   1      17.012  19.040  12.482  0.00  0.00    -0.648 OA
BRANCH  21  23
HETATM   23  O   UNK N   1      18.882  19.717  11.497  0.00  0.00    -0.775 OA
HETATM   24  H   UNK N   1      19.602  19.442  10.963  0.00  0.00     0.167 HD
ENDBRANCH  21  23
ENDBRANCH  20  21
ENDBRANCH  19  20
ENDBRANCH  17  19
ENDBRANCH  14  17
BRANCH   9  25
HETATM   25  C   UNK N   1      22.593  17.064   4.292  0.00  0.00     0.255 C 
BRANCH  25  26
HETATM   26  C   UNK N   1      21.764  16.582   3.146  0.00  0.00     0.159 C 
HETATM   27  O   UNK N   1      21.945  15.465   2.693  0.00  0.00    -0.649 OA
BRANCH  26  28
HETATM   28  O   UNK N   1      20.880  17.407   2.555  0.00  0.00    -0.775 OA
HETATM   29  H   UNK N   1      20.874  17.500   1.623  0.00  0.00     0.167 HD
ENDBRANCH  26  28
ENDBRANCH  25  26
ENDBRANCH   9  25
TORSDOF 8
ENDMDL
MODEL 2
REMARK VINA RESULT:      -7.5      3.287      6.300
REMARK  8 active torsions:
REMARK  status: ('A' for Active; 'I' for Inactive)
REMARK    1  A    between atoms: N_9  and  C_10 
REMARK    2  A    between atoms: C_10  and  C_11 
REMARK    3  A    between atoms: C_11  and  O_13 
REMARK    4  A    between atoms: C_18  and  C_19 
REMARK    5  A    between atoms: C_19  and  O_20 
REMARK    6  A    between atoms: O_20  and  C_21 
REMARK    7  A    between atoms: C_21  and  C_22 
REMARK    8  A    between atoms: C_22  and  O_24 
ROOT
HETATM    1  C   UNK N   1      25.879  18.032   4.718  0.00  0.00    -0.024 A 
HETATM    2  C   UNK N   1      27.254  17.992   4.969  0.00  0.00     0.012 A 
HETATM    3  C   UNK N   1      28.068  19.061   4.582  0.00  0.00     0.001 A 
HETATM    4  C   UNK N   1      27.512  20.171   3.940  0.00  0.00     0.001 A 
HETATM    5  C   UNK N   1      26.139  20.216   3.679  0.00  0.00     0.013 A 
HETATM    6  C   UNK N   1      25.313  19.153   4.067  0.00  0.00    -0.009 A 
HETATM    7  C   UNK N   1      23.931  19.160   3.822  0.00  0.00     0.068 A 
HETATM    8  C   UNK N   1      23.158  20.165   3.128  0.00  0.00     0.270 A 
HETATM    9  N   UNK N   1      21.844  19.859   3.024  0.00  0.00    -0.227 N 
HETATM   10  S   UNK N   1      21.340  18.326   3.776  0.00  0.00     0.270 S 
HETATM   11  O   UNK N   1      20.092  19.036   4.325  0.00  0.00    -0.200 OA
HETATM   12  O   UNK N   1      21.646  18.744   5.227  0.00  0.00    -0.200 OA
HETATM   13  C   UNK N   1      23.114  18.112   4.225  0.00  0.00     0.113 A 
HETATM   14  C   UNK N   1      23.682  16.974   4.867  0.00  0.00     0.064 A 
HETATM   15  C   UNK N   1      25.069  16.959   5.103  0.00  0.00     0.031 A 
HETATM   16  O   UNK N   1      23.644  21.166   2.627  0.00  0.00    -0.266 OA
ENDROOT
BRANCH  14  17
HETATM   17  C   UNK N   1      22.870  15.803   5.297  0.00  0.00     0.295 C 
HETATM   18  O   UNK N   1      22.591  14.930   4.486  0.00  0.00    -0.259 OA
BRANCH  17  19
HETATM   19  O   UNK N   1      22.443  15.699   6.579  0.00  0.00    -0.307 OA
BRANCH  19  20
HETATM   20  C   UNK N   1      21.211  15.191   6.922  0.00  0.00     0.288 C 
BRANCH  20  21
HETATM   21  C   UNK N   1      20.262  16.300   7.256  0.00  0.00     0.165 C 
HETATM   22  O   UNK N   1      19.063  16.129   7.115  0.00  0.00    -0.648 OA
BRANCH  21  23
HETATM   23  O   UNK N   1      20.717  17.487   7.704  0.00  0.00    -0.775 OA
HETATM   24  H   UNK N   1      20.652  17.702   8.613  0.00  0.00     0.167 HD
ENDBRANCH  21  23
ENDBRANCH  20  21
ENDBRANCH  19  20
ENDBRANCH  17  19
ENDBRANCH  14  17
BRANCH   9  25
HETATM   25  C   UNK N   1      20.916  20.634   2.218  0.00  0.00     0.255 C 
BRANCH  25  26
HETATM   26  C   UNK N   1      20.931  20.233   0.778  0.00  0.00     0.159 C 
HETATM   27  O   UNK N   1      21.328  21.018  -0.065  0.00  0.00    -0.649 OA
BRANCH  26  28
HETATM   28  O   UNK N   1      20.426  19.045   0.400  0.00  0.00    -0.775 OA
HETATM   29  H   UNK N   1      20.900  18.501  -0.199  0.00  0.00     0.167 HD
ENDBRANCH  26  28
ENDBRANCH  25  26
ENDBRANCH   9  25
TORSDOF 8
ENDMDL
MODEL 3
REMARK VINA RESULT:      -7.4     10.432     12.921
REMARK  8 active torsions:
REMARK  status: ('A' for Active; 'I' for Inactive)
REMARK    1  A    between atoms: N_9  and  C_10 
REMARK    2  A    between atoms: C_10  and  C_11 
REMARK    3  A    between atoms: C_11  and  O_13 
REMARK    4  A    between atoms: C_18  and  C_19 
REMARK    5  A    between atoms: C_19  and  O_20 
REMARK    6  A    between atoms: O_20  and  C_21 
REMARK    7  A    between atoms: C_21  and  C_22 
REMARK    8  A    between atoms: C_22  and  O_24 
ROOT
HETATM    1  C   UNK N   1      30.771  17.970   8.352  0.00  0.00    -0.024 A 
HETATM    2  C   UNK N   1      29.719  18.600   9.024  0.00  0.00     0.012 A 
HETATM    3  C   UNK N   1      28.396  18.342   8.651  0.00  0.00     0.001 A 
HETATM    4  C   UNK N   1      28.121  17.459   7.604  0.00  0.00     0.001 A 
HETATM    5  C   UNK N   1      29.167  16.830   6.922  0.00  0.00     0.013 A 
HETATM    6  C   UNK N   1      30.496  17.077   7.290  0.00  0.00    -0.009 A 
HETATM    7  C   UNK N   1      31.574  16.466   6.629  0.00  0.00     0.068 A 
HETATM    8  C   UNK N   1      31.527  15.573   5.494  0.00  0.00     0.270 A 
HETATM    9  N   UNK N   1      32.750  15.183   5.064  0.00  0.00    -0.227 N 
HETATM   10  S   UNK N   1      34.137  15.812   5.987  0.00  0.00     0.270 S 
HETATM   11  O   UNK N   1      34.783  14.419   5.912  0.00  0.00    -0.200 OA
HETATM   12  O   UNK N   1      33.807  15.078   7.301  0.00  0.00    -0.200 OA
HETATM   13  C   UNK N   1      32.889  16.700   7.010  0.00  0.00     0.113 A 
HETATM   14  C   UNK N   1      33.171  17.611   8.068  0.00  0.00     0.064 A 
HETATM   15  C   UNK N   1      32.094  18.233   8.724  0.00  0.00     0.031 A 
HETATM   16  O   UNK N   1      30.495  15.247   4.931  0.00  0.00    -0.266 OA
ENDROOT
BRANCH  14  17
HETATM   17  C   UNK N   1      34.557  17.931   8.506  0.00  0.00     0.295 C 
HETATM   18  O   UNK N   1      35.033  19.030   8.253  0.00  0.00    -0.259 OA
BRANCH  17  19
HETATM   19  O   UNK N   1      35.290  17.015   9.185  0.00  0.00    -0.307 OA
BRANCH  19  20
HETATM   20  C   UNK N   1      35.069  16.705  10.507  0.00  0.00     0.288 C 
BRANCH  20  21
HETATM   21  C   UNK N   1      34.604  15.288  10.641  0.00  0.00     0.165 C 
HETATM   22  O   UNK N   1      35.310  14.381  10.234  0.00  0.00    -0.648 OA
BRANCH  21  23
HETATM   23  O   UNK N   1      33.411  15.003  11.200  0.00  0.00    -0.775 OA
HETATM   24  H   UNK N   1      33.370  14.649  12.067  0.00  0.00     0.167 HD
ENDBRANCH  21  23
ENDBRANCH  20  21
ENDBRANCH  19  20
ENDBRANCH  17  19
ENDBRANCH  14  17
BRANCH   9  25
HETATM   25  C   UNK N   1      32.951  14.432   3.836  0.00  0.00     0.255 C 
BRANCH  25  26
HETATM   26  C   UNK N   1      33.434  15.289   2.711  0.00  0.00     0.159 C 
HETATM   27  O   UNK N   1      34.308  14.877   1.967  0.00  0.00    -0.649 OA
BRANCH  26  28
HETATM   28  O   UNK N   1      32.972  16.545   2.569  0.00  0.00    -0.775 OA
HETATM   29  H   UNK N   1      33.373  17.249   3.039  0.00  0.00     0.167 HD
ENDBRANCH  26  28
ENDBRANCH  25  26
ENDBRANCH   9  25
TORSDOF 8
ENDMDL
MODEL 4
REMARK VINA RESULT:      -7.4     16.078     17.338
REMARK  8 active torsions:
REMARK  status: ('A' for Active; 'I' for Inactive)
REMARK    1  A    between atoms: N_9  and  C_10 
REMARK    2  A    between atoms: C_10  and  C_11 
REMARK    3  A    between atoms: C_11  and  O_13 
REMARK    4  A    between atoms: C_18  and  C_19 
REMARK    5  A    between atoms: C_19  and  O_20 
REMARK    6  A    between atoms: O_20  and  C_21 
REMARK    7  A    between atoms: C_21  and  C_22 
REMARK    8  A    between atoms: C_22  and  O_24 
ROOT
HETATM    1  C   UNK N   1      27.198  22.744  -6.655  0.00  0.00    -0.024 A 
HETATM    2  C   UNK N   1      26.299  22.402  -7.670  0.00  0.00     0.012 A 
HETATM    3  C   UNK N   1      26.664  21.464  -8.641  0.00  0.00     0.001 A 
HETATM    4  C   UNK N   1      27.928  20.869  -8.604  0.00  0.00     0.001 A 
HETATM    5  C   UNK N   1      28.835  21.211  -7.597  0.00  0.00     0.013 A 
HETATM    6  C   UNK N   1      28.479  22.145  -6.615  0.00  0.00    -0.009 A 
HETATM    7  C   UNK N   1      29.362  22.515  -5.588  0.00  0.00     0.068 A 
HETATM    8  C   UNK N   1      30.724  22.077  -5.389  0.00  0.00     0.270 A 
HETATM    9  N   UNK N   1      31.324  22.650  -4.320  0.00  0.00    -0.227 N 
HETATM   10  S   UNK N   1      30.322  23.780  -3.377  0.00  0.00     0.270 S 
HETATM   11  O   UNK N   1      30.888  23.164  -2.088  0.00  0.00    -0.200 OA
HETATM   12  O   UNK N   1      29.309  22.730  -2.883  0.00  0.00    -0.200 OA
HETATM   13  C   UNK N   1      28.997  23.428  -4.607  0.00  0.00     0.113 A 
HETATM   14  C   UNK N   1      27.714  24.046  -4.653  0.00  0.00     0.064 A 
HETATM   15  C   UNK N   1      26.831  23.685  -5.687  0.00  0.00     0.031 A 
HETATM   16  O   UNK N   1      31.306  21.313  -6.142  0.00  0.00    -0.266 OA
ENDROOT
BRANCH  14  17
HETATM   17  C   UNK N   1      27.270  25.054  -3.652  0.00  0.00     0.295 C 
HETATM   18  O   UNK N   1      26.599  24.699  -2.692  0.00  0.00    -0.259 OA
BRANCH  17  19
HETATM   19  O   UNK N   1      27.606  26.359  -3.799  0.00  0.00    -0.307 OA
BRANCH  19  20
HETATM   20  C   UNK N   1      27.073  27.168  -4.776  0.00  0.00     0.288 C 
BRANCH  20  21
HETATM   21  C   UNK N   1      25.665  27.545  -4.433  0.00  0.00     0.165 C 
HETATM   22  O   UNK N   1      24.766  27.291  -5.216  0.00  0.00    -0.648 OA
BRANCH  21  23
HETATM   23  O   UNK N   1      25.381  28.170  -3.272  0.00  0.00    -0.775 OA
HETATM   24  H   UNK N   1      24.611  27.940  -2.791  0.00  0.00     0.167 HD
ENDBRANCH  21  23
ENDBRANCH  20  21
ENDBRANCH  19  20
ENDBRANCH  17  19
ENDBRANCH  14  17
BRANCH   9  25
HETATM   25  C   UNK N   1      32.740  22.494  -4.034  0.00  0.00     0.255 C 
BRANCH  25  26
HETATM   26  C   UNK N   1      33.041  21.235  -3.285  0.00  0.00     0.159 C 
HETATM   27  O   UNK N   1      33.493  20.271  -3.877  0.00  0.00    -0.649 OA
BRANCH  26  28
HETATM   28  O   UNK N   1      32.731  21.134  -1.979  0.00  0.00    -0.775 OA
HETATM   29  H   UNK N   1      32.588  21.907  -1.469  0.00  0.00     0.167 HD
ENDBRANCH  26  28
ENDBRANCH  25  26
ENDBRANCH   9  25
TORSDOF 8
ENDMDL
MODEL 5
REMARK VINA RESULT:      -7.1      5.234      7.638
REMARK  8 active torsions:
REMARK  status: ('A' for Active; 'I' for Inactive)
REMARK    1  A    between atoms: N_9  and  C_10 
REMARK    2  A    between atoms: C_10  and  C_11 
REMARK    3  A    between atoms: C_11  and  O_13 
REMARK    4  A    between atoms: C_18  and  C_19 
REMARK    5  A    between atoms: C_19  and  O_20 
REMARK    6  A    between atoms: O_20  and  C_21 
REMARK    7  A    between atoms: C_21  and  C_22 
REMARK    8  A    between atoms: C_22  and  O_24 
ROOT
HETATM    1  C   UNK N   1      25.853  17.994   4.455  0.00  0.00    -0.024 A 
HETATM    2  C   UNK N   1      27.210  18.032   4.789  0.00  0.00     0.012 A 
HETATM    3  C   UNK N   1      27.928  19.226   4.670  0.00  0.00     0.001 A 
HETATM    4  C   UNK N   1      27.293  20.385   4.214  0.00  0.00     0.001 A 
HETATM    5  C   UNK N   1      25.938  20.354   3.872  0.00  0.00     0.013 A 
HETATM    6  C   UNK N   1      25.207  19.164   3.992  0.00  0.00    -0.009 A 
HETATM    7  C   UNK N   1      23.846  19.093   3.657  0.00  0.00     0.068 A 
HETATM    8  C   UNK N   1      23.009  20.140   3.116  0.00  0.00     0.270 A 
HETATM    9  N   UNK N   1      21.741  19.741   2.865  0.00  0.00    -0.227 N 
HETATM   10  S   UNK N   1      21.361  18.050   3.274  0.00  0.00     0.270 S 
HETATM   11  O   UNK N   1      20.020  18.521   3.860  0.00  0.00    -0.200 OA
HETATM   12  O   UNK N   1      21.549  18.201   4.796  0.00  0.00    -0.200 OA
HETATM   13  C   UNK N   1      23.123  17.915   3.795  0.00  0.00     0.113 A 
HETATM   14  C   UNK N   1      23.772  16.731   4.246  0.00  0.00     0.064 A 
HETATM   15  C   UNK N   1      25.140  16.797   4.571  0.00  0.00     0.031 A 
HETATM   16  O   UNK N   1      23.414  21.260   2.850  0.00  0.00    -0.266 OA
ENDROOT
BRANCH  14  17
HETATM   17  C   UNK N   1      23.065  15.428   4.388  0.00  0.00     0.295 C 
HETATM   18  O   UNK N   1      22.556  15.131   5.460  0.00  0.00    -0.259 OA
BRANCH  17  19
HETATM   19  O   UNK N   1      22.982  14.576   3.338  0.00  0.00    -0.307 OA
BRANCH  19  20
HETATM   20  C   UNK N   1      21.813  14.342   2.650  0.00  0.00     0.288 C 
BRANCH  20  21
HETATM   21  C   UNK N   1      21.963  14.736   1.213  0.00  0.00     0.165 C 
HETATM   22  O   UNK N   1      21.113  15.436   0.689  0.00  0.00    -0.648 OA
BRANCH  21  23
HETATM   23  O   UNK N   1      23.022  14.320   0.491  0.00  0.00    -0.775 OA
HETATM   24  H   UNK N   1      22.890  13.897  -0.336  0.00  0.00     0.167 HD
ENDBRANCH  21  23
ENDBRANCH  20  21
ENDBRANCH  19  20
ENDBRANCH  17  19
ENDBRANCH  14  17
BRANCH   9  25
HETATM   25  C   UNK N   1      20.779  20.570   2.159  0.00  0.00     0.255 C 
BRANCH  25  26
HETATM   26  C   UNK N   1      20.809  20.354   0.680  0.00  0.00     0.159 C 
HETATM   27  O   UNK N   1      20.656  19.233   0.227  0.00  0.00    -0.649 OA
BRANCH  26  28
HETATM   28  O   UNK N   1      21.092  21.377  -0.148  0.00  0.00    -0.775 OA
HETATM   29  H   UNK N   1      21.980  21.654  -0.266  0.00  0.00     0.167 HD
ENDBRANCH  26  28
ENDBRANCH  25  26
ENDBRANCH   9  25
TORSDOF 8
ENDMDL
MODEL 6
REMARK VINA RESULT:      -7.0     16.158     17.266
REMARK  8 active torsions:
REMARK  status: ('A' for Active; 'I' for Inactive)
REMARK    1  A    between atoms: N_9  and  C_10 
REMARK    2  A    between atoms: C_10  and  C_11 
REMARK    3  A    between atoms: C_11  and  O_13 
REMARK    4  A    between atoms: C_18  and  C_19 
REMARK    5  A    between atoms: C_19  and  O_20 
REMARK    6  A    between atoms: O_20  and  C_21 
REMARK    7  A    between atoms: C_21  and  C_22 
REMARK    8  A    between atoms: C_22  and  O_24 
ROOT
HETATM    1  C   UNK N   1      30.101  22.864  -3.675  0.00  0.00    -0.024 A 
HETATM    2  C   UNK N   1      31.144  22.462  -2.835  0.00  0.00     0.012 A 
HETATM    3  C   UNK N   1      31.972  21.398  -3.206  0.00  0.00     0.001 A 
HETATM    4  C   UNK N   1      31.757  20.730  -4.415  0.00  0.00     0.001 A 
HETATM    5  C   UNK N   1      30.712  21.121  -5.258  0.00  0.00     0.013 A 
HETATM    6  C   UNK N   1      29.879  22.189  -4.898  0.00  0.00    -0.009 A 
HETATM    7  C   UNK N   1      28.819  22.611  -5.716  0.00  0.00     0.068 A 
HETATM    8  C   UNK N   1      28.381  22.036  -6.967  0.00  0.00     0.270 A 
HETATM    9  N   UNK N   1      27.299  22.653  -7.495  0.00  0.00    -0.227 N 
HETATM   10  S   UNK N   1      26.668  24.041  -6.574  0.00  0.00     0.270 S 
HETATM   11  O   UNK N   1      26.486  24.802  -7.897  0.00  0.00    -0.200 OA
HETATM   12  O   UNK N   1      27.904  24.941  -6.763  0.00  0.00    -0.200 OA
HETATM   13  C   UNK N   1      28.009  23.682  -5.363  0.00  0.00     0.113 A 
HETATM   14  C   UNK N   1      28.218  24.354  -4.125  0.00  0.00     0.064 A 
HETATM   15  C   UNK N   1      29.273  23.926  -3.298  0.00  0.00     0.031 A 
HETATM   16  O   UNK N   1      28.892  21.051  -7.474  0.00  0.00    -0.266 OA
ENDROOT
BRANCH  14  17
HETATM   17  C   UNK N   1      27.368  25.489  -3.671  0.00  0.00     0.295 C 
HETATM   18  O   UNK N   1      26.390  25.268  -2.969  0.00  0.00    -0.259 OA
BRANCH  17  19
HETATM   19  O   UNK N   1      27.674  26.760  -4.028  0.00  0.00    -0.307 OA
BRANCH  19  20
HETATM   20  C   UNK N   1      26.725  27.741  -4.203  0.00  0.00     0.288 C 
BRANCH  20  21
HETATM   21  C   UNK N   1      26.039  27.576  -5.524  0.00  0.00     0.165 C 
HETATM   22  O   UNK N   1      24.836  27.379  -5.557  0.00  0.00    -0.648 OA
BRANCH  21  23
HETATM   23  O   UNK N   1      26.737  27.636  -6.675  0.00  0.00    -0.775 OA
HETATM   24  H   UNK N   1      27.644  27.403  -6.688  0.00  0.00     0.167 HD
ENDBRANCH  21  23
ENDBRANCH  20  21
ENDBRANCH  19  20
ENDBRANCH  17  19
ENDBRANCH  14  17
BRANCH   9  25
HETATM   25  C   UNK N   1      26.583  22.139  -8.650  0.00  0.00     0.255 C 
BRANCH  25  26
HETATM   26  C   UNK N   1      25.320  21.432  -8.276  0.00  0.00     0.159 C 
HETATM   27  O   UNK N   1      25.351  20.250  -7.979  0.00  0.00    -0.649 OA
BRANCH  26  28
HETATM   28  O   UNK N   1      24.138  22.071  -8.353  0.00  0.00    -0.775 OA
HETATM   29  H   UNK N   1      24.069  22.876  -8.828  0.00  0.00     0.167 HD
ENDBRANCH  26  28
ENDBRANCH  25  26
ENDBRANCH   9  25
TORSDOF 8
ENDMDL
MODEL 7
REMARK VINA RESULT:      -6.8      2.756      6.933
REMARK  8 active torsions:
REMARK  status: ('A' for Active; 'I' for Inactive)
REMARK    1  A    between atoms: N_9  and  C_10 
REMARK    2  A    between atoms: C_10  and  C_11 
REMARK    3  A    between atoms: C_11  and  O_13 
REMARK    4  A    between atoms: C_18  and  C_19 
REMARK    5  A    between atoms: C_19  and  O_20 
REMARK    6  A    between atoms: O_20  and  C_21 
REMARK    7  A    between atoms: C_21  and  C_22 
REMARK    8  A    between atoms: C_22  and  O_24 
ROOT
HETATM    1  C   UNK N   1      20.824  15.776   2.441  0.00  0.00    -0.024 A 
HETATM    2  C   UNK N   1      20.587  15.091   1.245  0.00  0.00     0.012 A 
HETATM    3  C   UNK N   1      19.750  13.971   1.234  0.00  0.00     0.001 A 
HETATM    4  C   UNK N   1      19.150  13.529   2.417  0.00  0.00     0.001 A 
HETATM    5  C   UNK N   1      19.387  14.205   3.618  0.00  0.00     0.013 A 
HETATM    6  C   UNK N   1      20.220  15.331   3.641  0.00  0.00    -0.009 A 
HETATM    7  C   UNK N   1      20.482  16.035   4.826  0.00  0.00     0.068 A 
HETATM    8  C   UNK N   1      20.022  15.728   6.161  0.00  0.00     0.270 A 
HETATM    9  N   UNK N   1      20.484  16.585   7.101  0.00  0.00    -0.227 N 
HETATM   10  S   UNK N   1      21.518  17.908   6.509  0.00  0.00     0.270 S 
HETATM   11  O   UNK N   1      20.774  18.873   7.447  0.00  0.00    -0.200 OA
HETATM   12  O   UNK N   1      20.427  18.612   5.679  0.00  0.00    -0.200 OA
HETATM   13  C   UNK N   1      21.294  17.162   4.839  0.00  0.00     0.113 A 
HETATM   14  C   UNK N   1      21.917  17.604   3.637  0.00  0.00     0.064 A 
HETATM   15  C   UNK N   1      21.665  16.893   2.449  0.00  0.00     0.031 A 
HETATM   16  O   UNK N   1      19.336  14.757   6.433  0.00  0.00    -0.266 OA
ENDROOT
BRANCH  14  17
HETATM   17  C   UNK N   1      22.823  18.784   3.586  0.00  0.00     0.295 C 
HETATM   18  O   UNK N   1      24.030  18.625   3.707  0.00  0.00    -0.259 OA
BRANCH  17  19
HETATM   19  O   UNK N   1      22.317  20.028   3.403  0.00  0.00    -0.307 OA
BRANCH  19  20
HETATM   20  C   UNK N   1      22.216  20.624   2.167  0.00  0.00     0.288 C 
BRANCH  20  21
HETATM   21  C   UNK N   1      20.888  20.319   1.546  0.00  0.00     0.165 C 
HETATM   22  O   UNK N   1      19.919  20.126   2.260  0.00  0.00    -0.648 OA
BRANCH  21  23
HETATM   23  O   UNK N   1      20.753  20.247   0.207  0.00  0.00    -0.775 OA
HETATM   24  H   UNK N   1      20.691  21.031  -0.303  0.00  0.00     0.167 HD
ENDBRANCH  21  23
ENDBRANCH  20  21
ENDBRANCH  19  20
ENDBRANCH  17  19
ENDBRANCH  14  17
BRANCH   9  25
HETATM   25  C   UNK N   1      20.295  16.368   8.525  0.00  0.00     0.255 C 
BRANCH  25  26
HETATM   26  C   UNK N   1      18.951  16.816   9.003  0.00  0.00     0.159 C 
HETATM   27  O   UNK N   1      18.072  15.995   9.197  0.00  0.00    -0.649 OA
BRANCH  26  28
HETATM   28  O   UNK N   1      18.682  18.128   9.134  0.00  0.00    -0.775 OA
HETATM   29  H   UNK N   1      18.753  18.541   9.973  0.00  0.00     0.167 HD
ENDBRANCH  26  28
ENDBRANCH  25  26
ENDBRANCH   9  25
TORSDOF 8
ENDMDL
MODEL 8
REMARK VINA RESULT:      -6.7     13.535     15.105
REMARK  8 active torsions:
REMARK  status: ('A' for Active; 'I' for Inactive)
REMARK    1  A    between atoms: N_9  and  C_10 
REMARK    2  A    between atoms: C_10  and  C_11 
REMARK    3  A    between atoms: C_11  and  O_13 
REMARK    4  A    between atoms: C_18  and  C_19 
REMARK    5  A    between atoms: C_19  and  O_20 
REMARK    6  A    between atoms: O_20  and  C_21 
REMARK    7  A    between atoms: C_21  and  C_22 
REMARK    8  A    between atoms: C_22  and  O_24 
ROOT
HETATM    1  C   UNK N   1      34.771  11.518   9.359  0.00  0.00    -0.024 A 
HETATM    2  C   UNK N   1      34.748  10.200   8.895  0.00  0.00     0.012 A 
HETATM    3  C   UNK N   1      34.299   9.920   7.600  0.00  0.00     0.001 A 
HETATM    4  C   UNK N   1      33.868  10.957   6.768  0.00  0.00     0.001 A 
HETATM    5  C   UNK N   1      33.882  12.278   7.226  0.00  0.00     0.013 A 
HETATM    6  C   UNK N   1      34.334  12.570   8.520  0.00  0.00    -0.009 A 
HETATM    7  C   UNK N   1      34.362  13.882   9.017  0.00  0.00     0.068 A 
HETATM    8  C   UNK N   1      33.914  15.089   8.360  0.00  0.00     0.270 A 
HETATM    9  N   UNK N   1      34.041  16.198   9.125  0.00  0.00    -0.227 N 
HETATM   10  S   UNK N   1      34.749  15.953  10.741  0.00  0.00     0.270 S 
HETATM   11  O   UNK N   1      35.584  17.228  10.539  0.00  0.00    -0.200 OA
HETATM   12  O   UNK N   1      36.143  15.520  10.247  0.00  0.00    -0.200 OA
HETATM   13  C   UNK N   1      34.828  14.168  10.294  0.00  0.00     0.113 A 
HETATM   14  C   UNK N   1      35.254  13.111  11.148  0.00  0.00     0.064 A 
HETATM   15  C   UNK N   1      35.217  11.793  10.656  0.00  0.00     0.031 A 
HETATM   16  O   UNK N   1      33.411  15.108   7.249  0.00  0.00    -0.266 OA
ENDROOT
BRANCH  14  17
HETATM   17  C   UNK N   1      35.736  13.342  12.537  0.00  0.00     0.295 C 
HETATM   18  O   UNK N   1      36.934  13.484  12.746  0.00  0.00    -0.259 OA
BRANCH  17  19
HETATM   19  O   UNK N   1      34.857  13.400  13.567  0.00  0.00    -0.307 OA
BRANCH  19  20
HETATM   20  C   UNK N   1      34.885  12.527  14.630  0.00  0.00     0.288 C 
BRANCH  20  21
HETATM   21  C   UNK N   1      35.395  13.213  15.859  0.00  0.00     0.165 C 
HETATM   22  O   UNK N   1      34.751  13.155  16.892  0.00  0.00    -0.648 OA
BRANCH  21  23
HETATM   23  O   UNK N   1      36.554  13.901  15.834  0.00  0.00    -0.775 OA
HETATM   24  H   UNK N   1      37.281  13.579  15.338  0.00  0.00     0.167 HD
ENDBRANCH  21  23
ENDBRANCH  20  21
ENDBRANCH  19  20
ENDBRANCH  17  19
ENDBRANCH  14  17
BRANCH   9  25
HETATM   25  C   UNK N   1      33.495  17.488   8.740  0.00  0.00     0.255 C 
BRANCH  25  26
HETATM   26  C   UNK N   1      34.448  18.294   7.917  0.00  0.00     0.159 C 
HETATM   27  O   UNK N   1      34.533  18.095   6.717  0.00  0.00    -0.649 OA
BRANCH  26  28
HETATM   28  O   UNK N   1      35.276  19.175   8.508  0.00  0.00    -0.775 OA
HETATM   29  H   UNK N   1      35.915  19.635   7.999  0.00  0.00     0.167 HD
ENDBRANCH  26  28
ENDBRANCH  25  26
ENDBRANCH   9  25
TORSDOF 8
ENDMDL
MODEL 9
REMARK VINA RESULT:      -6.7      2.298      3.212
REMARK  8 active torsions:
REMARK  status: ('A' for Active; 'I' for Inactive)
REMARK    1  A    between atoms: N_9  and  C_10 
REMARK    2  A    between atoms: C_10  and  C_11 
REMARK    3  A    between atoms: C_11  and  O_13 
REMARK    4  A    between atoms: C_18  and  C_19 
REMARK    5  A    between atoms: C_19  and  O_20 
REMARK    6  A    between atoms: O_20  and  C_21 
REMARK    7  A    between atoms: C_21  and  C_22 
REMARK    8  A    between atoms: C_22  and  O_24 
ROOT
HETATM    1  C   UNK N   1      21.948  13.315   9.256  0.00  0.00    -0.024 A 
HETATM    2  C   UNK N   1      21.743  12.573  10.423  0.00  0.00     0.012 A 
HETATM    3  C   UNK N   1      22.830  11.994  11.086  0.00  0.00     0.001 A 
HETATM    4  C   UNK N   1      24.124  12.152  10.582  0.00  0.00     0.001 A 
HETATM    5  C   UNK N   1      24.338  12.886   9.412  0.00  0.00     0.013 A 
HETATM    6  C   UNK N   1      23.257  13.475   8.742  0.00  0.00    -0.009 A 
HETATM    7  C   UNK N   1      23.430  14.219   7.565  0.00  0.00     0.068 A 
HETATM    8  C   UNK N   1      24.656  14.460   6.840  0.00  0.00     0.270 A 
HETATM    9  N   UNK N   1      24.483  15.189   5.714  0.00  0.00    -0.227 N 
HETATM   10  S   UNK N   1      22.817  15.719   5.377  0.00  0.00     0.270 S 
HETATM   11  O   UNK N   1      23.365  17.097   4.973  0.00  0.00    -0.200 OA
HETATM   12  O   UNK N   1      22.687  16.645   6.602  0.00  0.00    -0.200 OA
HETATM   13  C   UNK N   1      22.357  14.815   6.915  0.00  0.00     0.113 A 
HETATM   14  C   UNK N   1      21.036  14.643   7.420  0.00  0.00     0.064 A 
HETATM   15  C   UNK N   1      20.858  13.888   8.594  0.00  0.00     0.031 A 
HETATM   16  O   UNK N   1      25.738  14.002   7.170  0.00  0.00    -0.266 OA
ENDROOT
BRANCH  14  17
HETATM   17  C   UNK N   1      19.838  15.228   6.757  0.00  0.00     0.295 C 
HETATM   18  O   UNK N   1      19.223  14.568   5.930  0.00  0.00    -0.259 OA
BRANCH  17  19
HETATM   19  O   UNK N   1      19.426  16.481   7.068  0.00  0.00    -0.307 OA
BRANCH  19  20
HETATM   20  C   UNK N   1      19.303  16.933   8.362  0.00  0.00     0.288 C 
BRANCH  20  21
HETATM   21  C   UNK N   1      19.974  18.262   8.518  0.00  0.00     0.165 C 
HETATM   22  O   UNK N   1      19.815  18.900   9.545  0.00  0.00    -0.648 OA
BRANCH  21  23
HETATM   23  O   UNK N   1      20.744  18.766   7.534  0.00  0.00    -0.775 OA
HETATM   24  H   UNK N   1      20.434  18.771   6.650  0.00  0.00     0.167 HD
ENDBRANCH  21  23
ENDBRANCH  20  21
ENDBRANCH  19  20
ENDBRANCH  17  19
ENDBRANCH  14  17
BRANCH   9  25
HETATM   25  C   UNK N   1      25.542  15.402   4.742  0.00  0.00     0.255 C 
BRANCH  25  26
HETATM   26  C   UNK N   1      26.560  16.393   5.208  0.00  0.00     0.159 C 
HETATM   27  O   UNK N   1      27.746  16.115   5.155  0.00  0.00    -0.649 OA
BRANCH  26  28
HETATM   28  O   UNK N   1      26.169  17.553   5.767  0.00  0.00    -0.775 OA
HETATM   29  H   UNK N   1      25.261  17.710   5.938  0.00  0.00     0.167 HD
ENDBRANCH  26  28
ENDBRANCH  25  26
ENDBRANCH   9  25
TORSDOF 8
ENDMDL
