MODEL 1
REMARK VINA RESULT:      -7.1      0.000      0.000
REMARK  5 active torsions:
REMARK  status: ('A' for Active; 'I' for Inactive)
REMARK    1  A    between atoms: N_5  and  C_6 
REMARK    2  A    between atoms: C_6  and  C_7 
REMARK    3  A    between atoms: C_7  and  O_8 
REMARK    4  A    between atoms: C_14  and  C_15 
REMARK    5  A    between atoms: C_15  and  O_17 
ROOT
HETATM    1  C   UNK N   1      21.931  13.620   9.204  0.00  0.00    -0.009 A 
HETATM    2  C   UNK N   1      21.230  14.688   8.621  0.00  0.00     0.068 A 
HETATM    3  C   UNK N   1      19.909  15.229   9.008  0.00  0.00     0.270 A 
HETATM    4  O   UNK N   1      19.226  14.766   9.909  0.00  0.00    -0.266 OA
HETATM    5  N   UNK N   1      19.485  16.251   8.226  0.00  0.00    -0.227 N 
HETATM    6  S   UNK N   1      20.661  16.667   6.989  0.00  0.00     0.270 S 
HETATM    7  O   UNK N   1      19.778  16.601   5.733  0.00  0.00    -0.200 OA
HETATM    8  O   UNK N   1      20.955  18.127   7.362  0.00  0.00    -0.200 OA
HETATM    9  C   UNK N   1      21.753  15.360   7.521  0.00  0.00     0.113 A 
HETATM   10  C   UNK N   1      22.996  15.000   6.960  0.00  0.00     0.062 A 
HETATM   11  C   UNK N   1      23.698  13.931   7.543  0.00  0.00     0.032 A 
HETATM   12  C   UNK N   1      23.181  13.244   8.650  0.00  0.00    -0.024 A 
HETATM   13  C   UNK N   1      23.900  12.183   9.206  0.00  0.00     0.012 A 
HETATM   14  C   UNK N   1      23.389  11.492  10.307  0.00  0.00     0.001 A 
HETATM   15  C   UNK N   1      22.157  11.858  10.858  0.00  0.00     0.001 A 
HETATM   16  C   UNK N   1      21.428  12.918  10.308  0.00  0.00     0.013 A 
ENDROOT
BRANCH   5  17
HETATM   17  C   UNK N   1      18.142  16.799   8.310  0.00  0.00     0.255 C 
BRANCH  17  18
HETATM   18  C   UNK N   1      17.982  17.828   9.386  0.00  0.00     0.159 C 
HETATM   19  O   UNK N   1      16.977  17.840  10.078  0.00  0.00    -0.649 OA
BRANCH  18  20
HETATM   20  O   UNK N   1      18.985  18.682   9.653  0.00  0.00    -0.775 OA
HETATM   21  H   UNK N   1      19.068  19.518  10.067  0.00  0.00     0.167 HD
ENDBRANCH  18  20
ENDBRANCH  17  18
ENDBRANCH   5  17
BRANCH  10  22
HETATM   22  C   UNK N   1      23.584  15.699   5.789  0.00  0.00     0.177 C 
HETATM   23  O   UNK N   1      23.195  15.435   4.663  0.00  0.00    -0.646 OA
BRANCH  22  24
HETATM   24  O   UNK N   1      24.548  16.628   5.944  0.00  0.00    -0.773 OA
HETATM   25  H   UNK N   1      25.438  16.365   6.072  0.00  0.00     0.167 HD
ENDBRANCH  22  24
ENDBRANCH  10  22
TORSDOF 5
ENDMDL
MODEL 2
REMARK VINA RESULT:      -7.1      1.490      4.845
REMARK  5 active torsions:
REMARK  status: ('A' for Active; 'I' for Inactive)
REMARK    1  A    between atoms: N_5  and  C_6 
REMARK    2  A    between atoms: C_6  and  C_7 
REMARK    3  A    between atoms: C_7  and  O_8 
REMARK    4  A    between atoms: C_14  and  C_15 
REMARK    5  A    between atoms: C_15  and  O_17 
ROOT
HETATM    1  C   UNK N   1      21.875  14.029   8.755  0.00  0.00    -0.009 A 
HETATM    2  C   UNK N   1      21.867  15.064   7.806  0.00  0.00     0.068 A 
HETATM    3  C   UNK N   1      22.892  15.369   6.784  0.00  0.00     0.270 A 
HETATM    4  O   UNK N   1      23.933  14.741   6.661  0.00  0.00    -0.266 OA
HETATM    5  N   UNK N   1      22.607  16.459   6.031  0.00  0.00    -0.227 N 
HETATM    6  S   UNK N   1      21.065  17.178   6.468  0.00  0.00     0.270 S 
HETATM    7  O   UNK N   1      21.494  18.634   6.702  0.00  0.00    -0.200 OA
HETATM    8  O   UNK N   1      20.310  17.048   5.137  0.00  0.00    -0.200 OA
HETATM    9  C   UNK N   1      20.820  15.979   7.766  0.00  0.00     0.113 A 
HETATM   10  C   UNK N   1      19.738  15.899   8.666  0.00  0.00     0.062 A 
HETATM   11  C   UNK N   1      19.745  14.864   9.617  0.00  0.00     0.032 A 
HETATM   12  C   UNK N   1      20.795  13.937   9.669  0.00  0.00    -0.024 A 
HETATM   13  C   UNK N   1      20.777  12.921  10.628  0.00  0.00     0.012 A 
HETATM   14  C   UNK N   1      21.822  11.995  10.687  0.00  0.00     0.001 A 
HETATM   15  C   UNK N   1      22.889  12.081   9.789  0.00  0.00     0.001 A 
HETATM   16  C   UNK N   1      22.918  13.096   8.826  0.00  0.00     0.013 A 
ENDROOT
BRANCH   5  17
HETATM   17  C   UNK N   1      23.561  17.045   5.105  0.00  0.00     0.255 C 
BRANCH  17  18
HETATM   18  C   UNK N   1      23.497  16.456   3.729  0.00  0.00     0.159 C 
HETATM   19  O   UNK N   1      24.511  16.035   3.195  0.00  0.00    -0.649 OA
BRANCH  18  20
HETATM   20  O   UNK N   1      22.309  16.307   3.117  0.00  0.00    -0.775 OA
HETATM   21  H   UNK N   1      21.504  16.784   3.081  0.00  0.00     0.167 HD
ENDBRANCH  18  20
ENDBRANCH  17  18
ENDBRANCH   5  17
BRANCH  10  22
HETATM   22  C   UNK N   1      18.602  16.857   8.648  0.00  0.00     0.177 C 
HETATM   23  O   UNK N   1      17.543  16.536   8.135  0.00  0.00    -0.646 OA
BRANCH  22  24
HETATM   24  O   UNK N   1      18.718  18.084   9.192  0.00  0.00    -0.773 OA
HETATM   25  H   UNK N   1      19.462  18.619   8.993  0.00  0.00     0.167 HD
ENDBRANCH  22  24
ENDBRANCH  10  22
TORSDOF 5
ENDMDL
MODEL 3
REMARK VINA RESULT:      -7.0      4.833      7.427
REMARK  5 active torsions:
REMARK  status: ('A' for Active; 'I' for Inactive)
REMARK    1  A    between atoms: N_5  and  C_6 
REMARK    2  A    between atoms: C_6  and  C_7 
REMARK    3  A    between atoms: C_7  and  O_8 
REMARK    4  A    between atoms: C_14  and  C_15 
REMARK    5  A    between atoms: C_15  and  O_17 
ROOT
HETATM    1  C   UNK N   1      25.350  19.053   4.083  0.00  0.00    -0.009 A 
HETATM    2  C   UNK N   1      23.983  18.963   3.772  0.00  0.00     0.068 A 
HETATM    3  C   UNK N   1      23.114  20.002   3.179  0.00  0.00     0.270 A 
HETATM    4  O   UNK N   1      23.498  21.129   2.905  0.00  0.00    -0.266 OA
HETATM    5  N   UNK N   1      21.825  19.617   3.026  0.00  0.00    -0.227 N 
HETATM    6  S   UNK N   1      21.565  17.959   3.548  0.00  0.00     0.270 S 
HETATM    7  O   UNK N   1      20.393  18.155   4.521  0.00  0.00    -0.200 OA
HETATM    8  O   UNK N   1      21.075  17.328   2.237  0.00  0.00    -0.200 OA
HETATM    9  C   UNK N   1      23.271  17.799   4.046  0.00  0.00     0.113 A 
HETATM   10  C   UNK N   1      23.890  16.679   4.636  0.00  0.00     0.062 A 
HETATM   11  C   UNK N   1      25.258  16.768   4.949  0.00  0.00     0.032 A 
HETATM   12  C   UNK N   1      25.986  17.936   4.680  0.00  0.00    -0.024 A 
HETATM   13  C   UNK N   1      27.343  17.997   5.005  0.00  0.00     0.012 A 
HETATM   14  C   UNK N   1      28.075  19.158   4.743  0.00  0.00     0.001 A 
HETATM   15  C   UNK N   1      27.452  20.263   4.155  0.00  0.00     0.001 A 
HETATM   16  C   UNK N   1      26.093  20.213   3.826  0.00  0.00     0.013 A 
ENDROOT
BRANCH   5  17
HETATM   17  C   UNK N   1      20.769  20.539   2.644  0.00  0.00     0.255 C 
BRANCH  17  18
HETATM   18  C   UNK N   1      20.679  20.765   1.167  0.00  0.00     0.159 C 
HETATM   19  O   UNK N   1      20.743  21.897   0.714  0.00  0.00    -0.649 OA
BRANCH  18  20
HETATM   20  O   UNK N   1      20.621  19.715   0.329  0.00  0.00    -0.775 OA
HETATM   21  H   UNK N   1      20.726  18.787   0.401  0.00  0.00     0.167 HD
ENDBRANCH  18  20
ENDBRANCH  17  18
ENDBRANCH   5  17
BRANCH  10  22
HETATM   22  C   UNK N   1      23.160  15.421   4.938  0.00  0.00     0.177 C 
HETATM   23  O   UNK N   1      22.810  15.180   6.082  0.00  0.00    -0.646 OA
BRANCH  22  24
HETATM   24  O   UNK N   1      22.873  14.531   3.968  0.00  0.00    -0.773 OA
HETATM   25  H   UNK N   1      22.587  13.667   4.191  0.00  0.00     0.167 HD
ENDBRANCH  22  24
ENDBRANCH  10  22
TORSDOF 5
ENDMDL
MODEL 4
REMARK VINA RESULT:      -6.9      7.662     10.117
REMARK  5 active torsions:
REMARK  status: ('A' for Active; 'I' for Inactive)
REMARK    1  A    between atoms: N_5  and  C_6 
REMARK    2  A    between atoms: C_6  and  C_7 
REMARK    3  A    between atoms: C_7  and  O_8 
REMARK    4  A    between atoms: C_14  and  C_15 
REMARK    5  A    between atoms: C_15  and  O_17 
ROOT
HETATM    1  C   UNK N   1      31.571  17.221   6.484  0.00  0.00    -0.009 A 
HETATM    2  C   UNK N   1      30.276  16.996   5.989  0.00  0.00     0.068 A 
HETATM    3  C   UNK N   1      29.880  16.615   4.616  0.00  0.00     0.270 A 
HETATM    4  O   UNK N   1      30.673  16.473   3.698  0.00  0.00    -0.266 OA
HETATM    5  N   UNK N   1      28.541  16.502   4.444  0.00  0.00    -0.227 N 
HETATM    6  S   UNK N   1      27.656  16.806   5.931  0.00  0.00     0.270 S 
HETATM    7  O   UNK N   1      26.665  17.877   5.449  0.00  0.00    -0.200 OA
HETATM    8  O   UNK N   1      26.944  15.458   6.113  0.00  0.00    -0.200 OA
HETATM    9  C   UNK N   1      29.167  17.157   6.813  0.00  0.00     0.113 A 
HETATM   10  C   UNK N   1      29.301  17.542   8.163  0.00  0.00     0.062 A 
HETATM   11  C   UNK N   1      30.597  17.767   8.659  0.00  0.00     0.032 A 
HETATM   12  C   UNK N   1      31.723  17.611   7.838  0.00  0.00    -0.024 A 
HETATM   13  C   UNK N   1      32.998  17.846   8.358  0.00  0.00     0.012 A 
HETATM   14  C   UNK N   1      34.124  17.696   7.546  0.00  0.00     0.001 A 
HETATM   15  C   UNK N   1      33.981  17.311   6.209  0.00  0.00     0.001 A 
HETATM   16  C   UNK N   1      32.708  17.075   5.678  0.00  0.00     0.013 A 
ENDROOT
BRANCH   5  17
HETATM   17  C   UNK N   1      27.930  16.325   3.138  0.00  0.00     0.255 C 
BRANCH  17  18
HETATM   18  C   UNK N   1      27.794  14.891   2.730  0.00  0.00     0.159 C 
HETATM   19  O   UNK N   1      28.414  14.465   1.770  0.00  0.00    -0.649 OA
BRANCH  18  20
HETATM   20  O   UNK N   1      27.059  14.047   3.477  0.00  0.00    -0.775 OA
HETATM   21  H   UNK N   1      26.192  13.695   3.442  0.00  0.00     0.167 HD
ENDBRANCH  18  20
ENDBRANCH  17  18
ENDBRANCH   5  17
BRANCH  10  22
HETATM   22  C   UNK N   1      28.138  17.718   9.070  0.00  0.00     0.177 C 
HETATM   23  O   UNK N   1      27.848  16.839   9.866  0.00  0.00    -0.646 OA
BRANCH  22  24
HETATM   24  O   UNK N   1      27.390  18.837   9.034  0.00  0.00    -0.773 OA
HETATM   25  H   UNK N   1      26.972  19.149   9.813  0.00  0.00     0.167 HD
ENDBRANCH  22  24
ENDBRANCH  10  22
TORSDOF 5
ENDMDL
MODEL 5
REMARK VINA RESULT:      -6.7     12.313     13.954
REMARK  5 active torsions:
REMARK  status: ('A' for Active; 'I' for Inactive)
REMARK    1  A    between atoms: N_5  and  C_6 
REMARK    2  A    between atoms: C_6  and  C_7 
REMARK    3  A    between atoms: C_7  and  O_8 
REMARK    4  A    between atoms: C_14  and  C_15 
REMARK    5  A    between atoms: C_15  and  O_17 
ROOT
HETATM    1  C   UNK N   1      35.422  13.973  11.838  0.00  0.00    -0.009 A 
HETATM    2  C   UNK N   1      34.808  14.545  10.711  0.00  0.00     0.068 A 
HETATM    3  C   UNK N   1      34.636  15.980  10.399  0.00  0.00     0.270 A 
HETATM    4  O   UNK N   1      35.001  16.882  11.138  0.00  0.00    -0.266 OA
HETATM    5  N   UNK N   1      33.971  16.213   9.242  0.00  0.00    -0.227 N 
HETATM    6  S   UNK N   1      33.536  14.723   8.419  0.00  0.00     0.270 S 
HETATM    7  O   UNK N   1      32.030  14.947   8.217  0.00  0.00    -0.200 OA
HETATM    8  O   UNK N   1      34.289  14.905   7.094  0.00  0.00    -0.200 OA
HETATM    9  C   UNK N   1      34.239  13.738   9.731  0.00  0.00     0.113 A 
HETATM   10  C   UNK N   1      34.262  12.332   9.829  0.00  0.00     0.062 A 
HETATM   11  C   UNK N   1      34.875  11.759  10.956  0.00  0.00     0.032 A 
HETATM   12  C   UNK N   1      35.450  12.560  11.953  0.00  0.00    -0.024 A 
HETATM   13  C   UNK N   1      36.050  11.962  13.064  0.00  0.00     0.012 A 
HETATM   14  C   UNK N   1      36.621  12.755  14.062  0.00  0.00     0.001 A 
HETATM   15  C   UNK N   1      36.596  14.149  13.955  0.00  0.00     0.001 A 
HETATM   16  C   UNK N   1      35.997  14.758  12.847  0.00  0.00     0.013 A 
ENDROOT
BRANCH   5  17
HETATM   17  C   UNK N   1      33.528  17.538   8.844  0.00  0.00     0.255 C 
BRANCH  17  18
HETATM   18  C   UNK N   1      34.504  18.254   7.962  0.00  0.00     0.159 C 
HETATM   19  O   UNK N   1      35.253  19.095   8.433  0.00  0.00    -0.649 OA
BRANCH  18  20
HETATM   20  O   UNK N   1      34.619  17.908   6.668  0.00  0.00    -0.775 OA
HETATM   21  H   UNK N   1      34.712  18.361   5.853  0.00  0.00     0.167 HD
ENDBRANCH  18  20
ENDBRANCH  17  18
ENDBRANCH   5  17
BRANCH  10  22
HETATM   22  C   UNK N   1      33.668  11.442   8.798  0.00  0.00     0.177 C 
HETATM   23  O   UNK N   1      34.289  11.193   7.777  0.00  0.00    -0.646 OA
BRANCH  22  24
HETATM   24  O   UNK N   1      32.447  10.899   8.967  0.00  0.00    -0.773 OA
HETATM   25  H   UNK N   1      31.719  11.441   9.201  0.00  0.00     0.167 HD
ENDBRANCH  22  24
ENDBRANCH  10  22
TORSDOF 5
ENDMDL
MODEL 6
REMARK VINA RESULT:      -6.4      4.187      6.851
REMARK  5 active torsions:
REMARK  status: ('A' for Active; 'I' for Inactive)
REMARK    1  A    between atoms: N_5  and  C_6 
REMARK    2  A    between atoms: C_6  and  C_7 
REMARK    3  A    between atoms: C_7  and  O_8 
REMARK    4  A    between atoms: C_14  and  C_15 
REMARK    5  A    between atoms: C_15  and  O_17 
ROOT
HETATM    1  C   UNK N   1      25.168  18.730   4.332  0.00  0.00    -0.009 A 
HETATM    2  C   UNK N   1      23.895  18.137   4.377  0.00  0.00     0.068 A 
HETATM    3  C   UNK N   1      23.507  16.862   5.018  0.00  0.00     0.270 A 
HETATM    4  O   UNK N   1      24.296  16.123   5.586  0.00  0.00    -0.266 OA
HETATM    5  N   UNK N   1      22.199  16.546   4.862  0.00  0.00    -0.227 N 
HETATM    6  S   UNK N   1      21.325  17.778   3.965  0.00  0.00     0.270 S 
HETATM    7  O   UNK N   1      20.679  16.917   2.868  0.00  0.00    -0.200 OA
HETATM    8  O   UNK N   1      20.278  18.193   5.008  0.00  0.00    -0.200 OA
HETATM    9  C   UNK N   1      22.811  18.740   3.745  0.00  0.00     0.113 A 
HETATM   10  C   UNK N   1      22.950  19.956   3.047  0.00  0.00     0.062 A 
HETATM   11  C   UNK N   1      24.224  20.549   2.999  0.00  0.00     0.032 A 
HETATM   12  C   UNK N   1      25.324  19.951   3.631  0.00  0.00    -0.024 A 
HETATM   13  C   UNK N   1      26.578  20.563   3.564  0.00  0.00     0.012 A 
HETATM   14  C   UNK N   1      27.679  19.971   4.187  0.00  0.00     0.001 A 
HETATM   15  C   UNK N   1      27.531  18.766   4.880  0.00  0.00     0.001 A 
HETATM   16  C   UNK N   1      26.280  18.144   4.952  0.00  0.00     0.013 A 
ENDROOT
BRANCH   5  17
HETATM   17  C   UNK N   1      21.652  15.255   5.243  0.00  0.00     0.255 C 
BRANCH  17  18
HETATM   18  C   UNK N   1      20.910  15.281   6.544  0.00  0.00     0.159 C 
HETATM   19  O   UNK N   1      21.513  15.145   7.597  0.00  0.00    -0.649 OA
BRANCH  18  20
HETATM   20  O   UNK N   1      19.592  15.546   6.560  0.00  0.00    -0.775 OA
HETATM   21  H   UNK N   1      18.978  15.956   5.983  0.00  0.00     0.167 HD
ENDBRANCH  18  20
ENDBRANCH  17  18
ENDBRANCH   5  17
BRANCH  10  22
HETATM   22  C   UNK N   1      21.814  20.627   2.364  0.00  0.00     0.177 C 
HETATM   23  O   UNK N   1      21.709  20.562   1.150  0.00  0.00    -0.646 OA
BRANCH  22  24
HETATM   24  O   UNK N   1      20.888  21.313   3.063  0.00  0.00    -0.773 OA
HETATM   25  H   UNK N   1      21.125  22.100   3.512  0.00  0.00     0.167 HD
ENDBRANCH  22  24
ENDBRANCH  10  22
TORSDOF 5
ENDMDL
MODEL 7
REMARK VINA RESULT:      -6.4      2.496      3.289
REMARK  5 active torsions:
REMARK  status: ('A' for Active; 'I' for Inactive)
REMARK    1  A    between atoms: N_5  and  C_6 
REMARK    2  A    between atoms: C_6  and  C_7 
REMARK    3  A    between atoms: C_7  and  O_8 
REMARK    4  A    between atoms: C_14  and  C_15 
REMARK    5  A    between atoms: C_15  and  O_17 
ROOT
HETATM    1  C   UNK N   1      22.639  13.275   9.309  0.00  0.00    -0.009 A 
HETATM    2  C   UNK N   1      22.359  13.982   8.127  0.00  0.00     0.068 A 
HETATM    3  C   UNK N   1      21.038  14.387   7.600  0.00  0.00     0.270 A 
HETATM    4  O   UNK N   1      19.980  14.114   8.145  0.00  0.00    -0.266 OA
HETATM    5  N   UNK N   1      21.098  15.036   6.413  0.00  0.00    -0.227 N 
HETATM    6  S   UNK N   1      22.751  15.244   5.856  0.00  0.00     0.270 S 
HETATM    7  O   UNK N   1      22.645  14.652   4.443  0.00  0.00    -0.200 OA
HETATM    8  O   UNK N   1      22.833  16.776   5.792  0.00  0.00    -0.200 OA
HETATM    9  C   UNK N   1      23.388  14.364   7.271  0.00  0.00     0.113 A 
HETATM   10  C   UNK N   1      24.735  14.062   7.558  0.00  0.00     0.062 A 
HETATM   11  C   UNK N   1      25.016  13.355   8.740  0.00  0.00     0.032 A 
HETATM   12  C   UNK N   1      23.989  12.962   9.610  0.00  0.00    -0.024 A 
HETATM   13  C   UNK N   1      24.298  12.257  10.775  0.00  0.00     0.012 A 
HETATM   14  C   UNK N   1      23.279  11.859  11.644  0.00  0.00     0.001 A 
HETATM   15  C   UNK N   1      21.947  12.165  11.352  0.00  0.00     0.001 A 
HETATM   16  C   UNK N   1      21.626  12.870  10.187  0.00  0.00     0.013 A 
ENDROOT
BRANCH   5  17
HETATM   17  C   UNK N   1      19.915  15.351   5.630  0.00  0.00     0.255 C 
BRANCH  17  18
HETATM   18  C   UNK N   1      19.321  14.161   4.941  0.00  0.00     0.159 C 
HETATM   19  O   UNK N   1      18.111  13.998   4.932  0.00  0.00    -0.649 OA
BRANCH  18  20
HETATM   20  O   UNK N   1      20.112  13.319   4.253  0.00  0.00    -0.775 OA
HETATM   21  H   UNK N   1      20.649  12.579   4.457  0.00  0.00     0.167 HD
ENDBRANCH  18  20
ENDBRANCH  17  18
ENDBRANCH   5  17
BRANCH  10  22
HETATM   22  C   UNK N   1      25.857  14.459   6.668  0.00  0.00     0.177 C 
HETATM   23  O   UNK N   1      26.335  15.578   6.753  0.00  0.00    -0.646 OA
BRANCH  22  24
HETATM   24  O   UNK N   1      26.363  13.601   5.762  0.00  0.00    -0.773 OA
HETATM   25  H   UNK N   1      26.792  12.817   6.044  0.00  0.00     0.167 HD
ENDBRANCH  22  24
ENDBRANCH  10  22
TORSDOF 5
ENDMDL
MODEL 8
REMARK VINA RESULT:      -6.4      9.805     12.065
REMARK  5 active torsions:
REMARK  status: ('A' for Active; 'I' for Inactive)
REMARK    1  A    between atoms: N_5  and  C_6 
REMARK    2  A    between atoms: C_6  and  C_7 
REMARK    3  A    between atoms: C_7  and  O_8 
REMARK    4  A    between atoms: C_14  and  C_15 
REMARK    5  A    between atoms: C_15  and  O_17 
ROOT
HETATM    1  C   UNK N   1      30.021  17.393   6.265  0.00  0.00    -0.009 A 
HETATM    2  C   UNK N   1      31.254  16.812   6.603  0.00  0.00     0.068 A 
HETATM    3  C   UNK N   1      31.867  16.690   7.944  0.00  0.00     0.270 A 
HETATM    4  O   UNK N   1      31.358  17.132   8.962  0.00  0.00    -0.266 OA
HETATM    5  N   UNK N   1      33.087  16.101   7.938  0.00  0.00    -0.227 N 
HETATM    6  S   UNK N   1      33.575  15.611   6.322  0.00  0.00     0.270 S 
HETATM    7  O   UNK N   1      34.954  16.282   6.234  0.00  0.00    -0.200 OA
HETATM    8  O   UNK N   1      33.726  14.097   6.524  0.00  0.00    -0.200 OA
HETATM    9  C   UNK N   1      32.081  16.284   5.616  0.00  0.00     0.113 A 
HETATM   10  C   UNK N   1      31.713  16.310   4.256  0.00  0.00     0.062 A 
HETATM   11  C   UNK N   1      30.479  16.893   3.916  0.00  0.00     0.032 A 
HETATM   12  C   UNK N   1      29.638  17.430   4.901  0.00  0.00    -0.024 A 
HETATM   13  C   UNK N   1      28.419  18.005   4.534  0.00  0.00     0.012 A 
HETATM   14  C   UNK N   1      27.577  18.545   5.509  0.00  0.00     0.001 A 
HETATM   15  C   UNK N   1      27.950  18.512   6.857  0.00  0.00     0.001 A 
HETATM   16  C   UNK N   1      29.169  17.939   7.235  0.00  0.00     0.013 A 
ENDROOT
BRANCH   5  17
HETATM   17  C   UNK N   1      33.943  16.056   9.111  0.00  0.00     0.255 C 
BRANCH  17  18
HETATM   18  C   UNK N   1      34.720  17.316   9.332  0.00  0.00     0.159 C 
HETATM   19  O   UNK N   1      35.521  17.389  10.251  0.00  0.00    -0.649 OA
BRANCH  18  20
HETATM   20  O   UNK N   1      34.605  18.337   8.465  0.00  0.00    -0.775 OA
HETATM   21  H   UNK N   1      35.021  19.167   8.341  0.00  0.00     0.167 HD
ENDBRANCH  18  20
ENDBRANCH  17  18
ENDBRANCH   5  17
BRANCH  10  22
HETATM   22  C   UNK N   1      32.570  15.753   3.178  0.00  0.00     0.177 C 
HETATM   23  O   UNK N   1      33.251  16.500   2.494  0.00  0.00    -0.646 OA
BRANCH  22  24
HETATM   24  O   UNK N   1      32.613  14.429   2.936  0.00  0.00    -0.773 OA
HETATM   25  H   UNK N   1      32.366  14.095   2.095  0.00  0.00     0.167 HD
ENDBRANCH  22  24
ENDBRANCH  10  22
TORSDOF 5
ENDMDL
MODEL 9
REMARK VINA RESULT:      -6.3     15.478     17.382
REMARK  5 active torsions:
REMARK  status: ('A' for Active; 'I' for Inactive)
REMARK    1  A    between atoms: N_5  and  C_6 
REMARK    2  A    between atoms: C_6  and  C_7 
REMARK    3  A    between atoms: C_7  and  O_8 
REMARK    4  A    between atoms: C_14  and  C_15 
REMARK    5  A    between atoms: C_15  and  O_17 
ROOT
HETATM    1  C   UNK N   1      35.578  12.089  16.828  0.00  0.00    -0.009 A 
HETATM    2  C   UNK N   1      35.770  11.766  15.475  0.00  0.00     0.068 A 
HETATM    3  C   UNK N   1      35.633  12.653  14.299  0.00  0.00     0.270 A 
HETATM    4  O   UNK N   1      35.288  13.823  14.371  0.00  0.00    -0.266 OA
HETATM    5  N   UNK N   1      35.858  12.033  13.116  0.00  0.00    -0.227 N 
HETATM    6  S   UNK N   1      36.291  10.344  13.328  0.00  0.00     0.270 S 
HETATM    7  O   UNK N   1      35.269   9.676  12.395  0.00  0.00    -0.200 OA
HETATM    8  O   UNK N   1      37.688  10.333  12.691  0.00  0.00    -0.200 OA
HETATM    9  C   UNK N   1      36.106  10.469  15.098  0.00  0.00     0.113 A 
HETATM   10  C   UNK N   1      36.268   9.444  16.051  0.00  0.00     0.062 A 
HETATM   11  C   UNK N   1      36.075   9.765  17.406  0.00  0.00     0.032 A 
HETATM   12  C   UNK N   1      35.734  11.068  17.799  0.00  0.00    -0.024 A 
HETATM   13  C   UNK N   1      35.544  11.356  19.152  0.00  0.00     0.012 A 
HETATM   14  C   UNK N   1      35.202  12.651  19.551  0.00  0.00     0.001 A 
HETATM   15  C   UNK N   1      35.046  13.662  18.598  0.00  0.00     0.001 A 
HETATM   16  C   UNK N   1      35.232  13.383  17.239  0.00  0.00     0.013 A 
ENDROOT
BRANCH   5  17
HETATM   17  C   UNK N   1      35.591  12.666  11.835  0.00  0.00     0.255 C 
BRANCH  17  18
HETATM   18  C   UNK N   1      36.738  13.477  11.319  0.00  0.00     0.159 C 
HETATM   19  O   UNK N   1      36.531  14.476  10.649  0.00  0.00    -0.649 OA
BRANCH  18  20
HETATM   20  O   UNK N   1      37.997  13.158  11.667  0.00  0.00    -0.775 OA
HETATM   21  H   UNK N   1      38.728  12.742  11.254  0.00  0.00     0.167 HD
ENDBRANCH  18  20
ENDBRANCH  17  18
ENDBRANCH   5  17
BRANCH  10  22
HETATM   22  C   UNK N   1      36.630   8.051  15.683  0.00  0.00     0.177 C 
HETATM   23  O   UNK N   1      35.771   7.287  15.272  0.00  0.00    -0.646 OA
BRANCH  22  24
HETATM   24  O   UNK N   1      37.897   7.608  15.793  0.00  0.00    -0.773 OA
HETATM   25  H   UNK N   1      38.596   8.073  15.376  0.00  0.00     0.167 HD
ENDBRANCH  22  24
ENDBRANCH  10  22
TORSDOF 5
ENDMDL
