REMARK  12 active torsions:
REMARK  status: ('A' for Active; 'I' for Inactive)
REMARK    1  A    between atoms: C_2  and  C_7 
REMARK    2  A    between atoms: C_4  and  C_16 
REMARK    3  A    between atoms: C_11  and  C_13 
REMARK    4  A    between atoms: C_12  and  C_31 
REMARK    5  A    between atoms: C_13  and  O_14 
REMARK    6  A    between atoms: C_17  and  O_28 
REMARK    7  A    between atoms: C_21  and  O_27 
REMARK    8  A    between atoms: C_22  and  C_23 
REMARK    9  A    between atoms: C_23  and  O_25 
REMARK   10  A    between atoms: O_28  and  C_29 
REMARK   11  A    between atoms: C_29  and  C_30 
REMARK   12  A    between atoms: C_31  and  O_32 
ROOT
HETATM    1  C   UNK N   1       4.253  -1.562  -0.439  0.00  0.00     0.014 A 
HETATM    2  C   UNK N   1       2.962  -2.082  -0.276  0.00  0.00     0.001 A 
HETATM    3  C   UNK N   1       1.956  -1.263   0.231  0.00  0.00     0.025 A 
HETATM    4  C   UNK N   1       2.215   0.053   0.598  0.00  0.00    -0.036 A 
HETATM    5  C   UNK N   1       3.503   0.573   0.441  0.00  0.00     0.011 A 
HETATM    6  C   UNK N   1       4.512  -0.222  -0.118  0.00  0.00     0.002 A 
ENDROOT
BRANCH   4   7
HETATM    7  C   UNK N   1       1.192   0.801   1.344  0.00  0.00     0.009 C 
HETATM    8  C   UNK N   1      -0.119   0.747   1.084  0.00  0.00     0.000 C 
BRANCH   8   9
HETATM    9  C   UNK N   1      -0.672   0.193  -0.198  0.00  0.00     0.203 C 
BRANCH   9  10
HETATM   10  O   UNK N   1      -0.976   1.268  -1.009  0.00  0.00    -0.346 OA
BRANCH  10  11
HETATM   11  C   UNK N   1      -1.977   2.111  -0.673  0.00  0.00     0.088 A 
HETATM   12  C   UNK N   1      -3.288   1.621  -0.671  0.00  0.00     0.038 A 
HETATM   13  C   UNK N   1      -4.345   2.430  -0.283  0.00  0.00     0.005 A 
HETATM   14  C   UNK N   1      -4.100   3.728   0.147  0.00  0.00     0.038 A 
HETATM   15  C   UNK N   1      -2.802   4.245   0.166  0.00  0.00     0.084 A 
HETATM   16  C   UNK N   1      -1.702   3.454  -0.274  0.00  0.00     0.105 A 
BRANCH  15  17
HETATM   17  O   UNK N   1      -2.634   5.479   0.662  0.00  0.00    -0.360 OA
HETATM   18  H   UNK N   1      -1.828   5.808   1.009  0.00  0.00     0.217 HD
ENDBRANCH  15  17
BRANCH  16  19
HETATM   19  C   UNK N   1      -0.266   3.959  -0.257  0.00  0.00     0.298 C 
HETATM   20  O   UNK N   1       0.643   3.160  -0.418  0.00  0.00    -0.259 OA
BRANCH  19  21
HETATM   21  O   UNK N   1       0.087   5.256  -0.060  0.00  0.00    -0.322 OA
HETATM   22  C   UNK N   1      -0.540   6.324  -0.653  0.00  0.00     0.213 C 
ENDBRANCH  19  21
ENDBRANCH  16  19
ENDBRANCH  10  11
ENDBRANCH   9  10
ENDBRANCH   8   9
ENDBRANCH   4   7
BRANCH   2  23
HETATM   23  C   UNK N   1       2.698  -3.523  -0.381  0.00  0.00     0.120 A 
HETATM   24  O   UNK N   1       3.631  -4.450  -0.369  0.00  0.00    -0.236 OA
HETATM   25  N   UNK N   1       3.110  -5.640  -0.286  0.00  0.00    -0.253 N 
HETATM   26  C   UNK N   1       1.767  -5.496  -0.249  0.00  0.00     0.139 A 
ATOM     27  HN  UNK N   1       3.623  -6.522  -0.255  1.00  0.00     0.195 HD
HETATM   28  C   UNK N   1       1.467  -4.153  -0.331  0.00  0.00     0.037 A 
BRANCH  26  29
HETATM   29  C   UNK N   1       0.829  -6.620  -0.091  0.00  0.00     0.196 C 
HETATM   30  O   UNK N   1      -0.377  -6.425  -0.083  0.00  0.00    -0.645 OA
BRANCH  29  31
HETATM   31  O   UNK N   1       1.300  -7.867   0.093  0.00  0.00    -0.772 OA
HETATM   32  H   UNK N   1       0.712  -8.585   0.222  0.00  0.00     0.167 HD
ENDBRANCH  29  31
ENDBRANCH  26  29
BRANCH  28  33
HETATM   33  C   UNK N   1       0.115  -3.504  -0.337  0.00  0.00     0.208 C 
BRANCH  33  34
HETATM   34  O   UNK N   1      -0.526  -3.690   0.885  0.00  0.00    -0.396 OA
HETATM   35  H   UNK N   1      -0.862  -3.369   1.736  0.00  0.00     0.209 HD
ENDBRANCH  33  34
ENDBRANCH  28  33
ENDBRANCH   2  23
TORSDOF 12
