MODEL 1
REMARK VINA RESULT:      -8.8      0.000      0.000
REMARK  9 active torsions:
REMARK  status: ('A' for Active; 'I' for Inactive)
REMARK    1  A    between atoms: C_1  and  C_9 
REMARK    2  A    between atoms: C_12  and  C_15 
REMARK    3  A    between atoms: C_15  and  C_16 
REMARK    4  A    between atoms: C_16  and  C_17 
REMARK    5  A    between atoms: C_16  and  N_20 
REMARK       I    between atoms: C_17  and  N_19 
REMARK       I    between atoms: N_20  and  C_21 
REMARK    6  A    between atoms: C_21  and  C_22 
REMARK    7  A    between atoms: C_22  and  N_24 
REMARK    8  A    between atoms: C_22  and  C_25 
REMARK       I    between atoms: N_24  and  C_32 
REMARK    9  A    between atoms: C_25  and  C_26 
ROOT
HETATM    1  C   UNK N   1      26.761  20.092   5.274  0.00  0.00     0.180 C 
ENDROOT
BRANCH   1   2
HETATM    2  C   UNK N   1      25.682  18.958   5.402  0.00  0.00     0.073 C 
BRANCH   2   3
HETATM    3  C   UNK N   1      24.729  18.936   4.324  0.00  0.00    -0.056 C 
HETATM    4  C   UNK N   1      23.814  17.895   4.296  0.00  0.00     0.008 C 
HETATM    5  C   UNK N   1      22.582  18.120   3.743  0.00  0.00     0.009 C 
HETATM    6  C   UNK N   1      22.293  19.379   3.200  0.00  0.00    -0.037 C 
HETATM    7  C   UNK N   1      23.307  20.328   3.035  0.00  0.00     0.009 C 
HETATM    8  C   UNK N   1      24.537  20.107   3.613  0.00  0.00     0.008 C 
BRANCH   6   9
HETATM    9  C   UNK N   1      20.856  19.892   3.159  0.00  0.00     0.171 C 
HETATM   10  C   UNK N   1      20.826  21.107   2.274  0.00  0.00     0.130 C 
HETATM   11  C   UNK N   1      20.772  20.369   1.034  0.00  0.00     0.232 C 
HETATM   12  N   UNK N   1      20.256  19.137   1.146  0.00  0.00    -0.254 N 
HETATM   13  O   UNK N   1      21.342  20.738   0.023  0.00  0.00    -0.273 OA
HETATM   14  S   UNK N   1      19.404  18.730   2.648  0.00  0.00     0.241 S 
HETATM   15  H   UNK N   1      20.347  18.479   0.419  0.00  0.00     0.181 HD
HETATM   16  O   UNK N   1      19.602  17.410   1.887  0.00  0.00    -0.205 OA
HETATM   17  O   UNK N   1      20.243  17.873   3.611  0.00  0.00    -0.205 OA
ENDBRANCH   6   9
ENDBRANCH   2   3
ENDBRANCH   1   2
BRANCH   1  18
HETATM   18  C   UNK N   1      27.015  20.928   6.520  0.00  0.00     0.238 C 
HETATM   19  O   UNK N   1      27.782  21.879   6.481  0.00  0.00    -0.271 OA
HETATM   20  N   UNK N   1      26.405  20.621   7.684  0.00  0.00    -0.368 N 
HETATM   21  H   UNK N   1      25.605  20.928   8.169  0.00  0.00     0.159 HD
HETATM   22  H   UNK N   1      26.880  19.909   8.172  0.00  0.00     0.159 HD
ENDBRANCH   1  18
BRANCH   1  23
HETATM   23  N   UNK N   1      27.967  19.417   4.882  0.00  0.00    -0.346 N 
HETATM   24  C   UNK N   1      28.511  18.440   5.669  0.00  0.00     0.241 C 
HETATM   25  O   UNK N   1      28.076  18.199   6.778  0.00  0.00    -0.271 OA
HETATM   26  H   UNK N   1      28.407  19.660   4.035  0.00  0.00     0.163 HD
BRANCH  24  27
HETATM   27  C   UNK N   1      29.579  17.582   5.106  0.00  0.00     0.180 C 
BRANCH  27  28
HETATM   28  N   UNK N   1      29.109  16.696   4.053  0.00  0.00    -0.348 N 
HETATM   29  C   UNK N   1      29.778  16.202   2.963  0.00  0.00     0.214 C 
HETATM   30  O   UNK N   1      29.177  15.494   2.179  0.00  0.00    -0.274 OA
HETATM   31  C   UNK N   1      31.234  16.452   2.700  0.00  0.00     0.117 C 
HETATM   32  H   UNK N   1      28.171  16.408   4.134  0.00  0.00     0.163 HD
ENDBRANCH  27  28
BRANCH  27  33
HETATM   33  C   UNK N   1      30.234  16.737   6.225  0.00  0.00     0.073 C 
BRANCH  33  34
HETATM   34  C   UNK N   1      31.582  17.187   6.748  0.00  0.00    -0.056 A 
HETATM   35  C   UNK N   1      32.721  17.083   5.941  0.00  0.00     0.007 A 
HETATM   36  C   UNK N   1      33.980  17.439   6.446  0.00  0.00     0.001 A 
HETATM   37  C   UNK N   1      34.108  17.892   7.763  0.00  0.00     0.000 A 
HETATM   38  C   UNK N   1      32.980  17.977   8.580  0.00  0.00     0.001 A 
HETATM   39  C   UNK N   1      31.726  17.613   8.077  0.00  0.00     0.007 A 
ENDBRANCH  33  34
ENDBRANCH  27  33
ENDBRANCH  24  27
ENDBRANCH   1  23
TORSDOF 9
ENDMDL
MODEL 2
REMARK VINA RESULT:      -8.6      8.678     13.028
REMARK  9 active torsions:
REMARK  status: ('A' for Active; 'I' for Inactive)
REMARK    1  A    between atoms: C_1  and  C_9 
REMARK    2  A    between atoms: C_12  and  C_15 
REMARK    3  A    between atoms: C_15  and  C_16 
REMARK    4  A    between atoms: C_16  and  C_17 
REMARK    5  A    between atoms: C_16  and  N_20 
REMARK       I    between atoms: C_17  and  N_19 
REMARK       I    between atoms: N_20  and  C_21 
REMARK    6  A    between atoms: C_21  and  C_22 
REMARK    7  A    between atoms: C_22  and  N_24 
REMARK    8  A    between atoms: C_22  and  C_25 
REMARK       I    between atoms: N_24  and  C_32 
REMARK    9  A    between atoms: C_25  and  C_26 
ROOT
HETATM    1  C   UNK N   1      36.045  14.361  11.351  0.00  0.00     0.180 C 
ENDROOT
BRANCH   1   2
HETATM    2  C   UNK N   1      35.858  15.858  10.917  0.00  0.00     0.073 C 
BRANCH   2   3
HETATM    3  C   UNK N   1      34.685  16.091  10.117  0.00  0.00    -0.056 C 
HETATM    4  C   UNK N   1      34.725  17.132   9.203  0.00  0.00     0.008 C 
HETATM    5  C   UNK N   1      33.980  17.030   8.060  0.00  0.00     0.009 C 
HETATM    6  C   UNK N   1      33.181  15.896   7.860  0.00  0.00    -0.037 C 
HETATM    7  C   UNK N   1      32.983  14.980   8.897  0.00  0.00     0.009 C 
HETATM    8  C   UNK N   1      33.751  15.073  10.036  0.00  0.00     0.008 C 
BRANCH   6   9
HETATM    9  C   UNK N   1      32.854  15.420   6.448  0.00  0.00     0.171 C 
HETATM   10  C   UNK N   1      31.394  15.064   6.409  0.00  0.00     0.130 C 
HETATM   11  C   UNK N   1      30.929  16.420   6.236  0.00  0.00     0.232 C 
HETATM   12  N   UNK N   1      31.826  17.244   5.676  0.00  0.00    -0.254 N 
HETATM   13  O   UNK N   1      29.906  16.836   6.750  0.00  0.00    -0.273 OA
HETATM   14  S   UNK N   1      33.254  16.518   4.914  0.00  0.00     0.241 S 
HETATM   15  H   UNK N   1      31.696  18.220   5.687  0.00  0.00     0.181 HD
HETATM   16  O   UNK N   1      33.525  18.028   5.000  0.00  0.00    -0.205 OA
HETATM   17  O   UNK N   1      34.521  16.615   5.780  0.00  0.00    -0.205 OA
ENDBRANCH   6   9
ENDBRANCH   2   3
ENDBRANCH   1   2
BRANCH   1  18
HETATM   18  C   UNK N   1      37.115  13.571  10.610  0.00  0.00     0.238 C 
HETATM   19  O   UNK N   1      36.938  13.231   9.449  0.00  0.00    -0.271 OA
HETATM   20  N   UNK N   1      38.262  13.226  11.230  0.00  0.00    -0.368 N 
HETATM   21  H   UNK N   1      39.178  13.585  11.279  0.00  0.00     0.159 HD
HETATM   22  H   UNK N   1      38.158  12.409  11.771  0.00  0.00     0.159 HD
ENDBRANCH   1  18
BRANCH   1  23
HETATM   23  N   UNK N   1      36.357  14.415  12.752  0.00  0.00    -0.346 N 
HETATM   24  C   UNK N   1      35.676  13.642  13.651  0.00  0.00     0.241 C 
HETATM   25  O   UNK N   1      34.707  12.987  13.324  0.00  0.00    -0.271 OA
HETATM   26  H   UNK N   1      37.070  15.015  13.069  0.00  0.00     0.163 HD
BRANCH  24  27
HETATM   27  C   UNK N   1      36.205  13.515  15.029  0.00  0.00     0.180 C 
BRANCH  27  28
HETATM   28  N   UNK N   1      37.185  14.538  15.364  0.00  0.00    -0.348 N 
HETATM   29  C   UNK N   1      37.224  15.392  16.436  0.00  0.00     0.214 C 
HETATM   30  O   UNK N   1      38.127  16.203  16.505  0.00  0.00    -0.274 OA
HETATM   31  C   UNK N   1      36.233  15.357  17.561  0.00  0.00     0.117 C 
HETATM   32  H   UNK N   1      37.929  14.631  14.727  0.00  0.00     0.163 HD
ENDBRANCH  27  28
BRANCH  27  33
HETATM   33  C   UNK N   1      36.841  12.119  15.234  0.00  0.00     0.073 C 
BRANCH  33  34
HETATM   34  C   UNK N   1      36.171  11.180  16.215  0.00  0.00    -0.056 A 
HETATM   35  C   UNK N   1      35.887   9.860  15.845  0.00  0.00     0.007 A 
HETATM   36  C   UNK N   1      35.210   9.008  16.729  0.00  0.00     0.001 A 
HETATM   37  C   UNK N   1      34.804   9.473  17.983  0.00  0.00     0.000 A 
HETATM   38  C   UNK N   1      35.065  10.795  18.351  0.00  0.00     0.001 A 
HETATM   39  C   UNK N   1      35.733  11.645  17.464  0.00  0.00     0.007 A 
ENDBRANCH  33  34
ENDBRANCH  27  33
ENDBRANCH  24  27
ENDBRANCH   1  23
TORSDOF 9
ENDMDL
MODEL 3
REMARK VINA RESULT:      -8.5      9.067     13.246
REMARK  9 active torsions:
REMARK  status: ('A' for Active; 'I' for Inactive)
REMARK    1  A    between atoms: C_1  and  C_9 
REMARK    2  A    between atoms: C_12  and  C_15 
REMARK    3  A    between atoms: C_15  and  C_16 
REMARK    4  A    between atoms: C_16  and  C_17 
REMARK    5  A    between atoms: C_16  and  N_20 
REMARK       I    between atoms: C_17  and  N_19 
REMARK       I    between atoms: N_20  and  C_21 
REMARK    6  A    between atoms: C_21  and  C_22 
REMARK    7  A    between atoms: C_22  and  N_24 
REMARK    8  A    between atoms: C_22  and  C_25 
REMARK       I    between atoms: N_24  and  C_32 
REMARK    9  A    between atoms: C_25  and  C_26 
ROOT
HETATM    1  C   UNK N   1      36.421  14.409  11.060  0.00  0.00     0.180 C 
ENDROOT
BRANCH   1   2
HETATM    2  C   UNK N   1      36.135  15.928  10.789  0.00  0.00     0.073 C 
BRANCH   2   3
HETATM    3  C   UNK N   1      34.894  16.175  10.102  0.00  0.00    -0.056 C 
HETATM    4  C   UNK N   1      34.786  17.346   9.369  0.00  0.00     0.008 C 
HETATM    5  C   UNK N   1      33.976  17.356   8.266  0.00  0.00     0.009 C 
HETATM    6  C   UNK N   1      33.262  16.199   7.926  0.00  0.00    -0.037 C 
HETATM    7  C   UNK N   1      33.212  15.116   8.809  0.00  0.00     0.009 C 
HETATM    8  C   UNK N   1      34.045  15.100   9.906  0.00  0.00     0.008 C 
BRANCH   6   9
HETATM    9  C   UNK N   1      32.881  15.924   6.475  0.00  0.00     0.171 C 
HETATM   10  C   UNK N   1      34.012  16.397   5.604  0.00  0.00     0.130 C 
HETATM   11  C   UNK N   1      34.824  15.217   5.786  0.00  0.00     0.232 C 
HETATM   12  N   UNK N   1      34.133  14.114   6.105  0.00  0.00    -0.254 N 
HETATM   13  O   UNK N   1      36.039  15.260   5.864  0.00  0.00    -0.273 OA
HETATM   14  S   UNK N   1      32.370  14.155   5.902  0.00  0.00     0.241 S 
HETATM   15  H   UNK N   1      34.588  13.307   6.439  0.00  0.00     0.181 HD
HETATM   16  O   UNK N   1      32.689  12.881   6.701  0.00  0.00    -0.205 OA
HETATM   17  O   UNK N   1      31.611  14.350   7.226  0.00  0.00    -0.205 OA
ENDBRANCH   6   9
ENDBRANCH   2   3
ENDBRANCH   1   2
BRANCH   1  18
HETATM   18  C   UNK N   1      37.578  13.790  10.287  0.00  0.00     0.238 C 
HETATM   19  O   UNK N   1      37.579  12.595  10.029  0.00  0.00    -0.271 OA
HETATM   20  N   UNK N   1      38.619  14.551   9.891  0.00  0.00    -0.368 N 
HETATM   21  H   UNK N   1      38.884  15.015   9.064  0.00  0.00     0.159 HD
HETATM   22  H   UNK N   1      39.280  14.674  10.611  0.00  0.00     0.159 HD
ENDBRANCH   1  18
BRANCH   1  23
HETATM   23  N   UNK N   1      36.671  14.323  12.472  0.00  0.00    -0.346 N 
HETATM   24  C   UNK N   1      35.717  13.841  13.324  0.00  0.00     0.241 C 
HETATM   25  O   UNK N   1      34.589  13.594  12.945  0.00  0.00    -0.271 OA
HETATM   26  H   UNK N   1      37.541  14.614  12.830  0.00  0.00     0.163 HD
BRANCH  24  27
HETATM   27  C   UNK N   1      36.104  13.507  14.714  0.00  0.00     0.180 C 
BRANCH  27  28
HETATM   28  N   UNK N   1      37.329  12.727  14.797  0.00  0.00    -0.348 N 
HETATM   29  C   UNK N   1      37.601  11.473  14.313  0.00  0.00     0.214 C 
HETATM   30  O   UNK N   1      38.695  10.988  14.525  0.00  0.00    -0.274 OA
HETATM   31  C   UNK N   1      36.632  10.672  13.494  0.00  0.00     0.117 C 
HETATM   32  H   UNK N   1      38.075  13.163  15.269  0.00  0.00     0.163 HD
ENDBRANCH  27  28
BRANCH  27  33
HETATM   33  C   UNK N   1      34.964  12.735  15.419  0.00  0.00     0.073 C 
BRANCH  33  34
HETATM   34  C   UNK N   1      35.076  12.526  16.915  0.00  0.00    -0.056 A 
HETATM   35  C   UNK N   1      35.048  13.624  17.783  0.00  0.00     0.007 A 
HETATM   36  C   UNK N   1      35.216  13.438  19.163  0.00  0.00     0.001 A 
HETATM   37  C   UNK N   1      35.423  12.156  19.681  0.00  0.00     0.000 A 
HETATM   38  C   UNK N   1      35.473  11.059  18.819  0.00  0.00     0.001 A 
HETATM   39  C   UNK N   1      35.314  11.248  17.442  0.00  0.00     0.007 A 
ENDBRANCH  33  34
ENDBRANCH  27  33
ENDBRANCH  24  27
ENDBRANCH   1  23
TORSDOF 9
ENDMDL
MODEL 4
REMARK VINA RESULT:      -8.5      4.842      7.384
REMARK  9 active torsions:
REMARK  status: ('A' for Active; 'I' for Inactive)
REMARK    1  A    between atoms: C_1  and  C_9 
REMARK    2  A    between atoms: C_12  and  C_15 
REMARK    3  A    between atoms: C_15  and  C_16 
REMARK    4  A    between atoms: C_16  and  C_17 
REMARK    5  A    between atoms: C_16  and  N_20 
REMARK       I    between atoms: C_17  and  N_19 
REMARK       I    between atoms: N_20  and  C_21 
REMARK    6  A    between atoms: C_21  and  C_22 
REMARK    7  A    between atoms: C_22  and  N_24 
REMARK    8  A    between atoms: C_22  and  C_25 
REMARK       I    between atoms: N_24  and  C_32 
REMARK    9  A    between atoms: C_25  and  C_26 
ROOT
HETATM    1  C   UNK N   1      32.672  16.876   7.736  0.00  0.00     0.180 C 
ENDROOT
BRANCH   1   2
HETATM    2  C   UNK N   1      31.523  17.529   8.583  0.00  0.00     0.073 C 
BRANCH   2   3
HETATM    3  C   UNK N   1      30.242  17.527   7.927  0.00  0.00    -0.056 C 
HETATM    4  C   UNK N   1      29.282  18.415   8.387  0.00  0.00     0.008 C 
HETATM    5  C   UNK N   1      28.357  18.898   7.501  0.00  0.00     0.009 C 
HETATM    6  C   UNK N   1      28.389  18.463   6.169  0.00  0.00    -0.037 C 
HETATM    7  C   UNK N   1      29.216  17.400   5.793  0.00  0.00     0.009 C 
HETATM    8  C   UNK N   1      30.160  16.932   6.680  0.00  0.00     0.008 C 
BRANCH   6   9
HETATM    9  C   UNK N   1      27.866  19.359   5.051  0.00  0.00     0.171 C 
HETATM   10  C   UNK N   1      27.129  18.489   4.071  0.00  0.00     0.130 C 
HETATM   11  C   UNK N   1      25.901  18.441   4.830  0.00  0.00     0.232 C 
HETATM   12  N   UNK N   1      25.721  19.482   5.654  0.00  0.00    -0.254 N 
HETATM   13  O   UNK N   1      25.201  17.446   4.887  0.00  0.00    -0.273 OA
HETATM   14  S   UNK N   1      26.771  20.897   5.443  0.00  0.00     0.241 S 
HETATM   15  H   UNK N   1      25.028  19.463   6.354  0.00  0.00     0.181 HD
HETATM   16  O   UNK N   1      26.035  21.095   6.777  0.00  0.00    -0.205 OA
HETATM   17  O   UNK N   1      27.904  20.974   6.480  0.00  0.00    -0.205 OA
ENDBRANCH   6   9
ENDBRANCH   2   3
ENDBRANCH   1   2
BRANCH   1  18
HETATM   18  C   UNK N   1      33.852  17.774   7.390  0.00  0.00     0.238 C 
HETATM   19  O   UNK N   1      34.329  17.761   6.265  0.00  0.00    -0.271 OA
HETATM   20  N   UNK N   1      34.391  18.582   8.326  0.00  0.00    -0.368 N 
HETATM   21  H   UNK N   1      34.304  19.529   8.581  0.00  0.00     0.159 HD
HETATM   22  H   UNK N   1      35.035  18.105   8.898  0.00  0.00     0.159 HD
ENDBRANCH   1  18
BRANCH   1  23
HETATM   23  N   UNK N   1      33.119  15.755   8.515  0.00  0.00    -0.346 N 
HETATM   24  C   UNK N   1      32.824  14.475   8.135  0.00  0.00     0.241 C 
HETATM   25  O   UNK N   1      32.072  14.242   7.209  0.00  0.00    -0.271 OA
HETATM   26  H   UNK N   1      33.645  15.910   9.332  0.00  0.00     0.163 HD
BRANCH  24  27
HETATM   27  C   UNK N   1      33.529  13.353   8.796  0.00  0.00     0.180 C 
BRANCH  27  28
HETATM   28  N   UNK N   1      32.641  12.271   9.193  0.00  0.00    -0.348 N 
HETATM   29  C   UNK N   1      32.881  10.923   9.259  0.00  0.00     0.214 C 
HETATM   30  O   UNK N   1      31.975  10.183   9.588  0.00  0.00    -0.274 OA
HETATM   31  C   UNK N   1      34.221  10.305   8.986  0.00  0.00     0.117 C 
HETATM   32  H   UNK N   1      31.732  12.548   9.452  0.00  0.00     0.163 HD
ENDBRANCH  27  28
BRANCH  27  33
HETATM   33  C   UNK N   1      34.298  13.859  10.040  0.00  0.00     0.073 C 
BRANCH  33  34
HETATM   34  C   UNK N   1      35.788  13.595  10.101  0.00  0.00    -0.056 A 
HETATM   35  C   UNK N   1      36.350  12.987  11.229  0.00  0.00     0.007 A 
HETATM   36  C   UNK N   1      37.737  12.800  11.315  0.00  0.00     0.001 A 
HETATM   37  C   UNK N   1      38.570  13.229  10.277  0.00  0.00     0.000 A 
HETATM   38  C   UNK N   1      38.019  13.856   9.158  0.00  0.00     0.001 A 
HETATM   39  C   UNK N   1      36.636  14.049   9.079  0.00  0.00     0.007 A 
ENDBRANCH  33  34
ENDBRANCH  27  33
ENDBRANCH  24  27
ENDBRANCH   1  23
TORSDOF 9
ENDMDL
MODEL 5
REMARK VINA RESULT:      -8.4     11.433     13.516
REMARK  9 active torsions:
REMARK  status: ('A' for Active; 'I' for Inactive)
REMARK    1  A    between atoms: C_1  and  C_9 
REMARK    2  A    between atoms: C_12  and  C_15 
REMARK    3  A    between atoms: C_15  and  C_16 
REMARK    4  A    between atoms: C_16  and  C_17 
REMARK    5  A    between atoms: C_16  and  N_20 
REMARK       I    between atoms: C_17  and  N_19 
REMARK       I    between atoms: N_20  and  C_21 
REMARK    6  A    between atoms: C_21  and  C_22 
REMARK    7  A    between atoms: C_22  and  N_24 
REMARK    8  A    between atoms: C_22  and  C_25 
REMARK       I    between atoms: N_24  and  C_32 
REMARK    9  A    between atoms: C_25  and  C_26 
ROOT
HETATM    1  C   UNK N   1      25.983  23.916  -6.556  0.00  0.00     0.180 C 
ENDROOT
BRANCH   1   2
HETATM    2  C   UNK N   1      25.700  25.037  -7.619  0.00  0.00     0.073 C 
BRANCH   2   3
HETATM    3  C   UNK N   1      25.895  26.374  -7.123  0.00  0.00    -0.056 C 
HETATM    4  C   UNK N   1      25.188  26.749  -5.991  0.00  0.00     0.008 C 
HETATM    5  C   UNK N   1      25.741  27.677  -5.151  0.00  0.00     0.009 C 
HETATM    6  C   UNK N   1      26.985  28.238  -5.470  0.00  0.00    -0.037 C 
HETATM    7  C   UNK N   1      27.559  28.015  -6.725  0.00  0.00     0.009 C 
HETATM    8  C   UNK N   1      27.013  27.064  -7.558  0.00  0.00     0.008 C 
BRANCH   6   9
HETATM    9  C   UNK N   1      27.911  28.744  -4.368  0.00  0.00     0.171 C 
HETATM   10  C   UNK N   1      29.182  29.218  -5.016  0.00  0.00     0.130 C 
HETATM   11  C   UNK N   1      28.663  30.510  -5.399  0.00  0.00     0.232 C 
HETATM   12  N   UNK N   1      27.643  30.942  -4.645  0.00  0.00    -0.254 N 
HETATM   13  O   UNK N   1      28.970  31.059  -6.442  0.00  0.00    -0.273 OA
HETATM   14  S   UNK N   1      27.324  30.092  -3.121  0.00  0.00     0.241 S 
HETATM   15  H   UNK N   1      27.090  31.706  -4.927  0.00  0.00     0.181 HD
HETATM   16  O   UNK N   1      26.116  31.010  -3.370  0.00  0.00    -0.205 OA
HETATM   17  O   UNK N   1      26.134  29.120  -3.204  0.00  0.00    -0.205 OA
ENDBRANCH   6   9
ENDBRANCH   2   3
ENDBRANCH   1   2
BRANCH   1  18
HETATM   18  C   UNK N   1      25.713  22.484  -6.996  0.00  0.00     0.238 C 
HETATM   19  O   UNK N   1      24.657  21.939  -6.709  0.00  0.00    -0.271 OA
HETATM   20  N   UNK N   1      26.641  21.798  -7.694  0.00  0.00    -0.368 N 
HETATM   21  H   UNK N   1      26.810  21.597  -8.643  0.00  0.00     0.159 HD
HETATM   22  H   UNK N   1      27.322  21.396  -7.106  0.00  0.00     0.159 HD
ENDBRANCH   1  18
BRANCH   1  23
HETATM   23  N   UNK N   1      27.368  24.072  -6.210  0.00  0.00    -0.346 N 
HETATM   24  C   UNK N   1      27.757  24.159  -4.902  0.00  0.00     0.241 C 
HETATM   25  O   UNK N   1      26.948  24.240  -3.999  0.00  0.00    -0.271 OA
HETATM   26  H   UNK N   1      28.045  24.115  -6.922  0.00  0.00     0.163 HD
BRANCH  24  27
HETATM   27  C   UNK N   1      29.197  24.036  -4.576  0.00  0.00     0.180 C 
BRANCH  27  28
HETATM   28  N   UNK N   1      29.450  23.878  -3.152  0.00  0.00    -0.348 N 
HETATM   29  C   UNK N   1      30.313  23.030  -2.507  0.00  0.00     0.214 C 
HETATM   30  O   UNK N   1      30.343  23.038  -1.292  0.00  0.00    -0.274 OA
HETATM   31  C   UNK N   1      31.261  22.112  -3.220  0.00  0.00     0.117 C 
HETATM   32  H   UNK N   1      28.925  24.467  -2.564  0.00  0.00     0.163 HD
ENDBRANCH  27  28
BRANCH  27  33
HETATM   33  C   UNK N   1      29.973  25.270  -5.095  0.00  0.00     0.073 C 
BRANCH  33  34
HETATM   34  C   UNK N   1      31.412  25.067  -5.520  0.00  0.00    -0.056 A 
HETATM   35  C   UNK N   1      31.714  24.254  -6.619  0.00  0.00     0.007 A 
HETATM   36  C   UNK N   1      33.049  24.013  -6.974  0.00  0.00     0.001 A 
HETATM   37  C   UNK N   1      34.089  24.575  -6.228  0.00  0.00     0.000 A 
HETATM   38  C   UNK N   1      33.796  25.369  -5.117  0.00  0.00     0.001 A 
HETATM   39  C   UNK N   1      32.463  25.601  -4.759  0.00  0.00     0.007 A 
ENDBRANCH  33  34
ENDBRANCH  27  33
ENDBRANCH  24  27
ENDBRANCH   1  23
TORSDOF 9
ENDMDL
MODEL 6
REMARK VINA RESULT:      -8.3     10.679     13.127
REMARK  9 active torsions:
REMARK  status: ('A' for Active; 'I' for Inactive)
REMARK    1  A    between atoms: C_1  and  C_9 
REMARK    2  A    between atoms: C_12  and  C_15 
REMARK    3  A    between atoms: C_15  and  C_16 
REMARK    4  A    between atoms: C_16  and  C_17 
REMARK    5  A    between atoms: C_16  and  N_20 
REMARK       I    between atoms: C_17  and  N_19 
REMARK       I    between atoms: N_20  and  C_21 
REMARK    6  A    between atoms: C_21  and  C_22 
REMARK    7  A    between atoms: C_22  and  N_24 
REMARK    8  A    between atoms: C_22  and  C_25 
REMARK       I    between atoms: N_24  and  C_32 
REMARK    9  A    between atoms: C_25  and  C_26 
ROOT
HETATM    1  C   UNK N   1      30.684  22.212  -3.767  0.00  0.00     0.180 C 
ENDROOT
BRANCH   1   2
HETATM    2  C   UNK N   1      29.480  22.573  -2.826  0.00  0.00     0.073 C 
BRANCH   2   3
HETATM    3  C   UNK N   1      28.887  23.855  -3.103  0.00  0.00    -0.056 C 
HETATM    4  C   UNK N   1      29.650  24.779  -3.800  0.00  0.00     0.008 C 
HETATM    5  C   UNK N   1      29.010  25.688  -4.599  0.00  0.00     0.009 C 
HETATM    6  C   UNK N   1      27.611  25.677  -4.668  0.00  0.00    -0.037 C 
HETATM    7  C   UNK N   1      26.866  24.892  -3.782  0.00  0.00     0.009 C 
HETATM    8  C   UNK N   1      27.512  23.963  -2.996  0.00  0.00     0.008 C 
BRANCH   6   9
HETATM    9  C   UNK N   1      26.895  26.169  -5.922  0.00  0.00     0.171 C 
HETATM   10  C   UNK N   1      25.453  26.405  -5.566  0.00  0.00     0.130 C 
HETATM   11  C   UNK N   1      25.671  27.707  -4.980  0.00  0.00     0.232 C 
HETATM   12  N   UNK N   1      26.758  28.343  -5.435  0.00  0.00    -0.254 N 
HETATM   13  O   UNK N   1      25.056  28.100  -4.005  0.00  0.00    -0.273 OA
HETATM   14  S   UNK N   1      27.541  27.704  -6.894  0.00  0.00     0.241 S 
HETATM   15  H   UNK N   1      27.112  29.139  -4.975  0.00  0.00     0.181 HD
HETATM   16  O   UNK N   1      28.507  28.740  -6.298  0.00  0.00    -0.205 OA
HETATM   17  O   UNK N   1      28.812  26.892  -6.596  0.00  0.00    -0.205 OA
ENDBRANCH   6   9
ENDBRANCH   2   3
ENDBRANCH   1   2
BRANCH   1  18
HETATM   18  C   UNK N   1      31.787  21.359  -3.156  0.00  0.00     0.238 C 
HETATM   19  O   UNK N   1      32.310  21.688  -2.101  0.00  0.00    -0.271 OA
HETATM   20  N   UNK N   1      32.207  20.238  -3.778  0.00  0.00    -0.368 N 
HETATM   21  H   UNK N   1      32.019  19.274  -3.708  0.00  0.00     0.159 HD
HETATM   22  H   UNK N   1      32.868  20.433  -4.482  0.00  0.00     0.159 HD
ENDBRANCH   1  18
BRANCH   1  23
HETATM   23  N   UNK N   1      30.094  21.527  -4.883  0.00  0.00    -0.346 N 
HETATM   24  C   UNK N   1      30.370  21.911  -6.166  0.00  0.00     0.241 C 
HETATM   25  O   UNK N   1      31.011  22.914  -6.407  0.00  0.00    -0.271 OA
HETATM   26  H   UNK N   1      29.483  20.772  -4.722  0.00  0.00     0.163 HD
BRANCH  24  27
HETATM   27  C   UNK N   1      29.973  21.018  -7.279  0.00  0.00     0.180 C 
BRANCH  27  28
HETATM   28  N   UNK N   1      31.106  20.506  -8.035  0.00  0.00    -0.348 N 
HETATM   29  C   UNK N   1      31.254  19.307  -8.683  0.00  0.00     0.214 C 
HETATM   30  O   UNK N   1      32.311  19.065  -9.232  0.00  0.00    -0.274 OA
HETATM   31  C   UNK N   1      30.163  18.283  -8.791  0.00  0.00     0.117 C 
HETATM   32  H   UNK N   1      31.882  21.109  -8.089  0.00  0.00     0.163 HD
ENDBRANCH  27  28
BRANCH  27  33
HETATM   33  C   UNK N   1      29.013  21.756  -8.243  0.00  0.00     0.073 C 
BRANCH  33  34
HETATM   34  C   UNK N   1      27.540  21.773  -7.891  0.00  0.00    -0.056 A 
HETATM   35  C   UNK N   1      27.050  22.693  -6.958  0.00  0.00     0.007 A 
HETATM   36  C   UNK N   1      25.699  22.668  -6.583  0.00  0.00     0.001 A 
HETATM   37  C   UNK N   1      24.833  21.716  -7.132  0.00  0.00     0.000 A 
HETATM   38  C   UNK N   1      25.320  20.782  -8.048  0.00  0.00     0.001 A 
HETATM   39  C   UNK N   1      26.670  20.803  -8.414  0.00  0.00     0.007 A 
ENDBRANCH  33  34
ENDBRANCH  27  33
ENDBRANCH  24  27
ENDBRANCH   1  23
TORSDOF 9
ENDMDL
MODEL 7
REMARK VINA RESULT:      -8.3      3.464      7.486
REMARK  9 active torsions:
REMARK  status: ('A' for Active; 'I' for Inactive)
REMARK    1  A    between atoms: C_1  and  C_9 
REMARK    2  A    between atoms: C_12  and  C_15 
REMARK    3  A    between atoms: C_15  and  C_16 
REMARK    4  A    between atoms: C_16  and  C_17 
REMARK    5  A    between atoms: C_16  and  N_20 
REMARK       I    between atoms: C_17  and  N_19 
REMARK       I    between atoms: N_20  and  C_21 
REMARK    6  A    between atoms: C_21  and  C_22 
REMARK    7  A    between atoms: C_22  and  N_24 
REMARK    8  A    between atoms: C_22  and  C_25 
REMARK       I    between atoms: N_24  and  C_32 
REMARK    9  A    between atoms: C_25  and  C_26 
ROOT
HETATM    1  C   UNK N   1      25.156  19.650   3.910  0.00  0.00     0.180 C 
ENDROOT
BRANCH   1   2
HETATM    2  C   UNK N   1      26.493  20.459   3.753  0.00  0.00     0.073 C 
BRANCH   2   3
HETATM    3  C   UNK N   1      27.505  20.104   4.714  0.00  0.00    -0.056 C 
HETATM    4  C   UNK N   1      27.272  20.425   6.042  0.00  0.00     0.008 C 
HETATM    5  C   UNK N   1      27.816  19.628   7.013  0.00  0.00     0.009 C 
HETATM    6  C   UNK N   1      28.610  18.535   6.641  0.00  0.00    -0.037 C 
HETATM    7  C   UNK N   1      29.014  18.377   5.312  0.00  0.00     0.009 C 
HETATM    8  C   UNK N   1      28.448  19.165   4.335  0.00  0.00     0.008 C 
BRANCH   6   9
HETATM    9  C   UNK N   1      28.710  17.310   7.543  0.00  0.00     0.171 C 
HETATM   10  C   UNK N   1      29.790  16.420   6.994  0.00  0.00     0.130 C 
HETATM   11  C   UNK N   1      30.883  17.152   7.590  0.00  0.00     0.232 C 
HETATM   12  N   UNK N   1      30.550  17.846   8.686  0.00  0.00    -0.254 N 
HETATM   13  O   UNK N   1      31.954  17.307   7.030  0.00  0.00    -0.273 OA
HETATM   14  S   UNK N   1      28.984  17.497   9.443  0.00  0.00     0.241 S 
HETATM   15  H   UNK N   1      31.155  18.528   9.060  0.00  0.00     0.181 HD
HETATM   16  O   UNK N   1      29.509  18.782  10.101  0.00  0.00    -0.205 OA
HETATM   17  O   UNK N   1      27.904  18.544   9.119  0.00  0.00    -0.205 OA
ENDBRANCH   6   9
ENDBRANCH   2   3
ENDBRANCH   1   2
BRANCH   1  18
HETATM   18  C   UNK N   1      23.960  20.161   3.119  0.00  0.00     0.238 C 
HETATM   19  O   UNK N   1      24.116  20.971   2.217  0.00  0.00    -0.271 OA
HETATM   20  N   UNK N   1      22.714  19.736   3.414  0.00  0.00    -0.368 N 
HETATM   21  H   UNK N   1      22.098  19.049   3.069  0.00  0.00     0.159 HD
HETATM   22  H   UNK N   1      22.322  20.238   4.165  0.00  0.00     0.159 HD
ENDBRANCH   1  18
BRANCH   1  23
HETATM   23  N   UNK N   1      25.480  18.312   3.501  0.00  0.00    -0.346 N 
HETATM   24  C   UNK N   1      24.870  17.235   4.082  0.00  0.00     0.241 C 
HETATM   25  O   UNK N   1      24.137  17.358   5.043  0.00  0.00    -0.271 OA
HETATM   26  H   UNK N   1      26.150  18.168   2.794  0.00  0.00     0.163 HD
BRANCH  24  27
HETATM   27  C   UNK N   1      25.018  15.903   3.450  0.00  0.00     0.180 C 
BRANCH  27  28
HETATM   28  N   UNK N   1      23.748  15.227   3.233  0.00  0.00    -0.348 N 
HETATM   29  C   UNK N   1      23.298  14.544   2.132  0.00  0.00     0.214 C 
HETATM   30  O   UNK N   1      22.176  14.078   2.151  0.00  0.00    -0.274 OA
HETATM   31  C   UNK N   1      24.133  14.300   0.910  0.00  0.00     0.117 C 
HETATM   32  H   UNK N   1      23.118  15.264   3.989  0.00  0.00     0.163 HD
ENDBRANCH  27  28
BRANCH  27  33
HETATM   33  C   UNK N   1      25.933  14.999   4.309  0.00  0.00     0.073 C 
BRANCH  33  34
HETATM   34  C   UNK N   1      27.394  14.907   3.920  0.00  0.00    -0.056 A 
HETATM   35  C   UNK N   1      28.260  14.065   4.628  0.00  0.00     0.007 A 
HETATM   36  C   UNK N   1      29.625  14.026   4.312  0.00  0.00     0.001 A 
HETATM   37  C   UNK N   1      30.134  14.836   3.291  0.00  0.00     0.000 A 
HETATM   38  C   UNK N   1      29.281  15.694   2.595  0.00  0.00     0.001 A 
HETATM   39  C   UNK N   1      27.921  15.737   2.919  0.00  0.00     0.007 A 
ENDBRANCH  33  34
ENDBRANCH  27  33
ENDBRANCH  24  27
ENDBRANCH   1  23
TORSDOF 9
ENDMDL
MODEL 8
REMARK VINA RESULT:      -8.3      1.427      3.320
REMARK  9 active torsions:
REMARK  status: ('A' for Active; 'I' for Inactive)
REMARK    1  A    between atoms: C_1  and  C_9 
REMARK    2  A    between atoms: C_12  and  C_15 
REMARK    3  A    between atoms: C_15  and  C_16 
REMARK    4  A    between atoms: C_16  and  C_17 
REMARK    5  A    between atoms: C_16  and  N_20 
REMARK       I    between atoms: C_17  and  N_19 
REMARK       I    between atoms: N_20  and  C_21 
REMARK    6  A    between atoms: C_21  and  C_22 
REMARK    7  A    between atoms: C_22  and  N_24 
REMARK    8  A    between atoms: C_22  and  C_25 
REMARK       I    between atoms: N_24  and  C_32 
REMARK    9  A    between atoms: C_25  and  C_26 
ROOT
HETATM    1  C   UNK N   1      27.002  19.772   5.242  0.00  0.00     0.180 C 
ENDROOT
BRANCH   1   2
HETATM    2  C   UNK N   1      25.865  18.699   5.390  0.00  0.00     0.073 C 
BRANCH   2   3
HETATM    3  C   UNK N   1      24.889  18.735   4.333  0.00  0.00    -0.056 C 
HETATM    4  C   UNK N   1      23.958  17.710   4.283  0.00  0.00     0.008 C 
HETATM    5  C   UNK N   1      22.718  17.974   3.765  0.00  0.00     0.009 C 
HETATM    6  C   UNK N   1      22.437  19.258   3.280  0.00  0.00    -0.037 C 
HETATM    7  C   UNK N   1      23.462  20.198   3.131  0.00  0.00     0.009 C 
HETATM    8  C   UNK N   1      24.701  19.936   3.673  0.00  0.00     0.008 C 
BRANCH   6   9
HETATM    9  C   UNK N   1      21.008  19.793   3.290  0.00  0.00     0.171 C 
HETATM   10  C   UNK N   1      20.983  21.056   2.476  0.00  0.00     0.130 C 
HETATM   11  C   UNK N   1      20.900  20.391   1.197  0.00  0.00     0.232 C 
HETATM   12  N   UNK N   1      20.367  19.162   1.247  0.00  0.00    -0.254 N 
HETATM   13  O   UNK N   1      21.461  20.809   0.200  0.00  0.00    -0.273 OA
HETATM   14  S   UNK N   1      19.531  18.683   2.737  0.00  0.00     0.241 S 
HETATM   15  H   UNK N   1      20.438  18.546   0.482  0.00  0.00     0.181 HD
HETATM   16  O   UNK N   1      19.698  17.405   1.900  0.00  0.00    -0.205 OA
HETATM   17  O   UNK N   1      20.371  17.761   3.637  0.00  0.00    -0.205 OA
ENDBRANCH   6   9
ENDBRANCH   2   3
ENDBRANCH   1   2
BRANCH   1  18
HETATM   18  C   UNK N   1      27.102  20.809   6.352  0.00  0.00     0.238 C 
HETATM   19  O   UNK N   1      27.889  21.740   6.259  0.00  0.00    -0.271 OA
HETATM   20  N   UNK N   1      26.332  20.705   7.455  0.00  0.00    -0.368 N 
HETATM   21  H   UNK N   1      25.480  21.090   7.765  0.00  0.00     0.159 HD
HETATM   22  H   UNK N   1      26.719  20.087   8.117  0.00  0.00     0.159 HD
ENDBRANCH   1  18
BRANCH   1  23
HETATM   23  N   UNK N   1      28.220  19.015   5.166  0.00  0.00    -0.346 N 
HETATM   24  C   UNK N   1      28.573  18.152   6.165  0.00  0.00     0.241 C 
HETATM   25  O   UNK N   1      27.946  18.089   7.204  0.00  0.00    -0.271 OA
HETATM   26  H   UNK N   1      28.809  19.119   4.383  0.00  0.00     0.163 HD
BRANCH  24  27
HETATM   27  C   UNK N   1      29.677  17.193   5.925  0.00  0.00     0.180 C 
BRANCH  27  28
HETATM   28  N   UNK N   1      30.530  17.570   4.808  0.00  0.00    -0.348 N 
HETATM   29  C   UNK N   1      31.892  17.480   4.681  0.00  0.00     0.214 C 
HETATM   30  O   UNK N   1      32.413  17.888   3.661  0.00  0.00    -0.274 OA
HETATM   31  C   UNK N   1      32.783  16.863   5.718  0.00  0.00     0.117 C 
HETATM   32  H   UNK N   1      30.060  17.944   4.028  0.00  0.00     0.163 HD
ENDBRANCH  27  28
BRANCH  27  33
HETATM   33  C   UNK N   1      29.111  15.775   5.675  0.00  0.00     0.073 C 
BRANCH  33  34
HETATM   34  C   UNK N   1      28.479  15.498   4.327  0.00  0.00    -0.056 A 
HETATM   35  C   UNK N   1      27.099  15.655   4.150  0.00  0.00     0.007 A 
HETATM   36  C   UNK N   1      26.503  15.337   2.922  0.00  0.00     0.001 A 
HETATM   37  C   UNK N   1      27.282  14.853   1.866  0.00  0.00     0.000 A 
HETATM   38  C   UNK N   1      28.655  14.673   2.041  0.00  0.00     0.001 A 
HETATM   39  C   UNK N   1      29.246  14.982   3.271  0.00  0.00     0.007 A 
ENDBRANCH  33  34
ENDBRANCH  27  33
ENDBRANCH  24  27
ENDBRANCH   1  23
TORSDOF 9
ENDMDL
MODEL 9
REMARK VINA RESULT:      -8.2     11.235     13.100
REMARK  9 active torsions:
REMARK  status: ('A' for Active; 'I' for Inactive)
REMARK    1  A    between atoms: C_1  and  C_9 
REMARK    2  A    between atoms: C_12  and  C_15 
REMARK    3  A    between atoms: C_15  and  C_16 
REMARK    4  A    between atoms: C_16  and  C_17 
REMARK    5  A    between atoms: C_16  and  N_20 
REMARK       I    between atoms: C_17  and  N_19 
REMARK       I    between atoms: N_20  and  C_21 
REMARK    6  A    between atoms: C_21  and  C_22 
REMARK    7  A    between atoms: C_22  and  N_24 
REMARK    8  A    between atoms: C_22  and  C_25 
REMARK       I    between atoms: N_24  and  C_32 
REMARK    9  A    between atoms: C_25  and  C_26 
ROOT
HETATM    1  C   UNK N   1      27.218  28.873  -4.184  0.00  0.00     0.180 C 
ENDROOT
BRANCH   1   2
HETATM    2  C   UNK N   1      26.022  28.062  -3.570  0.00  0.00     0.073 C 
BRANCH   2   3
HETATM    3  C   UNK N   1      25.592  26.953  -4.380  0.00  0.00    -0.056 C 
HETATM    4  C   UNK N   1      25.182  27.223  -5.676  0.00  0.00     0.008 C 
HETATM    5  C   UNK N   1      25.360  26.262  -6.635  0.00  0.00     0.009 C 
HETATM    6  C   UNK N   1      25.925  25.031  -6.276  0.00  0.00    -0.037 C 
HETATM    7  C   UNK N   1      26.112  24.705  -4.929  0.00  0.00     0.009 C 
HETATM    8  C   UNK N   1      25.953  25.681  -3.970  0.00  0.00     0.008 C 
BRANCH   6   9
HETATM    9  C   UNK N   1      26.705  24.211  -7.298  0.00  0.00     0.171 C 
HETATM   10  C   UNK N   1      26.746  22.789  -6.814  0.00  0.00     0.130 C 
HETATM   11  C   UNK N   1      25.430  22.444  -7.299  0.00  0.00     0.232 C 
HETATM   12  N   UNK N   1      25.006  23.193  -8.326  0.00  0.00    -0.254 N 
HETATM   13  O   UNK N   1      24.681  21.696  -6.695  0.00  0.00    -0.273 OA
HETATM   14  S   UNK N   1      26.200  24.206  -9.159  0.00  0.00     0.241 S 
HETATM   15  H   UNK N   1      24.062  23.181  -8.608  0.00  0.00     0.181 HD
HETATM   16  O   UNK N   1      24.819  24.654  -9.664  0.00  0.00    -0.205 OA
HETATM   17  O   UNK N   1      26.125  25.690  -8.759  0.00  0.00    -0.205 OA
ENDBRANCH   6   9
ENDBRANCH   2   3
ENDBRANCH   1   2
BRANCH   1  18
HETATM   18  C   UNK N   1      27.299  30.346  -3.811  0.00  0.00     0.238 C 
HETATM   19  O   UNK N   1      28.383  30.907  -3.742  0.00  0.00    -0.271 OA
HETATM   20  N   UNK N   1      26.177  31.045  -3.541  0.00  0.00    -0.368 N 
HETATM   21  H   UNK N   1      25.580  31.650  -4.038  0.00  0.00     0.159 HD
HETATM   22  H   UNK N   1      25.878  30.915  -2.611  0.00  0.00     0.159 HD
ENDBRANCH   1  18
BRANCH   1  23
HETATM   23  N   UNK N   1      28.400  28.187  -3.740  0.00  0.00    -0.346 N 
HETATM   24  C   UNK N   1      29.163  27.468  -4.617  0.00  0.00     0.241 C 
HETATM   25  O   UNK N   1      28.807  27.272  -5.762  0.00  0.00    -0.271 OA
HETATM   26  H   UNK N   1      28.664  28.237  -2.793  0.00  0.00     0.163 HD
BRANCH  24  27
HETATM   27  C   UNK N   1      30.507  27.015  -4.189  0.00  0.00     0.180 C 
BRANCH  27  28
HETATM   28  N   UNK N   1      31.525  28.049  -4.307  0.00  0.00    -0.348 N 
HETATM   29  C   UNK N   1      31.974  28.944  -3.370  0.00  0.00     0.214 C 
HETATM   30  O   UNK N   1      32.819  29.755  -3.694  0.00  0.00    -0.274 OA
HETATM   31  C   UNK N   1      31.509  28.955  -1.944  0.00  0.00     0.117 C 
HETATM   32  H   UNK N   1      31.955  28.116  -5.190  0.00  0.00     0.163 HD
ENDBRANCH  27  28
BRANCH  27  33
HETATM   33  C   UNK N   1      30.944  25.778  -5.009  0.00  0.00     0.073 C 
BRANCH  33  34
HETATM   34  C   UNK N   1      30.597  24.411  -4.457  0.00  0.00    -0.056 A 
HETATM   35  C   UNK N   1      30.741  24.146  -3.090  0.00  0.00     0.007 A 
HETATM   36  C   UNK N   1      30.482  22.863  -2.587  0.00  0.00     0.001 A 
HETATM   37  C   UNK N   1      30.087  21.836  -3.450  0.00  0.00     0.000 A 
HETATM   38  C   UNK N   1      29.962  22.086  -4.817  0.00  0.00     0.001 A 
HETATM   39  C   UNK N   1      30.230  23.365  -5.318  0.00  0.00     0.007 A 
ENDBRANCH  33  34
ENDBRANCH  27  33
ENDBRANCH  24  27
ENDBRANCH   1  23
TORSDOF 9
ENDMDL
