MODEL 1
REMARK VINA RESULT:      -6.8      0.000      0.000
REMARK  7 active torsions:
REMARK  status: ('A' for Active; 'I' for Inactive)
REMARK    1  A    between atoms: O_1  and  C_2 
REMARK    2  A    between atoms: C_2  and  C_3 
REMARK    3  A    between atoms: C_3  and  C_4 
REMARK    4  A    between atoms: C_3  and  N_7 
REMARK    5  A    between atoms: N_7  and  C_8 
REMARK    6  A    between atoms: C_18  and  C_19 
REMARK    7  A    between atoms: C_24  and  N_25 
ROOT
HETATM    1  C   UNK N   1      32.772  17.143   4.914  0.00  0.00     0.116 A 
HETATM    2  C   UNK N   1      33.029  16.124   3.970  0.00  0.00     0.053 A 
HETATM    3  C   UNK N   1      31.985  15.625   3.172  0.00  0.00     0.054 A 
HETATM    4  N   UNK N   1      31.501  17.603   5.062  0.00  0.00    -0.277 N 
ATOM      5  HN  UNK N   1      31.289  18.315   5.762  1.00  0.00     0.189 HD
HETATM    6  N   UNK N   1      30.534  17.119   4.287  0.00  0.00    -0.236 N 
HETATM    7  C   UNK N   1      30.726  16.172   3.370  0.00  0.00     0.127 A 
HETATM    8  N   UNK N   1      29.586  15.845   2.729  0.00  0.00    -0.349 N 
ATOM      9  HN  UNK N   1      29.465  15.156   1.987  1.00  0.00     0.167 HD
HETATM   10  C   UNK N   1      28.629  16.637   3.289  0.00  0.00     0.122 A 
HETATM   11  C   UNK N   1      29.233  17.430   4.263  0.00  0.00     0.084 A 
ENDROOT
BRANCH   1  12
HETATM   12  N   UNK N   1      33.782  17.645   5.774  0.00  0.00    -0.368 N 
HETATM   13  H   UNK N   1      34.341  18.374   5.422  0.00  0.00     0.161 HD
BRANCH  12  14
HETATM   14  C   UNK N   1      34.074  17.188   7.122  0.00  0.00     0.110 C 
BRANCH  14  15
HETATM   15  C   UNK N   1      33.826  18.372   8.053  0.00  0.00     0.189 C 
BRANCH  15  16
HETATM   16  O   UNK N   1      35.014  19.051   8.331  0.00  0.00    -0.399 OA
HETATM   17  H   UNK N   1      35.924  18.729   8.234  0.00  0.00     0.209 HD
ENDBRANCH  15  16
ENDBRANCH  14  15
BRANCH  14  18
HETATM   18  C   UNK N   1      33.234  15.987   7.599  0.00  0.00     0.002 C 
HETATM   19  C   UNK N   1      32.112  16.350   8.555  0.00  0.00     0.011 C 
HETATM   20  C   UNK N   1      34.071  14.835   8.124  0.00  0.00     0.011 C 
ENDBRANCH  14  18
ENDBRANCH  12  14
ENDBRANCH   1  12
BRANCH  11  21
HETATM   21  C   UNK N   1      28.578  18.414   5.149  0.00  0.00    -0.004 A 
HETATM   22  C   UNK N   1      28.430  18.150   6.518  0.00  0.00     0.042 A 
HETATM   23  C   UNK N   1      27.857  19.109   7.361  0.00  0.00     0.026 A 
HETATM   24  C   UNK N   1      27.424  20.331   6.840  0.00  0.00     0.029 A 
HETATM   25  C   UNK N   1      27.559  20.597   5.477  0.00  0.00     0.003 A 
HETATM   26  C   UNK N   1      28.137  19.644   4.638  0.00  0.00     0.014 A 
BRANCH  23  27
HETATM   27  N   UNK N   1      27.731  18.850   8.738  0.00  0.00    -0.399 N 
HETATM   28  H   UNK N   1      26.989  18.294   9.070  0.00  0.00     0.156 HD
HETATM   29  H   UNK N   1      28.387  19.223   9.371  0.00  0.00     0.156 HD
ENDBRANCH  23  27
ENDBRANCH  11  21
TORSDOF 7
ENDMDL
MODEL 2
REMARK VINA RESULT:      -6.7      2.996      6.887
REMARK  7 active torsions:
REMARK  status: ('A' for Active; 'I' for Inactive)
REMARK    1  A    between atoms: O_1  and  C_2 
REMARK    2  A    between atoms: C_2  and  C_3 
REMARK    3  A    between atoms: C_3  and  C_4 
REMARK    4  A    between atoms: C_3  and  N_7 
REMARK    5  A    between atoms: N_7  and  C_8 
REMARK    6  A    between atoms: C_18  and  C_19 
REMARK    7  A    between atoms: C_24  and  N_25 
ROOT
HETATM    1  C   UNK N   1      28.264  18.263   7.193  0.00  0.00     0.116 A 
HETATM    2  C   UNK N   1      28.282  18.537   8.579  0.00  0.00     0.053 A 
HETATM    3  C   UNK N   1      29.450  18.307   9.326  0.00  0.00     0.054 A 
HETATM    4  N   UNK N   1      29.375  17.743   6.607  0.00  0.00    -0.277 N 
ATOM      5  HN  UNK N   1      29.371  17.508   5.614  1.00  0.00     0.189 HD
HETATM    6  N   UNK N   1      30.470  17.545   7.336  0.00  0.00    -0.236 N 
HETATM    7  C   UNK N   1      30.546  17.803   8.641  0.00  0.00     0.127 A 
HETATM    8  N   UNK N   1      31.757  17.502   9.150  0.00  0.00    -0.349 N 
ATOM      9  HN  UNK N   1      32.071  17.608  10.114  1.00  0.00     0.167 HD
HETATM   10  C   UNK N   1      32.473  17.024   8.094  0.00  0.00     0.122 A 
HETATM   11  C   UNK N   1      31.657  17.055   6.964  0.00  0.00     0.084 A 
ENDROOT
BRANCH   1  12
HETATM   12  N   UNK N   1      27.096  18.434   6.408  0.00  0.00    -0.368 N 
HETATM   13  H   UNK N   1      26.234  18.399   6.882  0.00  0.00     0.161 HD
BRANCH  12  14
HETATM   14  C   UNK N   1      27.045  18.658   4.973  0.00  0.00     0.110 C 
BRANCH  14  15
HETATM   15  C   UNK N   1      25.685  18.154   4.496  0.00  0.00     0.189 C 
BRANCH  15  16
HETATM   16  O   UNK N   1      24.712  18.320   5.483  0.00  0.00    -0.399 OA
HETATM   17  H   UNK N   1      24.731  18.008   6.402  0.00  0.00     0.209 HD
ENDBRANCH  15  16
ENDBRANCH  14  15
BRANCH  14  18
HETATM   18  C   UNK N   1      27.220  20.125   4.536  0.00  0.00     0.002 C 
HETATM   19  C   UNK N   1      26.994  21.139   5.643  0.00  0.00     0.011 C 
HETATM   20  C   UNK N   1      26.442  20.479   3.281  0.00  0.00     0.011 C 
ENDBRANCH  14  18
ENDBRANCH  12  14
ENDBRANCH   1  12
BRANCH  11  21
HETATM   21  C   UNK N   1      32.000  16.600   5.600  0.00  0.00    -0.004 A 
HETATM   22  C   UNK N   1      31.851  15.253   5.242  0.00  0.00     0.042 A 
HETATM   23  C   UNK N   1      32.127  14.840   3.933  0.00  0.00     0.026 A 
HETATM   24  C   UNK N   1      32.555  15.767   2.980  0.00  0.00     0.029 A 
HETATM   25  C   UNK N   1      32.715  17.108   3.332  0.00  0.00     0.003 A 
HETATM   26  C   UNK N   1      32.434  17.521   4.635  0.00  0.00     0.014 A 
BRANCH  23  27
HETATM   27  N   UNK N   1      31.954  13.491   3.571  0.00  0.00    -0.399 N 
HETATM   28  H   UNK N   1      31.546  12.858   4.205  0.00  0.00     0.156 HD
HETATM   29  H   UNK N   1      32.241  13.179   2.682  0.00  0.00     0.156 HD
ENDBRANCH  23  27
ENDBRANCH  11  21
TORSDOF 7
ENDMDL
MODEL 3
REMARK VINA RESULT:      -6.5     11.877     14.391
REMARK  7 active torsions:
REMARK  status: ('A' for Active; 'I' for Inactive)
REMARK    1  A    between atoms: O_1  and  C_2 
REMARK    2  A    between atoms: C_2  and  C_3 
REMARK    3  A    between atoms: C_3  and  C_4 
REMARK    4  A    between atoms: C_3  and  N_7 
REMARK    5  A    between atoms: N_7  and  C_8 
REMARK    6  A    between atoms: C_18  and  C_19 
REMARK    7  A    between atoms: C_24  and  N_25 
ROOT
HETATM    1  C   UNK N   1      26.207  27.710  -3.758  0.00  0.00     0.116 A 
HETATM    2  C   UNK N   1      25.180  27.875  -4.714  0.00  0.00     0.053 A 
HETATM    3  C   UNK N   1      24.871  26.831  -5.601  0.00  0.00     0.054 A 
HETATM    4  N   UNK N   1      26.911  26.547  -3.736  0.00  0.00    -0.277 N 
ATOM      5  HN  UNK N   1      27.678  26.422  -3.076  1.00  0.00     0.189 HD
HETATM    6  N   UNK N   1      26.590  25.571  -4.582  0.00  0.00    -0.236 N 
HETATM    7  C   UNK N   1      25.620  25.668  -5.489  0.00  0.00     0.127 A 
HETATM    8  N   UNK N   1      25.504  24.549  -6.233  0.00  0.00    -0.349 N 
ATOM      9  HN  UNK N   1      24.842  24.369  -6.987  1.00  0.00     0.167 HD
HETATM   10  C   UNK N   1      26.467  23.711  -5.758  0.00  0.00     0.122 A 
HETATM   11  C   UNK N   1      27.141  24.361  -4.725  0.00  0.00     0.084 A 
ENDROOT
BRANCH   1  12
HETATM   12  N   UNK N   1      26.586  28.752  -2.874  0.00  0.00    -0.368 N 
HETATM   13  H   UNK N   1      25.967  28.954  -2.136  0.00  0.00     0.161 HD
BRANCH  12  14
HETATM   14  C   UNK N   1      27.798  29.551  -2.949  0.00  0.00     0.110 C 
BRANCH  14  15
HETATM   15  C   UNK N   1      27.370  30.969  -3.319  0.00  0.00     0.189 C 
BRANCH  15  16
HETATM   16  O   UNK N   1      25.982  31.061  -3.437  0.00  0.00    -0.399 OA
HETATM   17  H   UNK N   1      25.438  31.862  -3.496  0.00  0.00     0.209 HD
ENDBRANCH  15  16
ENDBRANCH  14  15
BRANCH  14  18
HETATM   18  C   UNK N   1      28.628  29.597  -1.651  0.00  0.00     0.002 C 
HETATM   19  C   UNK N   1      28.228  30.703  -0.691  0.00  0.00     0.011 C 
HETATM   20  C   UNK N   1      30.127  29.577  -1.892  0.00  0.00     0.011 C 
ENDBRANCH  14  18
ENDBRANCH  12  14
ENDBRANCH   1  12
BRANCH  11  21
HETATM   21  C   UNK N   1      28.283  23.849  -3.940  0.00  0.00    -0.004 A 
HETATM   22  C   UNK N   1      29.562  23.776  -4.510  0.00  0.00     0.042 A 
HETATM   23  C   UNK N   1      30.650  23.341  -3.744  0.00  0.00     0.026 A 
HETATM   24  C   UNK N   1      30.464  22.971  -2.409  0.00  0.00     0.029 A 
HETATM   25  C   UNK N   1      29.192  23.031  -1.838  0.00  0.00     0.003 A 
HETATM   26  C   UNK N   1      28.109  23.471  -2.600  0.00  0.00     0.014 A 
BRANCH  23  27
HETATM   27  N   UNK N   1      31.936  23.292  -4.312  0.00  0.00    -0.399 N 
HETATM   28  H   UNK N   1      32.210  22.510  -4.845  0.00  0.00     0.156 HD
HETATM   29  H   UNK N   1      32.562  24.040  -4.178  0.00  0.00     0.156 HD
ENDBRANCH  23  27
ENDBRANCH  11  21
TORSDOF 7
ENDMDL
MODEL 4
REMARK VINA RESULT:      -6.4     12.645     14.387
REMARK  7 active torsions:
REMARK  status: ('A' for Active; 'I' for Inactive)
REMARK    1  A    between atoms: O_1  and  C_2 
REMARK    2  A    between atoms: C_2  and  C_3 
REMARK    3  A    between atoms: C_3  and  C_4 
REMARK    4  A    between atoms: C_3  and  N_7 
REMARK    5  A    between atoms: N_7  and  C_8 
REMARK    6  A    between atoms: C_18  and  C_19 
REMARK    7  A    between atoms: C_24  and  N_25 
ROOT
HETATM    1  C   UNK N   1      28.591  23.358  -6.009  0.00  0.00     0.116 A 
HETATM    2  C   UNK N   1      28.039  22.369  -6.853  0.00  0.00     0.053 A 
HETATM    3  C   UNK N   1      27.056  22.717  -7.795  0.00  0.00     0.054 A 
HETATM    4  N   UNK N   1      28.133  24.635  -6.098  0.00  0.00    -0.277 N 
ATOM      5  HN  UNK N   1      28.496  25.356  -5.474  1.00  0.00     0.189 HD
HETATM    6  N   UNK N   1      27.209  24.938  -7.006  0.00  0.00    -0.236 N 
HETATM    7  C   UNK N   1      26.670  24.049  -7.837  0.00  0.00     0.127 A 
HETATM    8  N   UNK N   1      25.747  24.605  -8.649  0.00  0.00    -0.349 N 
ATOM      9  HN  UNK N   1      25.196  24.143  -9.371  1.00  0.00     0.167 HD
HETATM   10  C   UNK N   1      25.713  25.919  -8.292  0.00  0.00     0.122 A 
HETATM   11  C   UNK N   1      26.632  26.117  -7.263  0.00  0.00     0.084 A 
ENDROOT
BRANCH   1  12
HETATM   12  N   UNK N   1      29.550  23.045  -5.011  0.00  0.00    -0.368 N 
HETATM   13  H   UNK N   1      30.178  22.316  -5.214  0.00  0.00     0.161 HD
BRANCH  12  14
HETATM   14  C   UNK N   1      29.695  23.695  -3.720  0.00  0.00     0.110 C 
BRANCH  14  15
HETATM   15  C   UNK N   1      29.955  22.592  -2.697  0.00  0.00     0.189 C 
BRANCH  15  16
HETATM   16  O   UNK N   1      30.368  23.127  -1.475  0.00  0.00    -0.399 OA
HETATM   17  H   UNK N   1      29.817  23.421  -0.733  0.00  0.00     0.209 HD
ENDBRANCH  15  16
ENDBRANCH  14  15
BRANCH  14  18
HETATM   18  C   UNK N   1      30.830  24.735  -3.639  0.00  0.00     0.002 C 
HETATM   19  C   UNK N   1      30.364  26.178  -3.720  0.00  0.00     0.011 C 
HETATM   20  C   UNK N   1      31.973  24.458  -4.599  0.00  0.00     0.011 C 
ENDBRANCH  14  18
ENDBRANCH  12  14
ENDBRANCH   1  12
BRANCH  11  21
HETATM   21  C   UNK N   1      26.910  27.376  -6.542  0.00  0.00    -0.004 A 
HETATM   22  C   UNK N   1      26.254  27.665  -5.337  0.00  0.00     0.042 A 
HETATM   23  C   UNK N   1      26.563  28.835  -4.632  0.00  0.00     0.026 A 
HETATM   24  C   UNK N   1      27.521  29.721  -5.129  0.00  0.00     0.029 A 
HETATM   25  C   UNK N   1      28.171  29.445  -6.333  0.00  0.00     0.003 A 
HETATM   26  C   UNK N   1      27.869  28.276  -7.033  0.00  0.00     0.014 A 
BRANCH  23  27
HETATM   27  N   UNK N   1      25.919  29.110  -3.411  0.00  0.00    -0.399 N 
HETATM   28  H   UNK N   1      26.417  29.538  -2.677  0.00  0.00     0.156 HD
HETATM   29  H   UNK N   1      24.971  28.874  -3.291  0.00  0.00     0.156 HD
ENDBRANCH  23  27
ENDBRANCH  11  21
TORSDOF 7
ENDMDL
MODEL 5
REMARK VINA RESULT:      -6.2      4.997      6.391
REMARK  7 active torsions:
REMARK  status: ('A' for Active; 'I' for Inactive)
REMARK    1  A    between atoms: O_1  and  C_2 
REMARK    2  A    between atoms: C_2  and  C_3 
REMARK    3  A    between atoms: C_3  and  C_4 
REMARK    4  A    between atoms: C_3  and  N_7 
REMARK    5  A    between atoms: N_7  and  C_8 
REMARK    6  A    between atoms: C_18  and  C_19 
REMARK    7  A    between atoms: C_24  and  N_25 
ROOT
HETATM    1  C   UNK N   1      26.781  18.471   5.535  0.00  0.00     0.116 A 
HETATM    2  C   UNK N   1      27.432  19.499   4.817  0.00  0.00     0.053 A 
HETATM    3  C   UNK N   1      26.706  20.295   3.914  0.00  0.00     0.054 A 
HETATM    4  N   UNK N   1      25.460  18.243   5.313  0.00  0.00    -0.277 N 
ATOM      5  HN  UNK N   1      24.980  17.484   5.797  1.00  0.00     0.189 HD
HETATM    6  N   UNK N   1      24.795  19.018   4.459  0.00  0.00    -0.236 N 
HETATM    7  C   UNK N   1      25.356  20.011   3.771  0.00  0.00     0.127 A 
HETATM    8  N   UNK N   1      24.473  20.633   2.965  0.00  0.00    -0.349 N 
ATOM      9  HN  UNK N   1      24.648  21.420   2.341  1.00  0.00     0.167 HD
HETATM   10  C   UNK N   1      23.294  19.980   3.164  0.00  0.00     0.122 A 
HETATM   11  C   UNK N   1      23.507  18.971   4.102  0.00  0.00     0.084 A 
ENDROOT
BRANCH   1  12
HETATM   12  N   UNK N   1      27.482  17.613   6.421  0.00  0.00    -0.368 N 
HETATM   13  H   UNK N   1      27.187  16.675   6.454  0.00  0.00     0.161 HD
BRANCH  12  14
HETATM   14  C   UNK N   1      28.591  17.982   7.283  0.00  0.00     0.110 C 
BRANCH  14  15
HETATM   15  C   UNK N   1      28.243  17.489   8.686  0.00  0.00     0.189 C 
BRANCH  15  16
HETATM   16  O   UNK N   1      27.392  18.385   9.336  0.00  0.00    -0.399 OA
HETATM   17  H   UNK N   1      27.506  19.341   9.454  0.00  0.00     0.209 HD
ENDBRANCH  15  16
ENDBRANCH  14  15
BRANCH  14  18
HETATM   18  C   UNK N   1      29.958  17.401   6.870  0.00  0.00     0.002 C 
HETATM   19  C   UNK N   1      29.894  16.404   5.727  0.00  0.00     0.011 C 
HETATM   20  C   UNK N   1      30.766  16.867   8.039  0.00  0.00     0.011 C 
ENDBRANCH  14  18
ENDBRANCH  12  14
ENDBRANCH   1  12
BRANCH  11  21
HETATM   21  C   UNK N   1      22.522  17.989   4.598  0.00  0.00    -0.004 A 
HETATM   22  C   UNK N   1      21.961  18.127   5.876  0.00  0.00     0.042 A 
HETATM   23  C   UNK N   1      20.989  17.223   6.319  0.00  0.00     0.026 A 
HETATM   24  C   UNK N   1      20.575  16.176   5.491  0.00  0.00     0.029 A 
HETATM   25  C   UNK N   1      21.135  16.026   4.222  0.00  0.00     0.003 A 
HETATM   26  C   UNK N   1      22.100  16.931   3.778  0.00  0.00     0.014 A 
BRANCH  23  27
HETATM   27  N   UNK N   1      20.412  17.380   7.593  0.00  0.00    -0.399 N 
HETATM   28  H   UNK N   1      20.941  17.187   8.401  0.00  0.00     0.156 HD
HETATM   29  H   UNK N   1      19.479  17.683   7.677  0.00  0.00     0.156 HD
ENDBRANCH  23  27
ENDBRANCH  11  21
TORSDOF 7
ENDMDL
MODEL 6
REMARK VINA RESULT:      -6.2      2.239      5.698
REMARK  7 active torsions:
REMARK  status: ('A' for Active; 'I' for Inactive)
REMARK    1  A    between atoms: O_1  and  C_2 
REMARK    2  A    between atoms: C_2  and  C_3 
REMARK    3  A    between atoms: C_3  and  C_4 
REMARK    4  A    between atoms: C_3  and  N_7 
REMARK    5  A    between atoms: N_7  and  C_8 
REMARK    6  A    between atoms: C_18  and  C_19 
REMARK    7  A    between atoms: C_24  and  N_25 
ROOT
HETATM    1  C   UNK N   1      28.853  17.054   5.223  0.00  0.00     0.116 A 
HETATM    2  C   UNK N   1      28.709  16.847   3.832  0.00  0.00     0.053 A 
HETATM    3  C   UNK N   1      29.832  16.535   3.047  0.00  0.00     0.054 A 
HETATM    4  N   UNK N   1      30.092  16.981   5.777  0.00  0.00    -0.277 N 
ATOM      5  HN  UNK N   1      30.220  17.160   6.774  1.00  0.00     0.189 HD
HETATM    6  N   UNK N   1      31.136  16.674   5.012  0.00  0.00    -0.236 N 
HETATM    7  C   UNK N   1      31.053  16.453   3.702  0.00  0.00     0.127 A 
HETATM    8  N   UNK N   1      32.253  16.176   3.155  0.00  0.00    -0.349 N 
ATOM      9  HN  UNK N   1      32.459  15.968   2.178  1.00  0.00     0.167 HD
HETATM   10  C   UNK N   1      33.134  16.235   4.192  0.00  0.00     0.122 A 
HETATM   11  C   UNK N   1      32.424  16.548   5.350  0.00  0.00     0.084 A 
ENDROOT
BRANCH   1  12
HETATM   12  N   UNK N   1      27.757  17.417   6.046  0.00  0.00    -0.368 N 
HETATM   13  H   UNK N   1      27.171  16.688   6.351  0.00  0.00     0.161 HD
BRANCH  12  14
HETATM   14  C   UNK N   1      27.414  18.759   6.485  0.00  0.00     0.110 C 
BRANCH  14  15
HETATM   15  C   UNK N   1      28.229  19.032   7.747  0.00  0.00     0.189 C 
BRANCH  15  16
HETATM   16  O   UNK N   1      27.547  18.603   8.888  0.00  0.00    -0.399 OA
HETATM   17  H   UNK N   1      27.623  17.750   9.345  0.00  0.00     0.209 HD
ENDBRANCH  15  16
ENDBRANCH  14  15
BRANCH  14  18
HETATM   18  C   UNK N   1      27.692  19.871   5.455  0.00  0.00     0.002 C 
HETATM   19  C   UNK N   1      27.715  21.273   6.039  0.00  0.00     0.011 C 
HETATM   20  C   UNK N   1      26.808  19.790   4.224  0.00  0.00     0.011 C 
ENDBRANCH  14  18
ENDBRANCH  12  14
ENDBRANCH   1  12
BRANCH  11  21
HETATM   21  C   UNK N   1      32.971  16.748   6.708  0.00  0.00    -0.004 A 
HETATM   22  C   UNK N   1      32.672  15.843   7.736  0.00  0.00     0.042 A 
HETATM   23  C   UNK N   1      33.237  16.009   9.006  0.00  0.00     0.026 A 
HETATM   24  C   UNK N   1      34.097  17.082   9.256  0.00  0.00     0.029 A 
HETATM   25  C   UNK N   1      34.391  17.993   8.241  0.00  0.00     0.003 A 
HETATM   26  C   UNK N   1      33.833  17.823   6.973  0.00  0.00     0.014 A 
BRANCH  23  27
HETATM   27  N   UNK N   1      32.953  15.085  10.028  0.00  0.00    -0.399 N 
HETATM   28  H   UNK N   1      33.237  14.146   9.938  0.00  0.00     0.156 HD
HETATM   29  H   UNK N   1      32.470  15.377  10.835  0.00  0.00     0.156 HD
ENDBRANCH  23  27
ENDBRANCH  11  21
TORSDOF 7
ENDMDL
MODEL 7
REMARK VINA RESULT:      -6.1     12.575     14.362
REMARK  7 active torsions:
REMARK  status: ('A' for Active; 'I' for Inactive)
REMARK    1  A    between atoms: O_1  and  C_2 
REMARK    2  A    between atoms: C_2  and  C_3 
REMARK    3  A    between atoms: C_3  and  C_4 
REMARK    4  A    between atoms: C_3  and  N_7 
REMARK    5  A    between atoms: N_7  and  C_8 
REMARK    6  A    between atoms: C_18  and  C_19 
REMARK    7  A    between atoms: C_24  and  N_25 
ROOT
HETATM    1  C   UNK N   1      28.447  23.369  -5.955  0.00  0.00     0.116 A 
HETATM    2  C   UNK N   1      28.182  22.558  -7.081  0.00  0.00     0.053 A 
HETATM    3  C   UNK N   1      27.379  23.046  -8.126  0.00  0.00     0.054 A 
HETATM    4  N   UNK N   1      27.888  24.606  -5.885  0.00  0.00    -0.277 N 
ATOM      5  HN  UNK N   1      28.042  25.194  -5.065  1.00  0.00     0.189 HD
HETATM    6  N   UNK N   1      27.140  25.047  -6.893  0.00  0.00    -0.236 N 
HETATM    7  C   UNK N   1      26.874  24.331  -7.984  0.00  0.00     0.127 A 
HETATM    8  N   UNK N   1      26.083  24.996  -8.849  0.00  0.00    -0.349 N 
ATOM      9  HN  UNK N   1      25.739  24.672  -9.753  1.00  0.00     0.167 HD
HETATM   10  C   UNK N   1      25.842  26.197  -8.253  0.00  0.00     0.122 A 
HETATM   11  C   UNK N   1      26.509  26.218  -7.029  0.00  0.00     0.084 A 
ENDROOT
BRANCH   1  12
HETATM   12  N   UNK N   1      29.212  22.902  -4.856  0.00  0.00    -0.368 N 
HETATM   13  H   UNK N   1      29.555  21.982  -4.913  0.00  0.00     0.161 HD
BRANCH  12  14
HETATM   14  C   UNK N   1      29.538  23.649  -3.653  0.00  0.00     0.110 C 
BRANCH  14  15
HETATM   15  C   UNK N   1      29.541  22.649  -2.500  0.00  0.00     0.189 C 
BRANCH  15  16
HETATM   16  O   UNK N   1      30.462  23.017  -1.516  0.00  0.00    -0.399 OA
HETATM   17  H   UNK N   1      31.192  22.492  -1.153  0.00  0.00     0.209 HD
ENDBRANCH  15  16
ENDBRANCH  14  15
BRANCH  14  18
HETATM   18  C   UNK N   1      30.894  24.380  -3.689  0.00  0.00     0.002 C 
HETATM   19  C   UNK N   1      30.793  25.875  -3.935  0.00  0.00     0.011 C 
HETATM   20  C   UNK N   1      31.910  23.727  -4.610  0.00  0.00     0.011 C 
ENDBRANCH  14  18
ENDBRANCH  12  14
ENDBRANCH   1  12
BRANCH  11  21
HETATM   21  C   UNK N   1      26.505  27.303  -6.027  0.00  0.00    -0.004 A 
HETATM   22  C   UNK N   1      27.381  28.391  -6.153  0.00  0.00     0.042 A 
HETATM   23  C   UNK N   1      27.334  29.442  -5.229  0.00  0.00     0.026 A 
HETATM   24  C   UNK N   1      26.418  29.409  -4.175  0.00  0.00     0.029 A 
HETATM   25  C   UNK N   1      25.549  28.325  -4.038  0.00  0.00     0.003 A 
HETATM   26  C   UNK N   1      25.591  27.281  -4.962  0.00  0.00     0.014 A 
BRANCH  23  27
HETATM   27  N   UNK N   1      28.199  30.542  -5.372  0.00  0.00    -0.399 N 
HETATM   28  H   UNK N   1      29.116  30.409  -5.706  0.00  0.00     0.156 HD
HETATM   29  H   UNK N   1      27.888  31.447  -5.139  0.00  0.00     0.156 HD
ENDBRANCH  23  27
ENDBRANCH  11  21
TORSDOF 7
ENDMDL
MODEL 8
REMARK VINA RESULT:      -6.1      5.088      8.882
REMARK  7 active torsions:
REMARK  status: ('A' for Active; 'I' for Inactive)
REMARK    1  A    between atoms: O_1  and  C_2 
REMARK    2  A    between atoms: C_2  and  C_3 
REMARK    3  A    between atoms: C_3  and  C_4 
REMARK    4  A    between atoms: C_3  and  N_7 
REMARK    5  A    between atoms: N_7  and  C_8 
REMARK    6  A    between atoms: C_18  and  C_19 
REMARK    7  A    between atoms: C_24  and  N_25 
ROOT
HETATM    1  C   UNK N   1      33.436  14.631   9.422  0.00  0.00     0.116 A 
HETATM    2  C   UNK N   1      33.560  13.987   8.170  0.00  0.00     0.053 A 
HETATM    3  C   UNK N   1      34.230  12.755   8.077  0.00  0.00     0.054 A 
HETATM    4  N   UNK N   1      34.002  14.061  10.519  0.00  0.00    -0.277 N 
ATOM      5  HN  UNK N   1      33.952  14.527  11.425  1.00  0.00     0.189 HD
HETATM    6  N   UNK N   1      34.622  12.889  10.403  0.00  0.00    -0.236 N 
HETATM    7  C   UNK N   1      34.752  12.232   9.251  0.00  0.00     0.127 A 
HETATM    8  N   UNK N   1      35.433  11.078   9.398  0.00  0.00    -0.349 N 
ATOM      9  HN  UNK N   1      35.663  10.396   8.676  1.00  0.00     0.167 HD
HETATM   10  C   UNK N   1      35.747  11.021  10.722  0.00  0.00     0.122 A 
HETATM   11  C   UNK N   1      35.235  12.160  11.342  0.00  0.00     0.084 A 
ENDROOT
BRANCH   1  12
HETATM   12  N   UNK N   1      32.811  15.896   9.558  0.00  0.00    -0.368 N 
HETATM   13  H   UNK N   1      31.946  15.915  10.026  0.00  0.00     0.161 HD
BRANCH  12  14
HETATM   14  C   UNK N   1      33.321  17.168   9.074  0.00  0.00     0.110 C 
BRANCH  14  15
HETATM   15  C   UNK N   1      34.843  17.052   9.050  0.00  0.00     0.189 C 
BRANCH  15  16
HETATM   16  O   UNK N   1      35.401  17.511  10.245  0.00  0.00    -0.399 OA
HETATM   17  H   UNK N   1      35.850  18.355  10.411  0.00  0.00     0.209 HD
ENDBRANCH  15  16
ENDBRANCH  14  15
BRANCH  14  18
HETATM   18  C   UNK N   1      32.825  17.578   7.674  0.00  0.00     0.002 C 
HETATM   19  C   UNK N   1      31.488  16.973   7.282  0.00  0.00     0.011 C 
HETATM   20  C   UNK N   1      33.866  17.394   6.584  0.00  0.00     0.011 C 
ENDBRANCH  14  18
ENDBRANCH  12  14
ENDBRANCH   1  12
BRANCH  11  21
HETATM   21  C   UNK N   1      35.364  12.539  12.764  0.00  0.00    -0.004 A 
HETATM   22  C   UNK N   1      36.271  13.534  13.155  0.00  0.00     0.042 A 
HETATM   23  C   UNK N   1      36.349  13.926  14.497  0.00  0.00     0.026 A 
HETATM   24  C   UNK N   1      35.527  13.323  15.452  0.00  0.00     0.029 A 
HETATM   25  C   UNK N   1      34.628  12.325  15.072  0.00  0.00     0.003 A 
HETATM   26  C   UNK N   1      34.546  11.940  13.733  0.00  0.00     0.014 A 
BRANCH  23  27
HETATM   27  N   UNK N   1      37.244  14.941  14.882  0.00  0.00    -0.399 N 
HETATM   28  H   UNK N   1      37.009  15.553  15.616  0.00  0.00     0.156 HD
HETATM   29  H   UNK N   1      38.107  15.039  14.416  0.00  0.00     0.156 HD
ENDBRANCH  23  27
ENDBRANCH  11  21
TORSDOF 7
ENDMDL
MODEL 9
REMARK VINA RESULT:      -6.1      2.084      4.705
REMARK  7 active torsions:
REMARK  status: ('A' for Active; 'I' for Inactive)
REMARK    1  A    between atoms: O_1  and  C_2 
REMARK    2  A    between atoms: C_2  and  C_3 
REMARK    3  A    between atoms: C_3  and  C_4 
REMARK    4  A    between atoms: C_3  and  N_7 
REMARK    5  A    between atoms: N_7  and  C_8 
REMARK    6  A    between atoms: C_18  and  C_19 
REMARK    7  A    between atoms: C_24  and  N_25 
ROOT
HETATM    1  C   UNK N   1      31.081  17.658   8.613  0.00  0.00     0.116 A 
HETATM    2  C   UNK N   1      30.092  18.456   9.231  0.00  0.00     0.053 A 
HETATM    3  C   UNK N   1      28.833  18.610   8.625  0.00  0.00     0.054 A 
HETATM    4  N   UNK N   1      30.808  17.076   7.415  0.00  0.00    -0.277 N 
ATOM      5  HN  UNK N   1      31.521  16.523   6.938  1.00  0.00     0.189 HD
HETATM    6  N   UNK N   1      29.604  17.230   6.870  0.00  0.00    -0.236 N 
HETATM    7  C   UNK N   1      28.632  17.956   7.418  0.00  0.00     0.127 A 
HETATM    8  N   UNK N   1      27.516  17.966   6.662  0.00  0.00    -0.349 N 
ATOM      9  HN  UNK N   1      26.636  18.442   6.859  1.00  0.00     0.167 HD
HETATM   10  C   UNK N   1      27.820  17.202   5.576  0.00  0.00     0.122 A 
HETATM   11  C   UNK N   1      29.130  16.747   5.716  0.00  0.00     0.084 A 
ENDROOT
BRANCH   1  12
HETATM   12  N   UNK N   1      32.381  17.512   9.162  0.00  0.00    -0.368 N 
HETATM   13  H   UNK N   1      32.516  17.852  10.075  0.00  0.00     0.161 HD
BRANCH  12  14
HETATM   14  C   UNK N   1      33.531  16.910   8.509  0.00  0.00     0.110 C 
BRANCH  14  15
HETATM   15  C   UNK N   1      34.395  18.057   7.991  0.00  0.00     0.189 C 
BRANCH  15  16
HETATM   16  O   UNK N   1      34.394  18.096   6.595  0.00  0.00    -0.399 OA
HETATM   17  H   UNK N   1      34.679  17.405   5.976  0.00  0.00     0.209 HD
ENDBRANCH  15  16
ENDBRANCH  14  15
BRANCH  14  18
HETATM   18  C   UNK N   1      34.388  16.001   9.410  0.00  0.00     0.002 C 
HETATM   19  C   UNK N   1      35.228  16.746  10.433  0.00  0.00     0.011 C 
HETATM   20  C   UNK N   1      35.213  14.987   8.637  0.00  0.00     0.011 C 
ENDBRANCH  14  18
ENDBRANCH  12  14
ENDBRANCH   1  12
BRANCH  11  21
HETATM   21  C   UNK N   1      29.895  15.915   4.764  0.00  0.00    -0.004 A 
HETATM   22  C   UNK N   1      31.020  16.435   4.109  0.00  0.00     0.042 A 
HETATM   23  C   UNK N   1      31.771  15.624   3.250  0.00  0.00     0.026 A 
HETATM   24  C   UNK N   1      31.399  14.295   3.037  0.00  0.00     0.029 A 
HETATM   25  C   UNK N   1      30.275  13.772   3.678  0.00  0.00     0.003 A 
HETATM   26  C   UNK N   1      29.530  14.578   4.540  0.00  0.00     0.014 A 
BRANCH  23  27
HETATM   27  N   UNK N   1      32.912  16.144   2.612  0.00  0.00    -0.399 N 
HETATM   28  H   UNK N   1      32.817  16.691   1.799  0.00  0.00     0.156 HD
HETATM   29  H   UNK N   1      33.808  15.962   2.980  0.00  0.00     0.156 HD
ENDBRANCH  23  27
ENDBRANCH  11  21
TORSDOF 7
ENDMDL
