REMARK  7 active torsions:
REMARK  status: ('A' for Active; 'I' for Inactive)
REMARK    1  A    between atoms: O_1  and  C_2 
REMARK    2  A    between atoms: C_2  and  C_3 
REMARK    3  A    between atoms: C_3  and  C_4 
REMARK    4  A    between atoms: C_3  and  N_7 
REMARK    5  A    between atoms: N_7  and  C_8 
REMARK    6  A    between atoms: C_18  and  C_19 
REMARK    7  A    between atoms: C_24  and  N_25 
ROOT
HETATM    1  C   UNK N   1       1.061  -0.953   0.439  0.00  0.00     0.116 A 
HETATM    2  C   UNK N   1       0.956  -2.361   0.493  0.00  0.00     0.053 A 
HETATM    3  C   UNK N   1      -0.294  -2.980   0.322  0.00  0.00     0.054 A 
HETATM    4  N   UNK N   1      -0.064  -0.212   0.256  0.00  0.00    -0.277 N 
ATOM      5  HN  UNK N   1      -0.013   0.807   0.247  1.00  0.00     0.189 HD
HETATM    6  N   UNK N   1      -1.233  -0.825   0.087  0.00  0.00    -0.236 N 
HETATM    7  C   UNK N   1      -1.384  -2.148   0.111  0.00  0.00     0.127 A 
HETATM    8  N   UNK N   1      -2.668  -2.517  -0.070  0.00  0.00    -0.349 N 
ATOM      9  HN  UNK N   1      -3.045  -3.464  -0.096  1.00  0.00     0.167 HD
HETATM   10  C   UNK N   1      -3.353  -1.348  -0.210  0.00  0.00     0.122 A 
HETATM   11  C   UNK N   1      -2.445  -0.295  -0.110  0.00  0.00     0.084 A 
ENDROOT
BRANCH   1  12
HETATM   12  N   UNK N   1       2.292  -0.282   0.653  0.00  0.00    -0.368 N 
HETATM   13  H   UNK N   1       2.322   0.362   1.396  0.00  0.00     0.161 HD
BRANCH  12  14
HETATM   14  C   UNK N   1       3.513  -0.452  -0.116  0.00  0.00     0.110 C 
BRANCH  14  15
HETATM   15  C   UNK N   1       4.545   0.504   0.477  0.00  0.00     0.189 C 
BRANCH  15  16
HETATM   16  O   UNK N   1       5.764   0.410  -0.198  0.00  0.00    -0.399 OA
HETATM   17  H   UNK N   1       6.131  -0.356  -0.667  0.00  0.00     0.209 HD
ENDBRANCH  15  16
ENDBRANCH  14  15
BRANCH  14  18
HETATM   18  C   UNK N   1       4.090  -1.881  -0.114  0.00  0.00     0.002 C 
HETATM   19  C   UNK N   1       3.362  -2.851  -1.028  0.00  0.00     0.011 C 
HETATM   20  C   UNK N   1       4.279  -2.455   1.279  0.00  0.00     0.011 C 
ENDBRANCH  14  18
ENDBRANCH  12  14
ENDBRANCH   1  12
BRANCH  11  21
HETATM   21  C   UNK N   1      -2.742   1.151  -0.167  0.00  0.00    -0.004 A 
HETATM   22  C   UNK N   1      -4.066   1.602  -0.265  0.00  0.00     0.042 A 
HETATM   23  C   UNK N   1      -4.343   2.974  -0.264  0.00  0.00     0.026 A 
HETATM   24  C   UNK N   1      -3.301   3.900  -0.171  0.00  0.00     0.029 A 
HETATM   25  C   UNK N   1      -1.980   3.459  -0.083  0.00  0.00     0.003 A 
HETATM   26  C   UNK N   1      -1.704   2.091  -0.077  0.00  0.00     0.014 A 
BRANCH  23  27
HETATM   27  N   UNK N   1      -5.675   3.422  -0.339  0.00  0.00    -0.399 N 
HETATM   28  H   UNK N   1      -5.869   4.386  -0.392  0.00  0.00     0.156 HD
HETATM   29  H   UNK N   1      -6.414   2.771  -0.339  0.00  0.00     0.156 HD
ENDBRANCH  23  27
ENDBRANCH  11  21
TORSDOF 7
