MODEL 1
REMARK VINA RESULT:      -8.1      0.000      0.000
REMARK  3 active torsions:
REMARK  status: ('A' for Active; 'I' for Inactive)
REMARK    1  A    between atoms: C_2  and  N_3 
REMARK       I    between atoms: C_4  and  N_3 
REMARK       I    between atoms: C_4  and  N_6 
REMARK    2  A    between atoms: C_9  and  N_12 
REMARK       I    between atoms: N_12  and  C_13 
REMARK    3  A    between atoms: C_22  and  C_16 
ROOT
HETATM    1  N   UNK N   1      32.697  15.042   6.745  0.00  0.00    -0.221 N 
HETATM    2  C   UNK N   1      31.333  15.159   6.399  0.00  0.00     0.678 A 
HETATM    3  N   UNK N   1      30.621  16.251   6.783  0.00  0.00    -0.189 N 
ATOM      4  HN  UNK N   1      31.081  16.970   7.343  1.00  0.00     0.184 HD
HETATM    5  C   UNK N   1      29.313  16.411   6.442  0.00  0.00     0.084 A 
HETATM    6  C   UNK N   1      28.702  15.429   5.627  0.00  0.00     0.078 A 
HETATM    7  C   UNK N   1      29.455  14.317   5.251  0.00  0.00     0.132 A 
HETATM    8  N   UNK N   1      30.745  14.194   5.652  0.00  0.00    -0.200 N 
ATOM      9  HN  UNK N   1      31.276  13.364   5.389  1.00  0.00     0.183 HD
HETATM   10 Cl   UNK N   1      27.036  15.509   5.070  0.00  0.00    -0.080 Cl
HETATM   11  H   UNK N   1      33.046  14.179   7.065  0.00  0.00     0.178 HD
ENDROOT
BRANCH   1  12
HETATM   12  C   UNK N   1      33.584  16.178   6.632  0.00  0.00     0.102 C 
HETATM   13  C   UNK N   1      33.409  17.133   7.795  0.00  0.00     0.045 C 
HETATM   14  C   UNK N   1      33.687  16.490   9.157  0.00  0.00     0.129 C 
HETATM   15  N   UNK N   1      34.529  15.292   9.141  0.00  0.00    -0.334 N 
HETATM   16  C   UNK N   1      34.593  14.540  10.280  0.00  0.00     0.318 C 
HETATM   17  C   UNK N   1      35.240  14.834   7.948  0.00  0.00     0.129 C 
HETATM   18  N   UNK N   1      35.275  13.365  10.289  0.00  0.00    -0.343 N 
HETATM   19  O   UNK N   1      34.006  14.908  11.291  0.00  0.00    -0.247 OA
HETATM   20  H   UNK N   1      35.750  13.079   9.475  0.00  0.00     0.164 HD
HETATM   21  C   UNK N   1      35.023  15.698   6.702  0.00  0.00     0.045 C 
BRANCH  18  22
HETATM   22  C   UNK N   1      35.319  12.527  11.461  0.00  0.00     0.120 C 
HETATM   23  C   UNK N   1      36.626  12.746  12.194  0.00  0.00     0.026 C 
ENDBRANCH  18  22
ENDBRANCH   1  12
BRANCH   5  24
HETATM   24  C   UNK N   1      28.588  17.596   6.978  0.00  0.00     0.021 A 
HETATM   25  C   UNK N   1      28.260  17.872   8.306  0.00  0.00     0.103 A 
HETATM   26  N   UNK N   1      27.642  19.077   8.390  0.00  0.00    -0.364 N 
HETATM   27  C   UNK N   1      27.583  19.554   7.136  0.00  0.00     0.043 A 
HETATM   28  H   UNK N   1      27.304  19.512   9.205  0.00  0.00     0.165 HD
HETATM   29  C   UNK N   1      27.046  20.774   6.731  0.00  0.00     0.030 A 
HETATM   30  C   UNK N   1      28.146  18.682   6.249  0.00  0.00     0.004 A 
HETATM   31  C   UNK N   1      27.095  21.090   5.361  0.00  0.00     0.002 A 
HETATM   32  C   UNK N   1      27.676  20.189   4.441  0.00  0.00     0.001 A 
HETATM   33  C   UNK N   1      28.212  18.967   4.885  0.00  0.00     0.014 A 
ENDBRANCH   5  24
TORSDOF 3
ENDMDL
MODEL 2
REMARK VINA RESULT:      -8.0      8.619     12.272
REMARK  3 active torsions:
REMARK  status: ('A' for Active; 'I' for Inactive)
REMARK    1  A    between atoms: C_2  and  N_3 
REMARK       I    between atoms: C_4  and  N_3 
REMARK       I    between atoms: C_4  and  N_6 
REMARK    2  A    between atoms: C_9  and  N_12 
REMARK       I    between atoms: N_12  and  C_13 
REMARK    3  A    between atoms: C_22  and  C_16 
ROOT
HETATM    1  N   UNK N   1      22.452  16.069   5.682  0.00  0.00    -0.221 N 
HETATM    2  C   UNK N   1      22.866  14.751   5.969  0.00  0.00     0.678 A 
HETATM    3  N   UNK N   1      23.150  14.386   7.246  0.00  0.00    -0.189 N 
ATOM      4  HN  UNK N   1      23.082  15.083   7.988  1.00  0.00     0.184 HD
HETATM    5  C   UNK N   1      23.523  13.116   7.564  0.00  0.00     0.084 A 
HETATM    6  C   UNK N   1      23.569  12.147   6.533  0.00  0.00     0.078 A 
HETATM    7  C   UNK N   1      23.276  12.550   5.231  0.00  0.00     0.132 A 
HETATM    8  N   UNK N   1      22.946  13.840   4.969  0.00  0.00    -0.200 N 
ATOM      9  HN  UNK N   1      22.758  14.126   4.009  1.00  0.00     0.183 HD
HETATM   10 Cl   UNK N   1      23.994  10.460   6.785  0.00  0.00    -0.080 Cl
HETATM   11  H   UNK N   1      22.821  16.536   4.898  0.00  0.00     0.178 HD
ENDROOT
BRANCH   1  12
HETATM   12  C   UNK N   1      21.490  16.739   6.529  0.00  0.00     0.102 C 
HETATM   13  C   UNK N   1      21.486  18.235   6.284  0.00  0.00     0.045 C 
HETATM   14  C   UNK N   1      21.142  18.613   4.841  0.00  0.00     0.129 C 
HETATM   15  N   UNK N   1      20.402  17.609   4.073  0.00  0.00    -0.334 N 
HETATM   16  C   UNK N   1      20.297  17.785   2.722  0.00  0.00     0.318 C 
HETATM   17  C   UNK N   1      19.837  16.402   4.677  0.00  0.00     0.129 C 
HETATM   18  N   UNK N   1      19.712  16.833   1.950  0.00  0.00    -0.343 N 
HETATM   19  O   UNK N   1      20.762  18.790   2.198  0.00  0.00    -0.247 OA
HETATM   20  H   UNK N   1      19.335  16.031   2.379  0.00  0.00     0.164 HD
HETATM   21  C   UNK N   1      20.093  16.258   6.181  0.00  0.00     0.045 C 
BRANCH  18  22
HETATM   22  C   UNK N   1      19.632  16.969   0.517  0.00  0.00     0.120 C 
HETATM   23  C   UNK N   1      19.053  15.704  -0.082  0.00  0.00     0.026 C 
ENDBRANCH  18  22
ENDBRANCH   1  12
BRANCH   5  24
HETATM   24  C   UNK N   1      23.898  12.826   8.976  0.00  0.00     0.021 A 
HETATM   25  C   UNK N   1      25.170  12.859   9.549  0.00  0.00     0.103 A 
HETATM   26  N   UNK N   1      25.088  12.581  10.874  0.00  0.00    -0.364 N 
HETATM   27  C   UNK N   1      23.786  12.378  11.133  0.00  0.00     0.043 A 
HETATM   28  H   UNK N   1      25.833  12.536  11.516  0.00  0.00     0.165 HD
HETATM   29  C   UNK N   1      23.217  12.079  12.369  0.00  0.00     0.030 A 
HETATM   30  C   UNK N   1      23.031  12.516  10.004  0.00  0.00     0.004 A 
HETATM   31  C   UNK N   1      21.821  11.915  12.426  0.00  0.00     0.002 A 
HETATM   32  C   UNK N   1      21.037  12.056  11.259  0.00  0.00     0.001 A 
HETATM   33  C   UNK N   1      21.644  12.363  10.029  0.00  0.00     0.014 A 
ENDBRANCH   5  24
TORSDOF 3
ENDMDL
MODEL 3
REMARK VINA RESULT:      -7.9      3.277      8.608
REMARK  3 active torsions:
REMARK  status: ('A' for Active; 'I' for Inactive)
REMARK    1  A    between atoms: C_2  and  N_3 
REMARK       I    between atoms: C_4  and  N_3 
REMARK       I    between atoms: C_4  and  N_6 
REMARK    2  A    between atoms: C_9  and  N_12 
REMARK       I    between atoms: N_12  and  C_13 
REMARK    3  A    between atoms: C_22  and  C_16 
ROOT
HETATM    1  N   UNK N   1      29.368  17.015   5.613  0.00  0.00    -0.221 N 
HETATM    2  C   UNK N   1      30.722  16.622   5.558  0.00  0.00     0.678 A 
HETATM    3  N   UNK N   1      31.562  16.912   6.585  0.00  0.00    -0.189 N 
ATOM      4  HN  UNK N   1      31.204  17.436   7.385  1.00  0.00     0.184 HD
HETATM    5  C   UNK N   1      32.866  16.522   6.579  0.00  0.00     0.084 A 
HETATM    6  C   UNK N   1      33.337  15.756   5.486  0.00  0.00     0.078 A 
HETATM    7  C   UNK N   1      32.455  15.476   4.443  0.00  0.00     0.132 A 
HETATM    8  N   UNK N   1      31.175  15.923   4.488  0.00  0.00    -0.200 N 
ATOM      9  HN  UNK N   1      30.547  15.732   3.707  1.00  0.00     0.183 HD
HETATM   10 Cl   UNK N   1      34.980  15.145   5.347  0.00  0.00    -0.080 Cl
HETATM   11  H   UNK N   1      28.940  17.402   4.816  0.00  0.00     0.178 HD
ENDROOT
BRANCH   1  12
HETATM   12  C   UNK N   1      28.605  16.854   6.831  0.00  0.00     0.102 C 
HETATM   13  C   UNK N   1      28.513  18.156   7.601  0.00  0.00     0.045 C 
HETATM   14  C   UNK N   1      27.847  19.285   6.809  0.00  0.00     0.129 C 
HETATM   15  N   UNK N   1      26.977  18.869   5.707  0.00  0.00    -0.334 N 
HETATM   16  C   UNK N   1      26.570  19.823   4.818  0.00  0.00     0.318 C 
HETATM   17  C   UNK N   1      26.588  17.477   5.480  0.00  0.00     0.129 C 
HETATM   18  N   UNK N   1      25.849  19.475   3.720  0.00  0.00    -0.343 N 
HETATM   19  O   UNK N   1      26.884  20.995   4.990  0.00  0.00    -0.247 OA
HETATM   20  H   UNK N   1      25.595  18.533   3.591  0.00  0.00     0.164 HD
HETATM   21  C   UNK N   1      27.176  16.477   6.481  0.00  0.00     0.045 C 
BRANCH  18  22
HETATM   22  C   UNK N   1      25.448  20.453   2.740  0.00  0.00     0.120 C 
HETATM   23  C   UNK N   1      23.947  20.648   2.800  0.00  0.00     0.026 C 
ENDBRANCH  18  22
ENDBRANCH   1  12
BRANCH   5  24
HETATM   24  C   UNK N   1      33.735  16.956   7.708  0.00  0.00     0.021 A 
HETATM   25  C   UNK N   1      34.343  18.198   7.893  0.00  0.00     0.103 A 
HETATM   26  N   UNK N   1      35.014  18.215   9.072  0.00  0.00    -0.364 N 
HETATM   27  C   UNK N   1      34.829  17.004   9.623  0.00  0.00     0.043 A 
HETATM   28  H   UNK N   1      35.532  18.963   9.447  0.00  0.00     0.165 HD
HETATM   29  C   UNK N   1      35.319  16.562  10.849  0.00  0.00     0.030 A 
HETATM   30  C   UNK N   1      34.059  16.210   8.823  0.00  0.00     0.004 A 
HETATM   31  C   UNK N   1      34.999  15.252  11.250  0.00  0.00     0.002 A 
HETATM   32  C   UNK N   1      34.203  14.427  10.424  0.00  0.00     0.001 A 
HETATM   33  C   UNK N   1      33.722  14.908   9.193  0.00  0.00     0.014 A 
ENDBRANCH   5  24
TORSDOF 3
ENDMDL
MODEL 4
REMARK VINA RESULT:      -7.6      2.048      2.861
REMARK  3 active torsions:
REMARK  status: ('A' for Active; 'I' for Inactive)
REMARK    1  A    between atoms: C_2  and  N_3 
REMARK       I    between atoms: C_4  and  N_3 
REMARK       I    between atoms: C_4  and  N_6 
REMARK    2  A    between atoms: C_9  and  N_12 
REMARK       I    between atoms: N_12  and  C_13 
REMARK    3  A    between atoms: C_22  and  C_16 
ROOT
HETATM    1  N   UNK N   1      33.161  16.363   7.154  0.00  0.00    -0.221 N 
HETATM    2  C   UNK N   1      31.915  16.910   7.529  0.00  0.00     0.678 A 
HETATM    3  N   UNK N   1      30.823  16.726   6.742  0.00  0.00    -0.189 N 
ATOM      4  HN  UNK N   1      30.922  16.206   5.869  1.00  0.00     0.184 HD
HETATM    5  C   UNK N   1      29.599  17.213   7.087  0.00  0.00     0.084 A 
HETATM    6  C   UNK N   1      29.465  17.890   8.322  0.00  0.00     0.078 A 
HETATM    7  C   UNK N   1      30.603  18.068   9.108  0.00  0.00     0.132 A 
HETATM    8  N   UNK N   1      31.804  17.592   8.694  0.00  0.00    -0.200 N 
ATOM      9  HN  UNK N   1      32.633  17.750   9.268  1.00  0.00     0.183 HD
HETATM   10 Cl   UNK N   1      27.949  18.543   8.927  0.00  0.00    -0.080 Cl
HETATM   11  H   UNK N   1      33.979  16.903   7.249  0.00  0.00     0.178 HD
ENDROOT
BRANCH   1  12
HETATM   12  C   UNK N   1      33.247  15.017   6.634  0.00  0.00     0.102 C 
HETATM   13  C   UNK N   1      34.680  14.638   6.316  0.00  0.00     0.045 C 
HETATM   14  C   UNK N   1      35.608  14.701   7.533  0.00  0.00     0.129 C 
HETATM   15  N   UNK N   1      34.959  14.608   8.842  0.00  0.00    -0.334 N 
HETATM   16  C   UNK N   1      35.701  14.915   9.947  0.00  0.00     0.318 C 
HETATM   17  C   UNK N   1      33.545  14.270   9.008  0.00  0.00     0.129 C 
HETATM   18  N   UNK N   1      35.121  14.945  11.175  0.00  0.00    -0.343 N 
HETATM   19  O   UNK N   1      36.887  15.199   9.830  0.00  0.00    -0.247 OA
HETATM   20  H   UNK N   1      34.168  14.711  11.263  0.00  0.00     0.164 HD
HETATM   21  C   UNK N   1      32.785  14.037   7.698  0.00  0.00     0.045 C 
BRANCH  18  22
HETATM   22  C   UNK N   1      35.866  15.314  12.353  0.00  0.00     0.120 C 
HETATM   23  C   UNK N   1      36.060  14.097  13.233  0.00  0.00     0.026 C 
ENDBRANCH  18  22
ENDBRANCH   1  12
BRANCH   5  24
HETATM   24  C   UNK N   1      28.477  17.037   6.124  0.00  0.00     0.021 A 
HETATM   25  C   UNK N   1      27.743  15.879   5.865  0.00  0.00     0.103 A 
HETATM   26  N   UNK N   1      26.771  16.140   4.955  0.00  0.00    -0.364 N 
HETATM   27  C   UNK N   1      26.888  17.442   4.647  0.00  0.00     0.043 A 
HETATM   28  H   UNK N   1      26.113  15.504   4.593  0.00  0.00     0.165 HD
HETATM   29  C   UNK N   1      26.092  18.166   3.763  0.00  0.00     0.030 A 
HETATM   30  C   UNK N   1      27.916  18.021   5.336  0.00  0.00     0.004 A 
HETATM   31  C   UNK N   1      26.378  19.533   3.591  0.00  0.00     0.002 A 
HETATM   32  C   UNK N   1      27.441  20.135   4.300  0.00  0.00     0.001 A 
HETATM   33  C   UNK N   1      28.223  19.374   5.188  0.00  0.00     0.014 A 
ENDBRANCH   5  24
TORSDOF 3
ENDMDL
MODEL 5
REMARK VINA RESULT:      -7.6      4.513      9.186
REMARK  3 active torsions:
REMARK  status: ('A' for Active; 'I' for Inactive)
REMARK    1  A    between atoms: C_2  and  N_3 
REMARK       I    between atoms: C_4  and  N_3 
REMARK       I    between atoms: C_4  and  N_6 
REMARK    2  A    between atoms: C_9  and  N_12 
REMARK       I    between atoms: N_12  and  C_13 
REMARK    3  A    between atoms: C_22  and  C_16 
ROOT
HETATM    1  N   UNK N   1      34.477  15.962   8.668  0.00  0.00    -0.221 N 
HETATM    2  C   UNK N   1      35.285  14.953   9.235  0.00  0.00     0.678 A 
HETATM    3  N   UNK N   1      35.194  14.669  10.561  0.00  0.00    -0.189 N 
ATOM      4  HN  UNK N   1      34.551  15.210  11.141  1.00  0.00     0.184 HD
HETATM    5  C   UNK N   1      35.935  13.683  11.136  0.00  0.00     0.084 A 
HETATM    6  C   UNK N   1      36.788  12.911  10.312  0.00  0.00     0.078 A 
HETATM    7  C   UNK N   1      36.865  13.227   8.956  0.00  0.00     0.132 A 
HETATM    8  N   UNK N   1      36.129  14.246   8.446  0.00  0.00    -0.200 N 
ATOM      9  HN  UNK N   1      36.213  14.481   7.457  1.00  0.00     0.183 HD
HETATM   10 Cl   UNK N   1      37.779  11.580  10.894  0.00  0.00    -0.080 Cl
HETATM   11  H   UNK N   1      34.870  16.597   8.025  0.00  0.00     0.178 HD
ENDROOT
BRANCH   1  12
HETATM   12  C   UNK N   1      33.079  16.071   9.020  0.00  0.00     0.102 C 
HETATM   13  C   UNK N   1      32.483  17.371   8.518  0.00  0.00     0.045 C 
HETATM   14  C   UNK N   1      32.568  17.531   6.998  0.00  0.00     0.129 C 
HETATM   15  N   UNK N   1      32.716  16.294   6.228  0.00  0.00    -0.334 N 
HETATM   16  C   UNK N   1      33.053  16.397   4.909  0.00  0.00     0.318 C 
HETATM   17  C   UNK N   1      32.587  14.964   6.826  0.00  0.00     0.129 C 
HETATM   18  N   UNK N   1      33.304  15.281   4.176  0.00  0.00    -0.343 N 
HETATM   19  O   UNK N   1      33.164  17.501   4.389  0.00  0.00    -0.247 OA
HETATM   20  H   UNK N   1      33.207  14.397   4.598  0.00  0.00     0.164 HD
HETATM   21  C   UNK N   1      32.301  14.964   8.331  0.00  0.00     0.045 C 
BRANCH  18  22
HETATM   22  C   UNK N   1      33.709  15.361   2.795  0.00  0.00     0.120 C 
HETATM   23  C   UNK N   1      34.473  14.109   2.416  0.00  0.00     0.026 C 
ENDBRANCH  18  22
ENDBRANCH   1  12
BRANCH   5  24
HETATM   24  C   UNK N   1      35.834  13.498  12.610  0.00  0.00     0.021 A 
HETATM   25  C   UNK N   1      36.330  14.329  13.615  0.00  0.00     0.103 A 
HETATM   26  N   UNK N   1      35.989  13.838  14.833  0.00  0.00    -0.364 N 
HETATM   27  C   UNK N   1      35.286  12.717  14.600  0.00  0.00     0.043 A 
HETATM   28  H   UNK N   1      36.212  14.225  15.710  0.00  0.00     0.165 HD
HETATM   29  C   UNK N   1      34.713  11.879  15.552  0.00  0.00     0.030 A 
HETATM   30  C   UNK N   1      35.172  12.476  13.261  0.00  0.00     0.004 A 
HETATM   31  C   UNK N   1      34.002  10.754  15.094  0.00  0.00     0.002 A 
HETATM   32  C   UNK N   1      33.884  10.501  13.709  0.00  0.00     0.001 A 
HETATM   33  C   UNK N   1      34.473  11.370  12.775  0.00  0.00     0.014 A 
ENDBRANCH   5  24
TORSDOF 3
ENDMDL
MODEL 6
REMARK VINA RESULT:      -7.5      5.533      9.072
REMARK  3 active torsions:
REMARK  status: ('A' for Active; 'I' for Inactive)
REMARK    1  A    between atoms: C_2  and  N_3 
REMARK       I    between atoms: C_4  and  N_3 
REMARK       I    between atoms: C_4  and  N_6 
REMARK    2  A    between atoms: C_9  and  N_12 
REMARK       I    between atoms: N_12  and  C_13 
REMARK    3  A    between atoms: C_22  and  C_16 
ROOT
HETATM    1  N   UNK N   1      24.853  14.910   6.890  0.00  0.00    -0.221 N 
HETATM    2  C   UNK N   1      25.649  16.013   6.513  0.00  0.00     0.678 A 
HETATM    3  N   UNK N   1      26.782  16.307   7.202  0.00  0.00    -0.189 N 
ATOM      4  HN  UNK N   1      27.036  15.733   8.007  1.00  0.00     0.184 HD
HETATM    5  C   UNK N   1      27.589  17.345   6.848  0.00  0.00     0.084 A 
HETATM    6  C   UNK N   1      27.250  18.104   5.703  0.00  0.00     0.078 A 
HETATM    7  C   UNK N   1      26.079  17.783   5.017  0.00  0.00     0.132 A 
HETATM    8  N   UNK N   1      25.295  16.760   5.439  0.00  0.00    -0.200 N 
ATOM      9  HN  UNK N   1      24.429  16.551   4.942  1.00  0.00     0.183 HD
HETATM   10 Cl   UNK N   1      28.206  19.448   5.095  0.00  0.00    -0.080 Cl
HETATM   11  H   UNK N   1      23.873  15.001   6.914  0.00  0.00     0.178 HD
ENDROOT
BRANCH   1  12
HETATM   12  C   UNK N   1      25.465  13.647   7.239  0.00  0.00     0.102 C 
HETATM   13  C   UNK N   1      24.796  13.025   8.449  0.00  0.00     0.045 C 
HETATM   14  C   UNK N   1      23.304  12.750   8.242  0.00  0.00     0.129 C 
HETATM   15  N   UNK N   1      22.858  12.633   6.852  0.00  0.00    -0.334 N 
HETATM   16  C   UNK N   1      21.514  12.647   6.607  0.00  0.00     0.318 C 
HETATM   17  C   UNK N   1      23.785  12.574   5.721  0.00  0.00     0.129 C 
HETATM   18  N   UNK N   1      21.050  12.647   5.330  0.00  0.00    -0.343 N 
HETATM   19  O   UNK N   1      20.722  12.695   7.540  0.00  0.00    -0.247 OA
HETATM   20  H   UNK N   1      21.693  12.602   4.585  0.00  0.00     0.164 HD
HETATM   21  C   UNK N   1      25.267  12.661   6.102  0.00  0.00     0.045 C 
BRANCH  18  22
HETATM   22  C   UNK N   1      19.639  12.710   5.040  0.00  0.00     0.120 C 
HETATM   23  C   UNK N   1      19.278  14.106   4.577  0.00  0.00     0.026 C 
ENDBRANCH  18  22
ENDBRANCH   1  12
BRANCH   5  24
HETATM   24  C   UNK N   1      28.765  17.646   7.711  0.00  0.00     0.021 A 
HETATM   25  C   UNK N   1      28.766  18.087   9.034  0.00  0.00     0.103 A 
HETATM   26  N   UNK N   1      30.042  18.198   9.484  0.00  0.00    -0.364 N 
HETATM   27  C   UNK N   1      30.831  17.831   8.461  0.00  0.00     0.043 A 
HETATM   28  H   UNK N   1      30.330  18.491  10.378  0.00  0.00     0.165 HD
HETATM   29  C   UNK N   1      32.222  17.771   8.461  0.00  0.00     0.030 A 
HETATM   30  C   UNK N   1      30.092  17.490   7.365  0.00  0.00     0.004 A 
HETATM   31  C   UNK N   1      32.860  17.346   7.282  0.00  0.00     0.002 A 
HETATM   32  C   UNK N   1      32.099  16.994   6.145  0.00  0.00     0.001 A 
HETATM   33  C   UNK N   1      30.695  17.063   6.182  0.00  0.00     0.014 A 
ENDBRANCH   5  24
TORSDOF 3
ENDMDL
MODEL 7
REMARK VINA RESULT:      -7.5      4.658      7.903
REMARK  3 active torsions:
REMARK  status: ('A' for Active; 'I' for Inactive)
REMARK    1  A    between atoms: C_2  and  N_3 
REMARK       I    between atoms: C_4  and  N_3 
REMARK       I    between atoms: C_4  and  N_6 
REMARK    2  A    between atoms: C_9  and  N_12 
REMARK       I    between atoms: N_12  and  C_13 
REMARK    3  A    between atoms: C_22  and  C_16 
ROOT
HETATM    1  N   UNK N   1      34.725  12.320  13.962  0.00  0.00    -0.221 N 
HETATM    2  C   UNK N   1      34.911  12.514  12.577  0.00  0.00     0.678 A 
HETATM    3  N   UNK N   1      34.772  13.752  12.035  0.00  0.00    -0.189 N 
ATOM      4  HN  UNK N   1      34.512  14.532  12.640  1.00  0.00     0.184 HD
HETATM    5  C   UNK N   1      34.974  13.982  10.708  0.00  0.00     0.084 A 
HETATM    6  C   UNK N   1      35.380  12.902   9.889  0.00  0.00     0.078 A 
HETATM    7  C   UNK N   1      35.510  11.641  10.471  0.00  0.00     0.132 A 
HETATM    8  N   UNK N   1      35.260  11.466  11.793  0.00  0.00    -0.200 N 
ATOM      9  HN  UNK N   1      35.336  10.534  12.200  1.00  0.00     0.183 HD
HETATM   10 Cl   UNK N   1      35.717  13.042   8.169  0.00  0.00    -0.080 Cl
HETATM   11  H   UNK N   1      34.215  11.541  14.281  0.00  0.00     0.178 HD
ENDROOT
BRANCH   1  12
HETATM   12  C   UNK N   1      35.278  13.255  14.917  0.00  0.00     0.102 C 
HETATM   13  C   UNK N   1      34.825  12.936  16.328  0.00  0.00     0.045 C 
HETATM   14  C   UNK N   1      35.232  11.535  16.794  0.00  0.00     0.129 C 
HETATM   15  N   UNK N   1      36.365  10.928  16.092  0.00  0.00    -0.334 N 
HETATM   16  C   UNK N   1      36.601   9.597  16.289  0.00  0.00     0.318 C 
HETATM   17  C   UNK N   1      37.201  11.664  15.144  0.00  0.00     0.129 C 
HETATM   18  N   UNK N   1      37.572   8.962  15.584  0.00  0.00    -0.343 N 
HETATM   19  O   UNK N   1      35.913   8.963  17.080  0.00  0.00    -0.247 OA
HETATM   20  H   UNK N   1      38.126   9.478  14.954  0.00  0.00     0.164 HD
HETATM   21  C   UNK N   1      36.790  13.125  14.927  0.00  0.00     0.045 C 
BRANCH  18  22
HETATM   22  C   UNK N   1      37.812   7.548  15.735  0.00  0.00     0.120 C 
HETATM   23  C   UNK N   1      39.102   7.329  16.497  0.00  0.00     0.026 C 
ENDBRANCH  18  22
ENDBRANCH   1  12
BRANCH   5  24
HETATM   24  C   UNK N   1      34.718  15.353  10.186  0.00  0.00     0.021 A 
HETATM   25  C   UNK N   1      35.471  16.506  10.401  0.00  0.00     0.103 A 
HETATM   26  N   UNK N   1      34.935  17.546   9.712  0.00  0.00    -0.364 N 
HETATM   27  C   UNK N   1      33.862  17.054   9.071  0.00  0.00     0.043 A 
HETATM   28  H   UNK N   1      35.265  18.472   9.688  0.00  0.00     0.165 HD
HETATM   29  C   UNK N   1      33.004  17.751   8.225  0.00  0.00     0.030 A 
HETATM   30  C   UNK N   1      33.696  15.724   9.336  0.00  0.00     0.004 A 
HETATM   31  C   UNK N   1      31.939  17.041   7.641  0.00  0.00     0.002 A 
HETATM   32  C   UNK N   1      31.762  15.666   7.914  0.00  0.00     0.001 A 
HETATM   33  C   UNK N   1      32.651  14.993   8.770  0.00  0.00     0.014 A 
ENDBRANCH   5  24
TORSDOF 3
ENDMDL
MODEL 8
REMARK VINA RESULT:      -7.4      5.365     10.978
REMARK  3 active torsions:
REMARK  status: ('A' for Active; 'I' for Inactive)
REMARK    1  A    between atoms: C_2  and  N_3 
REMARK       I    between atoms: C_4  and  N_3 
REMARK       I    between atoms: C_4  and  N_6 
REMARK    2  A    between atoms: C_9  and  N_12 
REMARK       I    between atoms: N_12  and  C_13 
REMARK    3  A    between atoms: C_22  and  C_16 
ROOT
HETATM    1  N   UNK N   1      34.467  12.780  10.981  0.00  0.00    -0.221 N 
HETATM    2  C   UNK N   1      35.113  13.240  12.149  0.00  0.00     0.678 A 
HETATM    3  N   UNK N   1      35.367  12.383  13.172  0.00  0.00    -0.189 N 
ATOM      4  HN  UNK N   1      35.065  11.412  13.092  1.00  0.00     0.184 HD
HETATM    5  C   UNK N   1      36.015  12.784  14.300  0.00  0.00     0.084 A 
HETATM    6  C   UNK N   1      36.470  14.122  14.379  0.00  0.00     0.078 A 
HETATM    7  C   UNK N   1      36.192  14.981  13.316  0.00  0.00     0.132 A 
HETATM    8  N   UNK N   1      35.510  14.533  12.233  0.00  0.00    -0.200 N 
ATOM      9  HN  UNK N   1      35.293  15.178  11.473  1.00  0.00     0.183 HD
HETATM   10 Cl   UNK N   1      37.354  14.782  15.748  0.00  0.00    -0.080 Cl
HETATM   11  H   UNK N   1      33.757  13.325  10.571  0.00  0.00     0.178 HD
ENDROOT
BRANCH   1  12
HETATM   12  C   UNK N   1      34.839  11.518  10.383  0.00  0.00     0.102 C 
HETATM   13  C   UNK N   1      33.658  10.864   9.694  0.00  0.00     0.045 C 
HETATM   14  C   UNK N   1      33.055  11.721   8.577  0.00  0.00     0.129 C 
HETATM   15  N   UNK N   1      33.937  12.739   8.001  0.00  0.00    -0.334 N 
HETATM   16  C   UNK N   1      33.377  13.689   7.195  0.00  0.00     0.318 C 
HETATM   17  C   UNK N   1      35.365  12.820   8.307  0.00  0.00     0.129 C 
HETATM   18  N   UNK N   1      34.130  14.714   6.719  0.00  0.00    -0.343 N 
HETATM   19  O   UNK N   1      32.183  13.638   6.926  0.00  0.00    -0.247 OA
HETATM   20  H   UNK N   1      35.090  14.746   6.935  0.00  0.00     0.164 HD
HETATM   21  C   UNK N   1      35.870  11.763   9.295  0.00  0.00     0.045 C 
BRANCH  18  22
HETATM   22  C   UNK N   1      33.556  15.758   5.907  0.00  0.00     0.120 C 
HETATM   23  C   UNK N   1      33.951  17.110   6.463  0.00  0.00     0.026 C 
ENDBRANCH  18  22
ENDBRANCH   1  12
BRANCH   5  24
HETATM   24  C   UNK N   1      36.175  11.799  15.406  0.00  0.00     0.021 A 
HETATM   25  C   UNK N   1      36.763  10.536  15.350  0.00  0.00     0.103 A 
HETATM   26  N   UNK N   1      36.759   9.967  16.582  0.00  0.00    -0.364 N 
HETATM   27  C   UNK N   1      36.179  10.859  17.402  0.00  0.00     0.043 A 
HETATM   28  H   UNK N   1      37.108   9.080  16.824  0.00  0.00     0.165 HD
HETATM   29  C   UNK N   1      35.969  10.719  18.771  0.00  0.00     0.030 A 
HETATM   30  C   UNK N   1      35.809  11.985  16.724  0.00  0.00     0.004 A 
HETATM   31  C   UNK N   1      35.351  11.784  19.452  0.00  0.00     0.002 A 
HETATM   32  C   UNK N   1      34.965  12.950  18.753  0.00  0.00     0.001 A 
HETATM   33  C   UNK N   1      35.196  13.059  17.371  0.00  0.00     0.014 A 
ENDBRANCH   5  24
TORSDOF 3
ENDMDL
MODEL 9
REMARK VINA RESULT:      -7.3     13.079     15.600
REMARK  3 active torsions:
REMARK  status: ('A' for Active; 'I' for Inactive)
REMARK    1  A    between atoms: C_2  and  N_3 
REMARK       I    between atoms: C_4  and  N_3 
REMARK       I    between atoms: C_4  and  N_6 
REMARK    2  A    between atoms: C_9  and  N_12 
REMARK       I    between atoms: N_12  and  C_13 
REMARK    3  A    between atoms: C_22  and  C_16 
ROOT
HETATM    1  N   UNK N   1      29.476  23.032  -4.272  0.00  0.00    -0.221 N 
HETATM    2  C   UNK N   1      28.617  23.826  -5.062  0.00  0.00     0.678 A 
HETATM    3  N   UNK N   1      28.124  24.994  -4.574  0.00  0.00    -0.189 N 
ATOM      4  HN  UNK N   1      28.366  25.276  -3.623  1.00  0.00     0.184 HD
HETATM    5  C   UNK N   1      27.318  25.800  -5.318  0.00  0.00     0.084 A 
HETATM    6  C   UNK N   1      27.028  25.421  -6.651  0.00  0.00     0.078 A 
HETATM    7  C   UNK N   1      27.544  24.215  -7.124  0.00  0.00     0.132 A 
HETATM    8  N   UNK N   1      28.312  23.436  -6.323  0.00  0.00    -0.200 N 
ATOM      9  HN  UNK N   1      28.663  22.545  -6.675  1.00  0.00     0.183 HD
HETATM   10 Cl   UNK N   1      26.037  26.369  -7.750  0.00  0.00    -0.080 Cl
HETATM   11  H   UNK N   1      29.352  22.055  -4.248  0.00  0.00     0.178 HD
ENDROOT
BRANCH   1  12
HETATM   12  C   UNK N   1      30.537  23.639  -3.500  0.00  0.00     0.102 C 
HETATM   13  C   UNK N   1      31.178  22.638  -2.560  0.00  0.00     0.045 C 
HETATM   14  C   UNK N   1      31.791  21.434  -3.281  0.00  0.00     0.129 C 
HETATM   15  N   UNK N   1      32.128  21.633  -4.692  0.00  0.00    -0.334 N 
HETATM   16  C   UNK N   1      32.431  20.531  -5.440  0.00  0.00     0.318 C 
HETATM   17  C   UNK N   1      32.084  22.943  -5.344  0.00  0.00     0.129 C 
HETATM   18  N   UNK N   1      32.649  20.647  -6.776  0.00  0.00    -0.343 N 
HETATM   19  O   UNK N   1      32.474  19.426  -4.912  0.00  0.00    -0.247 OA
HETATM   20  H   UNK N   1      32.618  21.539  -7.192  0.00  0.00     0.164 HD
HETATM   21  C   UNK N   1      31.641  24.095  -4.437  0.00  0.00     0.045 C 
BRANCH  18  22
HETATM   22  C   UNK N   1      32.922  19.495  -7.599  0.00  0.00     0.120 C 
HETATM   23  C   UNK N   1      34.414  19.378  -7.831  0.00  0.00     0.026 C 
ENDBRANCH  18  22
ENDBRANCH   1  12
BRANCH   5  24
HETATM   24  C   UNK N   1      26.755  27.018  -4.673  0.00  0.00     0.021 A 
HETATM   25  C   UNK N   1      25.752  27.091  -3.707  0.00  0.00     0.103 A 
HETATM   26  N   UNK N   1      25.557  28.382  -3.338  0.00  0.00    -0.364 N 
HETATM   27  C   UNK N   1      26.425  29.111  -4.058  0.00  0.00     0.043 A 
HETATM   28  H   UNK N   1      24.909  28.717  -2.677  0.00  0.00     0.165 HD
HETATM   29  C   UNK N   1      26.599  30.492  -4.006  0.00  0.00     0.030 A 
HETATM   30  C   UNK N   1      27.169  28.318  -4.883  0.00  0.00     0.004 A 
HETATM   31  C   UNK N   1      27.578  31.061  -4.841  0.00  0.00     0.002 A 
HETATM   32  C   UNK N   1      28.349  30.244  -5.697  0.00  0.00     0.001 A 
HETATM   33  C   UNK N   1      28.148  28.853  -5.722  0.00  0.00     0.014 A 
ENDBRANCH   5  24
TORSDOF 3
ENDMDL
