REMARK  2 active torsions:
REMARK  status: ('A' for Active; 'I' for Inactive)
REMARK    1  A    between atoms: N_2  and  C_19 
REMARK    2  A    between atoms: C_3  and  N_2 
ROOT
HETATM    1  N   UNK N   1       1.987   0.746  -0.590  0.00  0.00    -0.340 N 
HETATM    2  H   UNK N   1       2.867   0.310  -0.655  0.00  0.00     0.167 HD
ENDROOT
BRANCH   1   3
HETATM    3  C   UNK N   1       1.963   2.129  -0.213  0.00  0.00     0.147 A 
HETATM    4  N   UNK N   1       0.840   2.785   0.222  0.00  0.00    -0.069 N 
HETATM    5  C   UNK N   1       0.848   4.076   0.548  0.00  0.00     0.706 A 
HETATM    6  N   UNK N   1      -0.388   2.338   0.413  0.00  0.00    -0.273 N 
HETATM    7  N   UNK N   1      -0.364   4.509   0.927  0.00  0.00    -0.185 N 
HETATM    8  N   UNK N   1       1.978   4.819   0.508  0.00  0.00    -0.194 N 
HETATM    9  C   UNK N   1      -1.129   3.391   0.832  0.00  0.00     0.215 A 
ATOM     10  HN  UNK N   1      -0.642   5.446   1.216  1.00  0.00     0.185 HD
HETATM   11  C   UNK N   1       3.142   4.220   0.126  0.00  0.00     0.026 A 
ATOM     12  HN  UNK N   1       1.960   5.808   0.759  1.00  0.00     0.184 HD
HETATM   13  C   UNK N   1       3.159   2.860  -0.246  0.00  0.00     0.076 A 
HETATM   14  C   UNK N   1       4.402   5.004   0.112  0.00  0.00     0.069 C 
ATOM     15  HN  UNK N   1      -0.716   1.382   0.272  1.00  0.00     0.189 HD
ENDBRANCH   1   3
BRANCH   1  16
HETATM   16  C   UNK N   1       0.844  -0.044  -0.876  0.00  0.00     0.034 A 
HETATM   17  C   UNK N   1      -0.296   0.522  -1.463  0.00  0.00     0.030 A 
HETATM   18  C   UNK N   1      -1.502  -0.170  -1.480  0.00  0.00     0.014 A 
HETATM   19  C   UNK N   1      -1.568  -1.449  -0.937  0.00  0.00    -0.025 A 
HETATM   20  C   UNK N   1      -2.801  -2.085  -0.815  0.00  0.00     0.024 A 
HETATM   21  C   UNK N   1      -0.391  -2.081  -0.468  0.00  0.00    -0.023 A 
HETATM   22  C   UNK N   1      -2.873  -3.351  -0.236  0.00  0.00    -0.025 A 
HETATM   23  C   UNK N   1      -1.690  -4.014   0.171  0.00  0.00    -0.025 A 
HETATM   24  C   UNK N   1      -4.114  -3.961  -0.043  0.00  0.00     0.012 A 
HETATM   25  C   UNK N   1      -0.454  -3.373   0.054  0.00  0.00     0.024 A 
HETATM   26  C   UNK N   1      -1.766  -5.290   0.732  0.00  0.00     0.012 A 
HETATM   27  C   UNK N   1      -3.012  -5.898   0.912  0.00  0.00     0.001 A 
HETATM   28  C   UNK N   1      -4.184  -5.229   0.540  0.00  0.00     0.001 A 
HETATM   29  C   UNK N   1       0.811  -1.371  -0.439  0.00  0.00     0.041 A 
ENDBRANCH   1  16
TORSDOF 2
