MODEL 1
REMARK VINA RESULT:      -8.6      0.000      0.000
REMARK  2 active torsions:
REMARK  status: ('A' for Active; 'I' for Inactive)
REMARK    1  A    between atoms: N_2  and  C_19 
REMARK    2  A    between atoms: C_3  and  N_2 
ROOT
HETATM    1  N   UNK N   1      21.366  17.750   5.179  0.00  0.00    -0.340 N 
HETATM    2  H   UNK N   1      21.813  18.561   5.513  0.00  0.00     0.167 HD
ENDROOT
BRANCH   1   3
HETATM    3  C   UNK N   1      20.937  17.751   3.811  0.00  0.00     0.147 A 
HETATM    4  N   UNK N   1      20.862  18.878   3.032  0.00  0.00    -0.069 N 
HETATM    5  C   UNK N   1      20.442  18.846   1.769  0.00  0.00     0.706 A 
HETATM    6  N   UNK N   1      21.167  20.131   3.315  0.00  0.00    -0.273 N 
HETATM    7  N   UNK N   1      20.433  20.066   1.209  0.00  0.00    -0.185 N 
HETATM    8  N   UNK N   1      20.097  17.690   1.156  0.00  0.00    -0.194 N 
HETATM    9  C   UNK N   1      20.895  20.861   2.208  0.00  0.00     0.215 A 
ATOM     10  HN  UNK N   1      20.151  20.329   0.266  1.00  0.00     0.185 HD
HETATM   11  C   UNK N   1      20.189  16.525   1.858  0.00  0.00     0.026 A 
ATOM     12  HN  UNK N   1      19.775  17.691   0.188  1.00  0.00     0.184 HD
HETATM   13  C   UNK N   1      20.609  16.531   3.204  0.00  0.00     0.076 A 
HETATM   14  C   UNK N   1      19.854  15.240   1.195  0.00  0.00     0.069 C 
ATOM     15  HN  UNK N   1      21.537  20.482   4.199  1.00  0.00     0.189 HD
ENDBRANCH   1   3
BRANCH   1  16
HETATM   16  C   UNK N   1      21.196  16.675   6.089  0.00  0.00     0.034 A 
HETATM   17  C   UNK N   1      20.022  16.545   6.842  0.00  0.00     0.030 A 
HETATM   18  C   UNK N   1      19.968  15.676   7.926  0.00  0.00     0.014 A 
HETATM   19  C   UNK N   1      21.081  14.905   8.245  0.00  0.00    -0.025 A 
HETATM   20  C   UNK N   1      21.085  14.148   9.414  0.00  0.00     0.024 A 
HETATM   21  C   UNK N   1      22.222  14.928   7.407  0.00  0.00    -0.023 A 
HETATM   22  C   UNK N   1      22.215  13.405   9.753  0.00  0.00    -0.025 A 
HETATM   23  C   UNK N   1      23.331  13.372   8.883  0.00  0.00    -0.025 A 
HETATM   24  C   UNK N   1      22.252  12.704  10.960  0.00  0.00     0.012 A 
HETATM   25  C   UNK N   1      23.329  14.136   7.714  0.00  0.00     0.024 A 
HETATM   26  C   UNK N   1      24.452  12.610   9.219  0.00  0.00     0.012 A 
HETATM   27  C   UNK N   1      24.477  11.903  10.424  0.00  0.00     0.001 A 
HETATM   28  C   UNK N   1      23.387  11.962  11.300  0.00  0.00     0.001 A 
HETATM   29  C   UNK N   1      22.273  15.818   6.331  0.00  0.00     0.041 A 
ENDBRANCH   1  16
TORSDOF 2
ENDMDL
MODEL 2
REMARK VINA RESULT:      -8.3     13.763     16.768
REMARK  2 active torsions:
REMARK  status: ('A' for Active; 'I' for Inactive)
REMARK    1  A    between atoms: N_2  and  C_19 
REMARK    2  A    between atoms: C_3  and  N_2 
ROOT
HETATM    1  N   UNK N   1      36.858  13.627  11.924  0.00  0.00    -0.340 N 
HETATM    2  H   UNK N   1      37.683  13.149  11.678  0.00  0.00     0.167 HD
ENDROOT
BRANCH   1   3
HETATM    3  C   UNK N   1      36.216  13.245  13.148  0.00  0.00     0.147 A 
HETATM    4  N   UNK N   1      36.451  13.850  14.357  0.00  0.00    -0.069 N 
HETATM    5  C   UNK N   1      35.850  13.459  15.479  0.00  0.00     0.706 A 
HETATM    6  N   UNK N   1      37.238  14.865  14.663  0.00  0.00    -0.273 N 
HETATM    7  N   UNK N   1      36.245  14.179  16.540  0.00  0.00    -0.185 N 
HETATM    8  N   UNK N   1      34.936  12.462  15.494  0.00  0.00    -0.194 N 
HETATM    9  C   UNK N   1      37.124  15.061  15.998  0.00  0.00     0.215 A 
ATOM     10  HN  UNK N   1      35.956  14.087  17.513  1.00  0.00     0.185 HD
HETATM   11  C   UNK N   1      34.622  11.844  14.319  0.00  0.00     0.026 A 
ATOM     12  HN  UNK N   1      34.491  12.176  16.367  1.00  0.00     0.184 HD
HETATM   13  C   UNK N   1      35.258  12.222  13.119  0.00  0.00     0.076 A 
HETATM   14  C   UNK N   1      33.594  10.774  14.303  0.00  0.00     0.069 C 
ATOM     15  HN  UNK N   1      37.820  15.400  14.018  1.00  0.00     0.189 HD
ENDBRANCH   1   3
BRANCH   1  16
HETATM   16  C   UNK N   1      36.400  14.637  11.040  0.00  0.00     0.034 A 
HETATM   17  C   UNK N   1      35.895  15.850  11.529  0.00  0.00     0.030 A 
HETATM   18  C   UNK N   1      35.189  16.711  10.696  0.00  0.00     0.014 A 
HETATM   19  C   UNK N   1      35.011  16.379   9.357  0.00  0.00    -0.025 A 
HETATM   20  C   UNK N   1      34.180  17.159   8.557  0.00  0.00     0.024 A 
HETATM   21  C   UNK N   1      35.635  15.225   8.824  0.00  0.00    -0.023 A 
HETATM   22  C   UNK N   1      33.970  16.806   7.225  0.00  0.00    -0.025 A 
HETATM   23  C   UNK N   1      34.647  15.692   6.671  0.00  0.00    -0.025 A 
HETATM   24  C   UNK N   1      33.080  17.541   6.440  0.00  0.00     0.012 A 
HETATM   25  C   UNK N   1      35.475  14.906   7.476  0.00  0.00     0.024 A 
HETATM   26  C   UNK N   1      34.448  15.355   5.331  0.00  0.00     0.012 A 
HETATM   27  C   UNK N   1      33.563  16.103   4.549  0.00  0.00     0.001 A 
HETATM   28  C   UNK N   1      32.869  17.183   5.105  0.00  0.00     0.001 A 
HETATM   29  C   UNK N   1      36.326  14.358   9.673  0.00  0.00     0.041 A 
ENDBRANCH   1  16
TORSDOF 2
ENDMDL
MODEL 3
REMARK VINA RESULT:      -8.1     12.583     16.046
REMARK  2 active torsions:
REMARK  status: ('A' for Active; 'I' for Inactive)
REMARK    1  A    between atoms: N_2  and  C_19 
REMARK    2  A    between atoms: C_3  and  N_2 
ROOT
HETATM    1  N   UNK N   1      34.272  11.980  11.290  0.00  0.00    -0.340 N 
HETATM    2  H   UNK N   1      33.464  11.552  10.925  0.00  0.00     0.167 HD
ENDROOT
BRANCH   1   3
HETATM    3  C   UNK N   1      34.873  13.024  10.513  0.00  0.00     0.147 A 
HETATM    4  N   UNK N   1      34.167  14.022   9.893  0.00  0.00    -0.069 N 
HETATM    5  C   UNK N   1      34.756  14.967   9.163  0.00  0.00     0.706 A 
HETATM    6  N   UNK N   1      32.869  14.266   9.881  0.00  0.00    -0.273 N 
HETATM    7  N   UNK N   1      33.869  15.825   8.637  0.00  0.00    -0.185 N 
HETATM    8  N   UNK N   1      36.099  15.027   9.017  0.00  0.00    -0.194 N 
HETATM    9  C   UNK N   1      32.682  15.360   9.105  0.00  0.00     0.215 A 
ATOM     10  HN  UNK N   1      34.043  16.629   8.035  1.00  0.00     0.185 HD
HETATM   11  C   UNK N   1      36.868  14.091   9.643  0.00  0.00     0.026 A 
ATOM     12  HN  UNK N   1      36.529  15.759   8.450  1.00  0.00     0.184 HD
HETATM   13  C   UNK N   1      36.271  13.066  10.404  0.00  0.00     0.076 A 
HETATM   14  C   UNK N   1      38.347  14.159   9.530  0.00  0.00     0.069 C 
ATOM     15  HN  UNK N   1      32.145  13.733  10.363  1.00  0.00     0.189 HD
ENDBRANCH   1   3
BRANCH   1  16
HETATM   16  C   UNK N   1      34.748  11.514  12.543  0.00  0.00     0.034 A 
HETATM   17  C   UNK N   1      34.930  10.145  12.781  0.00  0.00     0.030 A 
HETATM   18  C   UNK N   1      35.116   9.670  14.075  0.00  0.00     0.014 A 
HETATM   19  C   UNK N   1      35.153  10.566  15.138  0.00  0.00    -0.025 A 
HETATM   20  C   UNK N   1      35.187  10.088  16.445  0.00  0.00     0.024 A 
HETATM   21  C   UNK N   1      35.109  11.960  14.890  0.00  0.00    -0.023 A 
HETATM   22  C   UNK N   1      35.186  10.985  17.512  0.00  0.00    -0.025 A 
HETATM   23  C   UNK N   1      35.211  12.379  17.266  0.00  0.00    -0.025 A 
HETATM   24  C   UNK N   1      35.145  10.510  18.824  0.00  0.00     0.012 A 
HETATM   25  C   UNK N   1      35.171  12.859  15.955  0.00  0.00     0.024 A 
HETATM   26  C   UNK N   1      35.230  13.274  18.338  0.00  0.00     0.012 A 
HETATM   27  C   UNK N   1      35.199  12.789  19.649  0.00  0.00     0.001 A 
HETATM   28  C   UNK N   1      35.141  11.412  19.891  0.00  0.00     0.001 A 
HETATM   29  C   UNK N   1      34.904  12.426  13.590  0.00  0.00     0.041 A 
ENDBRANCH   1  16
TORSDOF 2
ENDMDL
MODEL 4
REMARK VINA RESULT:      -8.1     13.333     16.728
REMARK  2 active torsions:
REMARK  status: ('A' for Active; 'I' for Inactive)
REMARK    1  A    between atoms: N_2  and  C_19 
REMARK    2  A    between atoms: C_3  and  N_2 
ROOT
HETATM    1  N   UNK N   1      35.630  14.385  13.174  0.00  0.00    -0.340 N 
HETATM    2  H   UNK N   1      35.676  15.247  13.648  0.00  0.00     0.167 HD
ENDROOT
BRANCH   1   3
HETATM    3  C   UNK N   1      35.568  14.424  11.742  0.00  0.00     0.147 A 
HETATM    4  N   UNK N   1      36.613  14.086  10.921  0.00  0.00    -0.069 N 
HETATM    5  C   UNK N   1      36.528  14.149   9.594  0.00  0.00     0.706 A 
HETATM    6  N   UNK N   1      37.824  13.651  11.218  0.00  0.00    -0.273 N 
HETATM    7  N   UNK N   1      37.675  13.791   8.996  0.00  0.00    -0.185 N 
HETATM    8  N   UNK N   1      35.388  14.517   8.965  0.00  0.00    -0.194 N 
HETATM    9  C   UNK N   1      38.479  13.481  10.045  0.00  0.00     0.215 A 
ATOM     10  HN  UNK N   1      37.889  13.759   8.000  1.00  0.00     0.185 HD
HETATM   11  C   UNK N   1      34.294  14.825   9.719  0.00  0.00     0.026 A 
ATOM     12  HN  UNK N   1      35.347  14.562   7.946  1.00  0.00     0.184 HD
HETATM   13  C   UNK N   1      34.362  14.787  11.127  0.00  0.00     0.076 A 
HETATM   14  C   UNK N   1      33.021  15.192   9.051  0.00  0.00     0.069 C 
ATOM     15  HN  UNK N   1      38.195  13.475  12.152  1.00  0.00     0.189 HD
ENDBRANCH   1   3
BRANCH   1  16
HETATM   16  C   UNK N   1      35.629  13.205  13.962  0.00  0.00     0.034 A 
HETATM   17  C   UNK N   1      35.322  11.960  13.396  0.00  0.00     0.030 A 
HETATM   18  C   UNK N   1      35.041  10.865  14.205  0.00  0.00     0.014 A 
HETATM   19  C   UNK N   1      35.098  10.999  15.589  0.00  0.00    -0.025 A 
HETATM   20  C   UNK N   1      34.674   9.952  16.403  0.00  0.00     0.024 A 
HETATM   21  C   UNK N   1      35.542  12.214  16.164  0.00  0.00    -0.023 A 
HETATM   22  C   UNK N   1      34.694  10.100  17.789  0.00  0.00    -0.025 A 
HETATM   23  C   UNK N   1      35.203  11.288  18.368  0.00  0.00    -0.025 A 
HETATM   24  C   UNK N   1      34.200   9.083  18.607  0.00  0.00     0.012 A 
HETATM   25  C   UNK N   1      35.623  12.340  17.551  0.00  0.00     0.024 A 
HETATM   26  C   UNK N   1      35.239  11.423  19.757  0.00  0.00     0.012 A 
HETATM   27  C   UNK N   1      34.752  10.395  20.570  0.00  0.00     0.001 A 
HETATM   28  C   UNK N   1      34.219   9.234  19.996  0.00  0.00     0.001 A 
HETATM   29  C   UNK N   1      35.804  13.313  15.344  0.00  0.00     0.041 A 
ENDBRANCH   1  16
TORSDOF 2
ENDMDL
MODEL 5
REMARK VINA RESULT:      -8.0      1.405      2.494
REMARK  2 active torsions:
REMARK  status: ('A' for Active; 'I' for Inactive)
REMARK    1  A    between atoms: N_2  and  C_19 
REMARK    2  A    between atoms: C_3  and  N_2 
ROOT
HETATM    1  N   UNK N   1      23.121  16.863   3.859  0.00  0.00    -0.340 N 
HETATM    2  H   UNK N   1      23.765  17.526   3.522  0.00  0.00     0.167 HD
ENDROOT
BRANCH   1   3
HETATM    3  C   UNK N   1      21.944  16.631   3.074  0.00  0.00     0.147 A 
HETATM    4  N   UNK N   1      20.951  17.558   2.889  0.00  0.00    -0.069 N 
HETATM    5  C   UNK N   1      19.861  17.303   2.168  0.00  0.00     0.706 A 
HETATM    6  N   UNK N   1      20.853  18.800   3.326  0.00  0.00    -0.273 N 
HETATM    7  N   UNK N   1      19.019  18.347   2.139  0.00  0.00    -0.185 N 
HETATM    8  N   UNK N   1      19.679  16.121   1.536  0.00  0.00    -0.194 N 
HETATM    9  C   UNK N   1      19.668  19.282   2.880  0.00  0.00     0.215 A 
ATOM     10  HN  UNK N   1      18.114  18.421   1.674  1.00  0.00     0.185 HD
HETATM   11  C   UNK N   1      20.648  15.167   1.641  0.00  0.00     0.026 A 
ATOM     12  HN  UNK N   1      18.834  15.946   0.991  1.00  0.00     0.184 HD
HETATM   13  C   UNK N   1      21.802  15.401   2.416  0.00  0.00     0.076 A 
HETATM   14  C   UNK N   1      20.489  13.876   0.925  0.00  0.00     0.069 C 
ATOM     15  HN  UNK N   1      21.538  19.302   3.891  1.00  0.00     0.189 HD
ENDBRANCH   1   3
BRANCH   1  16
HETATM   16  C   UNK N   1      23.430  16.215   5.082  0.00  0.00     0.034 A 
HETATM   17  C   UNK N   1      24.683  15.622   5.289  0.00  0.00     0.030 A 
HETATM   18  C   UNK N   1      24.888  14.751   6.353  0.00  0.00     0.014 A 
HETATM   19  C   UNK N   1      23.848  14.492   7.239  0.00  0.00    -0.025 A 
HETATM   20  C   UNK N   1      24.000  13.509   8.214  0.00  0.00     0.024 A 
HETATM   21  C   UNK N   1      22.623  15.192   7.118  0.00  0.00    -0.023 A 
HETATM   22  C   UNK N   1      22.944  13.222   9.078  0.00  0.00    -0.025 A 
HETATM   23  C   UNK N   1      21.743  13.968   9.004  0.00  0.00    -0.025 A 
HETATM   24  C   UNK N   1      23.064  12.187  10.008  0.00  0.00     0.012 A 
HETATM   25  C   UNK N   1      21.589  14.949   8.022  0.00  0.00     0.024 A 
HETATM   26  C   UNK N   1      20.696  13.689   9.885  0.00  0.00     0.012 A 
HETATM   27  C   UNK N   1      20.829  12.658  10.820  0.00  0.00     0.001 A 
HETATM   28  C   UNK N   1      22.004  11.899  10.871  0.00  0.00     0.001 A 
HETATM   29  C   UNK N   1      22.421  16.051   6.036  0.00  0.00     0.041 A 
ENDBRANCH   1  16
TORSDOF 2
ENDMDL
MODEL 6
REMARK VINA RESULT:      -8.0      4.379      6.096
REMARK  2 active torsions:
REMARK  status: ('A' for Active; 'I' for Inactive)
REMARK    1  A    between atoms: N_2  and  C_19 
REMARK    2  A    between atoms: C_3  and  N_2 
ROOT
HETATM    1  N   UNK N   1      26.631  16.277   5.367  0.00  0.00    -0.340 N 
HETATM    2  H   UNK N   1      26.905  16.094   4.439  0.00  0.00     0.167 HD
ENDROOT
BRANCH   1   3
HETATM    3  C   UNK N   1      27.372  17.269   6.089  0.00  0.00     0.147 A 
HETATM    4  N   UNK N   1      27.055  18.603   6.101  0.00  0.00    -0.069 N 
HETATM    5  C   UNK N   1      27.775  19.502   6.769  0.00  0.00     0.706 A 
HETATM    6  N   UNK N   1      26.058  19.248   5.523  0.00  0.00    -0.273 N 
HETATM    7  N   UNK N   1      27.293  20.745   6.624  0.00  0.00    -0.185 N 
HETATM    8  N   UNK N   1      28.849  19.151   7.514  0.00  0.00    -0.194 N 
HETATM    9  C   UNK N   1      26.207  20.558   5.830  0.00  0.00     0.215 A 
ATOM     10  HN  UNK N   1      27.652  21.616   7.014  1.00  0.00     0.185 HD
HETATM   11  C   UNK N   1      29.196  17.834   7.583  0.00  0.00     0.026 A 
ATOM     12  HN  UNK N   1      29.388  19.858   8.015  1.00  0.00     0.184 HD
HETATM   13  C   UNK N   1      28.465  16.863   6.868  0.00  0.00     0.076 A 
HETATM   14  C   UNK N   1      30.345  17.420   8.425  0.00  0.00     0.069 C 
ATOM     15  HN  UNK N   1      25.317  18.837   4.954  1.00  0.00     0.189 HD
ENDBRANCH   1   3
BRANCH   1  16
HETATM   16  C   UNK N   1      25.536  15.537   5.882  0.00  0.00     0.034 A 
HETATM   17  C   UNK N   1      24.229  15.778   5.438  0.00  0.00     0.030 A 
HETATM   18  C   UNK N   1      23.138  15.269   6.134  0.00  0.00     0.014 A 
HETATM   19  C   UNK N   1      23.350  14.486   7.265  0.00  0.00    -0.025 A 
HETATM   20  C   UNK N   1      22.266  14.100   8.050  0.00  0.00     0.024 A 
HETATM   21  C   UNK N   1      24.666  14.123   7.639  0.00  0.00    -0.023 A 
HETATM   22  C   UNK N   1      22.481  13.348   9.204  0.00  0.00    -0.025 A 
HETATM   23  C   UNK N   1      23.789  12.925   9.543  0.00  0.00    -0.025 A 
HETATM   24  C   UNK N   1      21.407  13.022  10.035  0.00  0.00     0.012 A 
HETATM   25  C   UNK N   1      24.876  13.318   8.758  0.00  0.00     0.024 A 
HETATM   26  C   UNK N   1      23.995  12.155  10.689  0.00  0.00     0.012 A 
HETATM   27  C   UNK N   1      22.913  11.825  11.510  0.00  0.00     0.001 A 
HETATM   28  C   UNK N   1      21.624  12.270  11.192  0.00  0.00     0.001 A 
HETATM   29  C   UNK N   1      25.754  14.654   6.944  0.00  0.00     0.041 A 
ENDBRANCH   1  16
TORSDOF 2
ENDMDL
MODEL 7
REMARK VINA RESULT:      -7.9      1.067      2.385
REMARK  2 active torsions:
REMARK  status: ('A' for Active; 'I' for Inactive)
REMARK    1  A    between atoms: N_2  and  C_19 
REMARK    2  A    between atoms: C_3  and  N_2 
ROOT
HETATM    1  N   UNK N   1      22.347  16.938   4.534  0.00  0.00    -0.340 N 
HETATM    2  H   UNK N   1      23.297  17.188   4.605  0.00  0.00     0.167 HD
ENDROOT
BRANCH   1   3
HETATM    3  C   UNK N   1      21.599  17.500   3.448  0.00  0.00     0.147 A 
HETATM    4  N   UNK N   1      20.855  16.759   2.565  0.00  0.00    -0.069 N 
HETATM    5  C   UNK N   1      20.185  17.311   1.556  0.00  0.00     0.706 A 
HETATM    6  N   UNK N   1      20.639  15.457   2.517  0.00  0.00    -0.273 N 
HETATM    7  N   UNK N   1      19.546  16.395   0.813  0.00  0.00    -0.185 N 
HETATM    8  N   UNK N   1      20.162  18.649   1.356  0.00  0.00    -0.194 N 
HETATM    9  C   UNK N   1      19.849  15.229   1.441  0.00  0.00     0.215 A 
ATOM     10  HN  UNK N   1      18.972  16.538  -0.018  1.00  0.00     0.185 HD
HETATM   11  C   UNK N   1      20.845  19.451   2.222  0.00  0.00     0.026 A 
ATOM     12  HN  UNK N   1      19.644  19.050   0.574  1.00  0.00     0.184 HD
HETATM   13  C   UNK N   1      21.581  18.893   3.287  0.00  0.00     0.076 A 
HETATM   14  C   UNK N   1      20.803  20.925   2.048  0.00  0.00     0.069 C 
ATOM     15  HN  UNK N   1      20.997  14.756   3.166  1.00  0.00     0.189 HD
ENDBRANCH   1   3
BRANCH   1  16
HETATM   16  C   UNK N   1      21.829  16.053   5.513  0.00  0.00     0.034 A 
HETATM   17  C   UNK N   1      20.527  16.209   6.010  0.00  0.00     0.030 A 
HETATM   18  C   UNK N   1      20.122  15.535   7.158  0.00  0.00     0.014 A 
HETATM   19  C   UNK N   1      21.007  14.675   7.798  0.00  0.00    -0.025 A 
HETATM   20  C   UNK N   1      20.661  14.116   9.026  0.00  0.00     0.024 A 
HETATM   21  C   UNK N   1      22.274  14.406   7.225  0.00  0.00    -0.023 A 
HETATM   22  C   UNK N   1      21.563  13.284   9.688  0.00  0.00    -0.025 A 
HETATM   23  C   UNK N   1      22.802  12.959   9.085  0.00  0.00    -0.025 A 
HETATM   24  C   UNK N   1      21.251  12.782  10.953  0.00  0.00     0.012 A 
HETATM   25  C   UNK N   1      23.151  13.524   7.856  0.00  0.00     0.024 A 
HETATM   26  C   UNK N   1      23.693  12.109   9.743  0.00  0.00     0.012 A 
HETATM   27  C   UNK N   1      23.369  11.602  11.004  0.00  0.00     0.001 A 
HETATM   28  C   UNK N   1      22.158  11.950  11.615  0.00  0.00     0.001 A 
HETATM   29  C   UNK N   1      22.678  15.101   6.083  0.00  0.00     0.041 A 
ENDBRANCH   1  16
TORSDOF 2
ENDMDL
MODEL 8
REMARK VINA RESULT:      -7.8      6.394      9.714
REMARK  2 active torsions:
REMARK  status: ('A' for Active; 'I' for Inactive)
REMARK    1  A    between atoms: N_2  and  C_19 
REMARK    2  A    between atoms: C_3  and  N_2 
ROOT
HETATM    1  N   UNK N   1      28.201  18.629   6.062  0.00  0.00    -0.340 N 
HETATM    2  H   UNK N   1      28.127  19.066   6.941  0.00  0.00     0.167 HD
ENDROOT
BRANCH   1   3
HETATM    3  C   UNK N   1      29.277  17.700   5.876  0.00  0.00     0.147 A 
HETATM    4  N   UNK N   1      30.070  17.232   6.892  0.00  0.00    -0.069 N 
HETATM    5  C   UNK N   1      31.074  16.383   6.682  0.00  0.00     0.706 A 
HETATM    6  N   UNK N   1      30.026  17.477   8.189  0.00  0.00    -0.273 N 
HETATM    7  N   UNK N   1      31.723  16.078   7.816  0.00  0.00    -0.185 N 
HETATM    8  N   UNK N   1      31.354  15.894   5.452  0.00  0.00    -0.194 N 
HETATM    9  C   UNK N   1      31.041  16.783   8.755  0.00  0.00     0.215 A 
ATOM     10  HN  UNK N   1      32.528  15.466   7.942  1.00  0.00     0.185 HD
HETATM   11  C   UNK N   1      30.578  16.283   4.401  0.00  0.00     0.026 A 
ATOM     12  HN  UNK N   1      32.131  15.247   5.314  1.00  0.00     0.184 HD
HETATM   13  C   UNK N   1      29.522  17.198   4.590  0.00  0.00     0.076 A 
HETATM   14  C   UNK N   1      30.841  15.730   3.049  0.00  0.00     0.069 C 
ATOM     15  HN  UNK N   1      29.355  18.075   8.673  1.00  0.00     0.189 HD
ENDBRANCH   1   3
BRANCH   1  16
HETATM   16  C   UNK N   1      27.233  18.968   5.081  0.00  0.00     0.034 A 
HETATM   17  C   UNK N   1      27.451  20.027   4.189  0.00  0.00     0.030 A 
HETATM   18  C   UNK N   1      26.405  20.540   3.430  0.00  0.00     0.014 A 
HETATM   19  C   UNK N   1      25.138  19.975   3.536  0.00  0.00    -0.025 A 
HETATM   20  C   UNK N   1      24.058  20.578   2.896  0.00  0.00     0.024 A 
HETATM   21  C   UNK N   1      24.941  18.819   4.329  0.00  0.00    -0.023 A 
HETATM   22  C   UNK N   1      22.781  20.035   3.032  0.00  0.00    -0.025 A 
HETATM   23  C   UNK N   1      22.593  18.840   3.768  0.00  0.00    -0.025 A 
HETATM   24  C   UNK N   1      21.684  20.676   2.454  0.00  0.00     0.012 A 
HETATM   25  C   UNK N   1      23.676  18.239   4.415  0.00  0.00     0.024 A 
HETATM   26  C   UNK N   1      21.315  18.289   3.884  0.00  0.00     0.012 A 
HETATM   27  C   UNK N   1      20.223  18.933   3.294  0.00  0.00     0.001 A 
HETATM   28  C   UNK N   1      20.405  20.132   2.594  0.00  0.00     0.001 A 
HETATM   29  C   UNK N   1      25.994  18.323   5.101  0.00  0.00     0.041 A 
ENDBRANCH   1  16
TORSDOF 2
ENDMDL
MODEL 9
REMARK VINA RESULT:      -7.7     15.501     17.174
REMARK  2 active torsions:
REMARK  status: ('A' for Active; 'I' for Inactive)
REMARK    1  A    between atoms: N_2  and  C_19 
REMARK    2  A    between atoms: C_3  and  N_2 
ROOT
HETATM    1  N   UNK N   1      37.398  12.755  13.082  0.00  0.00    -0.340 N 
HETATM    2  H   UNK N   1      38.377  12.675  13.152  0.00  0.00     0.167 HD
ENDROOT
BRANCH   1   3
HETATM    3  C   UNK N   1      36.846  12.954  11.774  0.00  0.00     0.147 A 
HETATM    4  N   UNK N   1      36.404  14.165  11.305  0.00  0.00    -0.069 N 
HETATM    5  C   UNK N   1      35.879  14.312  10.090  0.00  0.00     0.706 A 
HETATM    6  N   UNK N   1      36.405  15.353  11.881  0.00  0.00    -0.273 N 
HETATM    7  N   UNK N   1      35.500  15.577   9.853  0.00  0.00    -0.185 N 
HETATM    8  N   UNK N   1      35.781  13.279   9.221  0.00  0.00    -0.194 N 
HETATM    9  C   UNK N   1      35.842  16.216  11.002  0.00  0.00     0.215 A 
ATOM     10  HN  UNK N   1      35.064  15.963   9.017  1.00  0.00     0.185 HD
HETATM   11  C   UNK N   1      36.241  12.054   9.606  0.00  0.00     0.026 A 
ATOM     12  HN  UNK N   1      35.372  13.414   8.296  1.00  0.00     0.184 HD
HETATM   13  C   UNK N   1      36.782  11.864  10.894  0.00  0.00     0.076 A 
HETATM   14  C   UNK N   1      36.181  10.915   8.656  0.00  0.00     0.069 C 
ATOM     15  HN  UNK N   1      36.761  15.579  12.810  1.00  0.00     0.189 HD
ENDBRANCH   1   3
BRANCH   1  16
HETATM   16  C   UNK N   1      36.648  12.665  14.282  0.00  0.00     0.034 A 
HETATM   17  C   UNK N   1      36.469  13.784  15.107  0.00  0.00     0.030 A 
HETATM   18  C   UNK N   1      35.989  13.638  16.404  0.00  0.00     0.014 A 
HETATM   19  C   UNK N   1      35.656  12.373  16.876  0.00  0.00    -0.025 A 
HETATM   20  C   UNK N   1      35.320  12.202  18.216  0.00  0.00     0.024 A 
HETATM   21  C   UNK N   1      35.703  11.258  16.005  0.00  0.00    -0.023 A 
HETATM   22  C   UNK N   1      35.022  10.928  18.699  0.00  0.00    -0.025 A 
HETATM   23  C   UNK N   1      35.002   9.821  17.815  0.00  0.00    -0.025 A 
HETATM   24  C   UNK N   1      34.759  10.739  20.057  0.00  0.00     0.012 A 
HETATM   25  C   UNK N   1      35.345   9.993  16.472  0.00  0.00     0.024 A 
HETATM   26  C   UNK N   1      34.684   8.551  18.300  0.00  0.00     0.012 A 
HETATM   27  C   UNK N   1      34.411   8.373  19.659  0.00  0.00     0.001 A 
HETATM   28  C   UNK N   1      34.464   9.461  20.538  0.00  0.00     0.001 A 
HETATM   29  C   UNK N   1      36.202  11.411  14.710  0.00  0.00     0.041 A 
ENDBRANCH   1  16
TORSDOF 2
ENDMDL
