MODEL 1
REMARK VINA RESULT:      -6.2      0.000      0.000
REMARK  7 active torsions:
REMARK  status: ('A' for Active; 'I' for Inactive)
REMARK    1  A    between atoms: C_2  and  C_3 
REMARK    2  A    between atoms: C_2  and  O_17 
REMARK    3  A    between atoms: C_3  and  O_4 
REMARK    4  A    between atoms: C_3  and  C_5 
REMARK    5  A    between atoms: C_5  and  N_6 
REMARK       I    between atoms: N_6  and  C_7 
REMARK       I    between atoms: C_7  and  N_9 
REMARK    6  A    between atoms: N_9  and  C_10 
REMARK    7  A    between atoms: C_10  and  C_11 
ROOT
HETATM    1  N   UNK N   1      32.563  16.448   9.271  0.00  0.00    -0.340 N 
HETATM    2  C   UNK N   1      32.133  17.513   8.544  0.00  0.00     0.316 C 
HETATM    3  O   UNK N   1      31.133  18.103   8.923  0.00  0.00    -0.247 OA
HETATM    4  N   UNK N   1      32.750  17.961   7.417  0.00  0.00    -0.339 N 
HETATM    5  H   UNK N   1      32.083  16.270  10.112  0.00  0.00     0.164 HD
HETATM    6  H   UNK N   1      32.317  18.708   6.944  0.00  0.00     0.164 HD
ENDROOT
BRANCH   1   7
HETATM    7  C   UNK N   1      33.646  15.550   8.947  0.00  0.00     0.167 C 
BRANCH   7   8
HETATM    8  C   UNK N   1      34.546  15.285  10.164  0.00  0.00     0.233 C 
BRANCH   8   9
HETATM    9  C   UNK N   1      35.569  16.367  10.439  0.00  0.00     0.171 C 
HETATM   10  O   UNK N   1      35.296  17.530  10.186  0.00  0.00    -0.648 OA
BRANCH   9  11
HETATM   11  O   UNK N   1      36.773  16.075  10.969  0.00  0.00    -0.774 OA
HETATM   12  H   UNK N   1      37.369  16.678  11.369  0.00  0.00     0.167 HD
ENDBRANCH   9  11
ENDBRANCH   8   9
BRANCH   8  13
HETATM   13  O   UNK N   1      33.730  15.143  11.287  0.00  0.00    -0.383 OA
HETATM   14  H   UNK N   1      33.257  14.345  11.571  0.00  0.00     0.210 HD
ENDBRANCH   8  13
ENDBRANCH   7   8
ENDBRANCH   1   7
BRANCH   4  15
HETATM   15  C   UNK N   1      33.976  17.457   6.841  0.00  0.00     0.162 C 
BRANCH  15  16
HETATM   16  C   UNK N   1      33.718  16.858   5.484  0.00  0.00    -0.040 A 
HETATM   17  C   UNK N   1      32.956  17.535   4.515  0.00  0.00     0.009 A 
HETATM   18  C   UNK N   1      32.735  16.962   3.260  0.00  0.00     0.001 A 
HETATM   19  C   UNK N   1      33.277  15.709   2.961  0.00  0.00     0.000 A 
HETATM   20  C   UNK N   1      34.036  15.030   3.919  0.00  0.00     0.001 A 
HETATM   21  C   UNK N   1      34.255  15.602   5.177  0.00  0.00     0.009 A 
ENDBRANCH  15  16
ENDBRANCH   4  15
TORSDOF 7
ENDMDL
MODEL 2
REMARK VINA RESULT:      -6.2      2.646      3.971
REMARK  7 active torsions:
REMARK  status: ('A' for Active; 'I' for Inactive)
REMARK    1  A    between atoms: C_2  and  C_3 
REMARK    2  A    between atoms: C_2  and  O_17 
REMARK    3  A    between atoms: C_3  and  O_4 
REMARK    4  A    between atoms: C_3  and  C_5 
REMARK    5  A    between atoms: C_5  and  N_6 
REMARK       I    between atoms: N_6  and  C_7 
REMARK       I    between atoms: C_7  and  N_9 
REMARK    6  A    between atoms: N_9  and  C_10 
REMARK    7  A    between atoms: C_10  and  C_11 
ROOT
HETATM    1  N   UNK N   1      34.882  16.977   9.038  0.00  0.00    -0.340 N 
HETATM    2  C   UNK N   1      34.494  18.112   8.399  0.00  0.00     0.316 C 
HETATM    3  O   UNK N   1      35.210  19.097   8.491  0.00  0.00    -0.247 OA
HETATM    4  N   UNK N   1      33.356  18.216   7.662  0.00  0.00    -0.339 N 
HETATM    5  H   UNK N   1      35.766  16.998   9.470  0.00  0.00     0.164 HD
HETATM    6  H   UNK N   1      33.151  19.104   7.290  0.00  0.00     0.164 HD
ENDROOT
BRANCH   1   7
HETATM    7  C   UNK N   1      34.142  15.742   9.152  0.00  0.00     0.167 C 
BRANCH   7   8
HETATM    8  C   UNK N   1      34.572  14.934  10.385  0.00  0.00     0.233 C 
BRANCH   8   9
HETATM    9  C   UNK N   1      35.808  15.460  11.084  0.00  0.00     0.171 C 
HETATM   10  O   UNK N   1      35.756  15.729  12.275  0.00  0.00    -0.648 OA
BRANCH   9  11
HETATM   11  O   UNK N   1      36.969  15.630  10.422  0.00  0.00    -0.774 OA
HETATM   12  H   UNK N   1      37.789  15.898  10.791  0.00  0.00     0.167 HD
ENDBRANCH   9  11
ENDBRANCH   8   9
BRANCH   8  13
HETATM   13  O   UNK N   1      33.512  14.927  11.293  0.00  0.00    -0.383 OA
HETATM   14  H   UNK N   1      32.706  15.466  11.258  0.00  0.00     0.210 HD
ENDBRANCH   8  13
ENDBRANCH   7   8
ENDBRANCH   1   7
BRANCH   4  15
HETATM   15  C   UNK N   1      32.413  17.161   7.368  0.00  0.00     0.162 C 
BRANCH  15  16
HETATM   16  C   UNK N   1      31.035  17.530   7.846  0.00  0.00    -0.040 A 
HETATM   17  C   UNK N   1      30.840  18.272   9.024  0.00  0.00     0.009 A 
HETATM   18  C   UNK N   1      29.551  18.608   9.446  0.00  0.00     0.001 A 
HETATM   19  C   UNK N   1      28.445  18.210   8.690  0.00  0.00     0.000 A 
HETATM   20  C   UNK N   1      28.631  17.473   7.516  0.00  0.00     0.001 A 
HETATM   21  C   UNK N   1      29.922  17.133   7.096  0.00  0.00     0.009 A 
ENDBRANCH  15  16
ENDBRANCH   4  15
TORSDOF 7
ENDMDL
MODEL 3
REMARK VINA RESULT:      -6.2      1.526      2.039
REMARK  7 active torsions:
REMARK  status: ('A' for Active; 'I' for Inactive)
REMARK    1  A    between atoms: C_2  and  C_3 
REMARK    2  A    between atoms: C_2  and  O_17 
REMARK    3  A    between atoms: C_3  and  O_4 
REMARK    4  A    between atoms: C_3  and  C_5 
REMARK    5  A    between atoms: C_5  and  N_6 
REMARK       I    between atoms: N_6  and  C_7 
REMARK       I    between atoms: C_7  and  N_9 
REMARK    6  A    between atoms: N_9  and  C_10 
REMARK    7  A    between atoms: C_10  and  C_11 
ROOT
HETATM    1  N   UNK N   1      34.815  17.297   9.362  0.00  0.00    -0.340 N 
HETATM    2  C   UNK N   1      34.653  18.294   8.451  0.00  0.00     0.316 C 
HETATM    3  O   UNK N   1      35.369  19.279   8.542  0.00  0.00    -0.247 OA
HETATM    4  N   UNK N   1      33.739  18.260   7.444  0.00  0.00    -0.339 N 
HETATM    5  H   UNK N   1      35.564  17.398   9.993  0.00  0.00     0.164 HD
HETATM    6  H   UNK N   1      33.676  19.063   6.879  0.00  0.00     0.164 HD
ENDROOT
BRANCH   1   7
HETATM    7  C   UNK N   1      34.011  16.106   9.505  0.00  0.00     0.167 C 
BRANCH   7   8
HETATM    8  C   UNK N   1      34.637  15.115  10.498  0.00  0.00     0.233 C 
BRANCH   8   9
HETATM    9  C   UNK N   1      35.826  15.657  11.264  0.00  0.00     0.171 C 
HETATM   10  O   UNK N   1      35.762  15.757  12.480  0.00  0.00    -0.648 OA
BRANCH   9  11
HETATM   11  O   UNK N   1      36.960  16.022  10.634  0.00  0.00    -0.774 OA
HETATM   12  H   UNK N   1      37.832  15.764  10.859  0.00  0.00     0.167 HD
ENDBRANCH   9  11
ENDBRANCH   8   9
BRANCH   8  13
HETATM   13  O   UNK N   1      33.653  14.732  11.410  0.00  0.00    -0.383 OA
HETATM   14  H   UNK N   1      33.783  14.456  12.331  0.00  0.00     0.210 HD
ENDBRANCH   8  13
ENDBRANCH   7   8
ENDBRANCH   1   7
BRANCH   4  15
HETATM   15  C   UNK N   1      32.851  17.168   7.116  0.00  0.00     0.162 C 
BRANCH  15  16
HETATM   16  C   UNK N   1      33.015  16.763   5.676  0.00  0.00    -0.040 A 
HETATM   17  C   UNK N   1      33.744  15.617   5.314  0.00  0.00     0.009 A 
HETATM   18  C   UNK N   1      33.878  15.257   3.970  0.00  0.00     0.001 A 
HETATM   19  C   UNK N   1      33.281  16.037   2.977  0.00  0.00     0.000 A 
HETATM   20  C   UNK N   1      32.553  17.178   3.329  0.00  0.00     0.001 A 
HETATM   21  C   UNK N   1      32.421  17.541   4.674  0.00  0.00     0.009 A 
ENDBRANCH  15  16
ENDBRANCH   4  15
TORSDOF 7
ENDMDL
MODEL 4
REMARK VINA RESULT:      -6.0      2.726      3.896
REMARK  7 active torsions:
REMARK  status: ('A' for Active; 'I' for Inactive)
REMARK    1  A    between atoms: C_2  and  C_3 
REMARK    2  A    between atoms: C_2  and  O_17 
REMARK    3  A    between atoms: C_3  and  O_4 
REMARK    4  A    between atoms: C_3  and  C_5 
REMARK    5  A    between atoms: C_5  and  N_6 
REMARK       I    between atoms: N_6  and  C_7 
REMARK       I    between atoms: C_7  and  N_9 
REMARK    6  A    between atoms: N_9  and  C_10 
REMARK    7  A    between atoms: C_10  and  C_11 
ROOT
HETATM    1  N   UNK N   1      34.587  16.487   8.198  0.00  0.00    -0.340 N 
HETATM    2  C   UNK N   1      34.079  17.728   7.975  0.00  0.00     0.316 C 
HETATM    3  O   UNK N   1      34.834  18.593   7.561  0.00  0.00    -0.247 OA
HETATM    4  N   UNK N   1      32.777  18.063   8.186  0.00  0.00    -0.339 N 
HETATM    5  H   UNK N   1      35.524  16.343   7.930  0.00  0.00     0.164 HD
HETATM    6  H   UNK N   1      32.536  19.006   8.041  0.00  0.00     0.164 HD
ENDROOT
BRANCH   1   7
HETATM    7  C   UNK N   1      33.906  15.356   8.784  0.00  0.00     0.167 C 
BRANCH   7   8
HETATM    8  C   UNK N   1      34.411  15.064  10.205  0.00  0.00     0.233 C 
BRANCH   8   9
HETATM    9  C   UNK N   1      35.425  16.057  10.731  0.00  0.00     0.171 C 
HETATM   10  O   UNK N   1      36.617  15.824  10.603  0.00  0.00    -0.648 OA
BRANCH   9  11
HETATM   11  O   UNK N   1      35.041  17.202  11.330  0.00  0.00    -0.774 OA
HETATM   12  H   UNK N   1      34.943  17.346  12.251  0.00  0.00     0.167 HD
ENDBRANCH   9  11
ENDBRANCH   8   9
BRANCH   8  13
HETATM   13  O   UNK N   1      33.311  15.050  11.064  0.00  0.00    -0.383 OA
HETATM   14  H   UNK N   1      33.143  15.644  11.812  0.00  0.00     0.210 HD
ENDBRANCH   8  13
ENDBRANCH   7   8
ENDBRANCH   1   7
BRANCH   4  15
HETATM   15  C   UNK N   1      31.711  17.181   8.602  0.00  0.00     0.162 C 
BRANCH  15  16
HETATM   16  C   UNK N   1      30.403  17.600   7.986  0.00  0.00    -0.040 A 
HETATM   17  C   UNK N   1      30.042  17.201   6.686  0.00  0.00     0.009 A 
HETATM   18  C   UNK N   1      28.821  17.598   6.137  0.00  0.00     0.001 A 
HETATM   19  C   UNK N   1      27.947  18.394   6.882  0.00  0.00     0.000 A 
HETATM   20  C   UNK N   1      28.298  18.794   8.176  0.00  0.00     0.001 A 
HETATM   21  C   UNK N   1      29.523  18.400   8.725  0.00  0.00     0.009 A 
ENDBRANCH  15  16
ENDBRANCH   4  15
TORSDOF 7
ENDMDL
MODEL 5
REMARK VINA RESULT:      -6.0      4.091      5.180
REMARK  7 active torsions:
REMARK  status: ('A' for Active; 'I' for Inactive)
REMARK    1  A    between atoms: C_2  and  C_3 
REMARK    2  A    between atoms: C_2  and  O_17 
REMARK    3  A    between atoms: C_3  and  O_4 
REMARK    4  A    between atoms: C_3  and  C_5 
REMARK    5  A    between atoms: C_5  and  N_6 
REMARK       I    between atoms: N_6  and  C_7 
REMARK       I    between atoms: C_7  and  N_9 
REMARK    6  A    between atoms: N_9  and  C_10 
REMARK    7  A    between atoms: C_10  and  C_11 
ROOT
HETATM    1  N   UNK N   1      31.156  18.060   9.112  0.00  0.00    -0.340 N 
HETATM    2  C   UNK N   1      29.863  18.410   9.346  0.00  0.00     0.316 C 
HETATM    3  O   UNK N   1      29.569  18.806  10.463  0.00  0.00    -0.247 OA
HETATM    4  N   UNK N   1      28.878  18.345   8.411  0.00  0.00    -0.339 N 
HETATM    5  H   UNK N   1      31.795  18.228   9.841  0.00  0.00     0.164 HD
HETATM    6  H   UNK N   1      27.969  18.574   8.712  0.00  0.00     0.164 HD
ENDROOT
BRANCH   1   7
HETATM    7  C   UNK N   1      31.696  17.469   7.909  0.00  0.00     0.167 C 
BRANCH   7   8
HETATM    8  C   UNK N   1      33.165  17.058   8.089  0.00  0.00     0.233 C 
BRANCH   8   9
HETATM    9  C   UNK N   1      34.156  17.906   7.319  0.00  0.00     0.171 C 
HETATM   10  O   UNK N   1      34.253  17.766   6.109  0.00  0.00    -0.648 OA
BRANCH   9  11
HETATM   11  O   UNK N   1      34.927  18.820   7.939  0.00  0.00    -0.774 OA
HETATM   12  H   UNK N   1      35.655  19.281   7.569  0.00  0.00     0.167 HD
ENDBRANCH   9  11
ENDBRANCH   8   9
BRANCH   8  13
HETATM   13  O   UNK N   1      33.475  17.132   9.448  0.00  0.00    -0.383 OA
HETATM   14  H   UNK N   1      33.105  16.591  10.164  0.00  0.00     0.210 HD
ENDBRANCH   8  13
ENDBRANCH   7   8
ENDBRANCH   1   7
BRANCH   4  15
HETATM   15  C   UNK N   1      29.024  17.976   7.022  0.00  0.00     0.162 C 
BRANCH  15  16
HETATM   16  C   UNK N   1      28.231  18.902   6.139  0.00  0.00    -0.040 A 
HETATM   17  C   UNK N   1      28.085  18.658   4.762  0.00  0.00     0.009 A 
HETATM   18  C   UNK N   1      27.339  19.529   3.963  0.00  0.00     0.001 A 
HETATM   19  C   UNK N   1      26.730  20.649   4.534  0.00  0.00     0.000 A 
HETATM   20  C   UNK N   1      26.870  20.898   5.903  0.00  0.00     0.001 A 
HETATM   21  C   UNK N   1      27.620  20.028   6.703  0.00  0.00     0.009 A 
ENDBRANCH  15  16
ENDBRANCH   4  15
TORSDOF 7
ENDMDL
MODEL 6
REMARK VINA RESULT:      -6.0      6.094     10.015
REMARK  7 active torsions:
REMARK  status: ('A' for Active; 'I' for Inactive)
REMARK    1  A    between atoms: C_2  and  C_3 
REMARK    2  A    between atoms: C_2  and  O_17 
REMARK    3  A    between atoms: C_3  and  O_4 
REMARK    4  A    between atoms: C_3  and  C_5 
REMARK    5  A    between atoms: C_5  and  N_6 
REMARK       I    between atoms: N_6  and  C_7 
REMARK       I    between atoms: C_7  and  N_9 
REMARK    6  A    between atoms: N_9  and  C_10 
REMARK    7  A    between atoms: C_10  and  C_11 
ROOT
HETATM    1  N   UNK N   1      37.013  13.552  12.940  0.00  0.00    -0.340 N 
HETATM    2  C   UNK N   1      36.965  12.269  13.388  0.00  0.00     0.316 C 
HETATM    3  O   UNK N   1      37.789  11.478  12.956  0.00  0.00    -0.247 OA
HETATM    4  N   UNK N   1      36.053  11.814  14.289  0.00  0.00    -0.339 N 
HETATM    5  H   UNK N   1      37.769  13.783  12.353  0.00  0.00     0.164 HD
HETATM    6  H   UNK N   1      36.081  10.853  14.497  0.00  0.00     0.164 HD
ENDROOT
BRANCH   1   7
HETATM    7  C   UNK N   1      36.079  14.615  13.231  0.00  0.00     0.167 C 
BRANCH   7   8
HETATM    8  C   UNK N   1      35.293  15.037  11.980  0.00  0.00     0.233 C 
BRANCH   8   9
HETATM    9  C   UNK N   1      36.127  15.156  10.722  0.00  0.00     0.171 C 
HETATM   10  O   UNK N   1      35.754  14.603   9.699  0.00  0.00    -0.648 OA
BRANCH   9  11
HETATM   11  O   UNK N   1      37.270  15.870  10.703  0.00  0.00    -0.774 OA
HETATM   12  H   UNK N   1      38.112  15.586  11.003  0.00  0.00     0.167 HD
ENDBRANCH   9  11
ENDBRANCH   8   9
BRANCH   8  13
HETATM   13  O   UNK N   1      34.284  14.099  11.762  0.00  0.00    -0.383 OA
HETATM   14  H   UNK N   1      33.764  13.975  10.952  0.00  0.00     0.210 HD
ENDBRANCH   8  13
ENDBRANCH   7   8
ENDBRANCH   1   7
BRANCH   4  15
HETATM   15  C   UNK N   1      35.045  12.593  14.971  0.00  0.00     0.162 C 
BRANCH  15  16
HETATM   16  C   UNK N   1      35.166  12.429  16.463  0.00  0.00    -0.040 A 
HETATM   17  C   UNK N   1      35.070  13.529  17.333  0.00  0.00     0.009 A 
HETATM   18  C   UNK N   1      35.179  13.351  18.715  0.00  0.00     0.001 A 
HETATM   19  C   UNK N   1      35.381  12.071  19.239  0.00  0.00     0.000 A 
HETATM   20  C   UNK N   1      35.477  10.972  18.380  0.00  0.00     0.001 A 
HETATM   21  C   UNK N   1      35.371  11.151  16.995  0.00  0.00     0.009 A 
ENDBRANCH  15  16
ENDBRANCH   4  15
TORSDOF 7
ENDMDL
MODEL 7
REMARK VINA RESULT:      -5.9      6.503     10.354
REMARK  7 active torsions:
REMARK  status: ('A' for Active; 'I' for Inactive)
REMARK    1  A    between atoms: C_2  and  C_3 
REMARK    2  A    between atoms: C_2  and  O_17 
REMARK    3  A    between atoms: C_3  and  O_4 
REMARK    4  A    between atoms: C_3  and  C_5 
REMARK    5  A    between atoms: C_5  and  N_6 
REMARK       I    between atoms: N_6  and  C_7 
REMARK       I    between atoms: C_7  and  N_9 
REMARK    6  A    between atoms: N_9  and  C_10 
REMARK    7  A    between atoms: C_10  and  C_11 
ROOT
HETATM    1  N   UNK N   1      36.829  14.943  14.052  0.00  0.00    -0.340 N 
HETATM    2  C   UNK N   1      37.017  14.909  15.398  0.00  0.00     0.316 C 
HETATM    3  O   UNK N   1      37.791  15.715  15.890  0.00  0.00    -0.247 OA
HETATM    4  N   UNK N   1      36.396  14.030  16.229  0.00  0.00    -0.339 N 
HETATM    5  H   UNK N   1      37.269  15.677  13.566  0.00  0.00     0.164 HD
HETATM    6  H   UNK N   1      36.652  14.064  17.178  0.00  0.00     0.164 HD
ENDROOT
BRANCH   1   7
HETATM    7  C   UNK N   1      36.052  14.022  13.255  0.00  0.00     0.167 C 
BRANCH   7   8
HETATM    8  C   UNK N   1      35.303  14.742  12.124  0.00  0.00     0.233 C 
BRANCH   8   9
HETATM    9  C   UNK N   1      36.151  15.069  10.914  0.00  0.00     0.171 C 
HETATM   10  O   UNK N   1      35.999  14.433   9.883  0.00  0.00    -0.648 OA
BRANCH   9  11
HETATM   11  O   UNK N   1      37.067  16.058  10.946  0.00  0.00    -0.774 OA
HETATM   12  H   UNK N   1      37.994  15.965  10.839  0.00  0.00     0.167 HD
ENDBRANCH   9  11
ENDBRANCH   8   9
BRANCH   8  13
HETATM   13  O   UNK N   1      34.240  13.932  11.720  0.00  0.00    -0.383 OA
HETATM   14  H   UNK N   1      33.295  14.149  11.745  0.00  0.00     0.210 HD
ENDBRANCH   8  13
ENDBRANCH   7   8
ENDBRANCH   1   7
BRANCH   4  15
HETATM   15  C   UNK N   1      35.399  13.049  15.865  0.00  0.00     0.162 C 
BRANCH  15  16
HETATM   16  C   UNK N   1      35.230  12.030  16.960  0.00  0.00    -0.040 A 
HETATM   17  C   UNK N   1      34.997  10.674  16.671  0.00  0.00     0.009 A 
HETATM   18  C   UNK N   1      34.849   9.745  17.704  0.00  0.00     0.001 A 
HETATM   19  C   UNK N   1      34.938  10.162  19.035  0.00  0.00     0.000 A 
HETATM   20  C   UNK N   1      35.172  11.509  19.330  0.00  0.00     0.001 A 
HETATM   21  C   UNK N   1      35.316  12.440  18.295  0.00  0.00     0.009 A 
ENDBRANCH  15  16
ENDBRANCH   4  15
TORSDOF 7
ENDMDL
MODEL 8
REMARK VINA RESULT:      -5.7     13.046     15.569
REMARK  7 active torsions:
REMARK  status: ('A' for Active; 'I' for Inactive)
REMARK    1  A    between atoms: C_2  and  C_3 
REMARK    2  A    between atoms: C_2  and  O_17 
REMARK    3  A    between atoms: C_3  and  O_4 
REMARK    4  A    between atoms: C_3  and  C_5 
REMARK    5  A    between atoms: C_5  and  N_6 
REMARK       I    between atoms: N_6  and  C_7 
REMARK       I    between atoms: C_7  and  N_9 
REMARK    6  A    between atoms: N_9  and  C_10 
REMARK    7  A    between atoms: C_10  and  C_11 
ROOT
HETATM    1  N   UNK N   1      29.612  22.960  -5.018  0.00  0.00    -0.340 N 
HETATM    2  C   UNK N   1      28.534  23.024  -5.844  0.00  0.00     0.316 C 
HETATM    3  O   UNK N   1      28.641  22.558  -6.967  0.00  0.00    -0.247 OA
HETATM    4  N   UNK N   1      27.343  23.579  -5.493  0.00  0.00    -0.339 N 
HETATM    5  H   UNK N   1      30.392  22.462  -5.354  0.00  0.00     0.164 HD
HETATM    6  H   UNK N   1      26.651  23.617  -6.192  0.00  0.00     0.164 HD
ENDROOT
BRANCH   1   7
HETATM    7  C   UNK N   1      29.741  23.540  -3.702  0.00  0.00     0.167 C 
BRANCH   7   8
HETATM    8  C   UNK N   1      30.023  22.471  -2.635  0.00  0.00     0.233 C 
BRANCH   8   9
HETATM    9  C   UNK N   1      31.147  21.517  -2.981  0.00  0.00     0.171 C 
HETATM   10  O   UNK N   1      31.038  20.790  -3.957  0.00  0.00    -0.648 OA
BRANCH   9  11
HETATM   11  O   UNK N   1      32.271  21.459  -2.240  0.00  0.00    -0.774 OA
HETATM   12  H   UNK N   1      33.144  21.627  -2.536  0.00  0.00     0.167 HD
ENDBRANCH   9  11
ENDBRANCH   8   9
BRANCH   8  13
HETATM   13  O   UNK N   1      30.339  23.120  -1.441  0.00  0.00    -0.383 OA
HETATM   14  H   UNK N   1      30.767  23.984  -1.338  0.00  0.00     0.210 HD
ENDBRANCH   8  13
ENDBRANCH   7   8
ENDBRANCH   1   7
BRANCH   4  15
HETATM   15  C   UNK N   1      26.984  24.118  -4.201  0.00  0.00     0.162 C 
BRANCH  15  16
HETATM   16  C   UNK N   1      26.325  25.464  -4.351  0.00  0.00    -0.040 A 
HETATM   17  C   UNK N   1      26.476  26.467  -3.378  0.00  0.00     0.009 A 
HETATM   18  C   UNK N   1      25.859  27.711  -3.540  0.00  0.00     0.001 A 
HETATM   19  C   UNK N   1      25.090  27.963  -4.680  0.00  0.00     0.000 A 
HETATM   20  C   UNK N   1      24.937  26.970  -5.653  0.00  0.00     0.001 A 
HETATM   21  C   UNK N   1      25.551  25.723  -5.488  0.00  0.00     0.009 A 
ENDBRANCH  15  16
ENDBRANCH   4  15
TORSDOF 7
ENDMDL
MODEL 9
REMARK VINA RESULT:      -5.7     10.228     12.660
REMARK  7 active torsions:
REMARK  status: ('A' for Active; 'I' for Inactive)
REMARK    1  A    between atoms: C_2  and  C_3 
REMARK    2  A    between atoms: C_2  and  O_17 
REMARK    3  A    between atoms: C_3  and  O_4 
REMARK    4  A    between atoms: C_3  and  C_5 
REMARK    5  A    between atoms: C_5  and  N_6 
REMARK       I    between atoms: N_6  and  C_7 
REMARK       I    between atoms: C_7  and  N_9 
REMARK    6  A    between atoms: N_9  and  C_10 
REMARK    7  A    between atoms: C_10  and  C_11 
ROOT
HETATM    1  N   UNK N   1      21.043  18.793   4.538  0.00  0.00    -0.340 N 
HETATM    2  C   UNK N   1      21.860  18.465   5.575  0.00  0.00     0.316 C 
HETATM    3  O   UNK N   1      21.427  18.588   6.709  0.00  0.00    -0.247 OA
HETATM    4  N   UNK N   1      23.132  18.009   5.422  0.00  0.00    -0.339 N 
HETATM    5  H   UNK N   1      20.117  19.032   4.770  0.00  0.00     0.164 HD
HETATM    6  H   UNK N   1      23.647  17.855   6.247  0.00  0.00     0.164 HD
ENDROOT
BRANCH   1   7
HETATM    7  C   UNK N   1      21.384  18.828   3.135  0.00  0.00     0.167 C 
BRANCH   7   8
HETATM    8  C   UNK N   1      21.370  20.262   2.584  0.00  0.00     0.233 C 
BRANCH   8   9
HETATM    9  C   UNK N   1      20.861  20.387   1.163  0.00  0.00     0.171 C 
HETATM   10  O   UNK N   1      20.812  19.394   0.453  0.00  0.00    -0.648 OA
BRANCH   9  11
HETATM   11  O   UNK N   1      20.450  21.571   0.667  0.00  0.00    -0.774 OA
HETATM   12  H   UNK N   1      20.860  22.403   0.796  0.00  0.00     0.167 HD
ENDBRANCH   9  11
ENDBRANCH   8   9
BRANCH   8  13
HETATM   13  O   UNK N   1      20.567  21.042   3.417  0.00  0.00    -0.383 OA
HETATM   14  H   UNK N   1      20.387  20.898   4.360  0.00  0.00     0.210 HD
ENDBRANCH   8  13
ENDBRANCH   7   8
ENDBRANCH   1   7
BRANCH   4  15
HETATM   15  C   UNK N   1      23.809  17.726   4.177  0.00  0.00     0.162 C 
BRANCH  15  16
HETATM   16  C   UNK N   1      25.134  18.437   4.118  0.00  0.00    -0.040 A 
HETATM   17  C   UNK N   1      26.349  17.731   4.163  0.00  0.00     0.009 A 
HETATM   18  C   UNK N   1      27.567  18.412   4.101  0.00  0.00     0.001 A 
HETATM   19  C   UNK N   1      27.582  19.805   3.989  0.00  0.00     0.000 A 
HETATM   20  C   UNK N   1      26.377  20.514   3.942  0.00  0.00     0.001 A 
HETATM   21  C   UNK N   1      25.157  19.832   4.008  0.00  0.00     0.009 A 
ENDBRANCH  15  16
ENDBRANCH   4  15
TORSDOF 7
ENDMDL
