MODEL 1
REMARK VINA RESULT:      -7.1      0.000      0.000
REMARK  3 active torsions:
REMARK  status: ('A' for Active; 'I' for Inactive)
REMARK    1  A    between atoms: N_2  and  C_16 
REMARK    2  A    between atoms: C_3  and  N_2 
REMARK    3  A    between atoms: C_13  and  C_14 
ROOT
HETATM    1  N   UNK N   1      36.210  13.904  14.132  0.00  0.00    -0.069 N 
HETATM    2  N   UNK N   1      37.011  14.937  14.299  0.00  0.00    -0.273 N 
ATOM      3  HN  UNK N   1      37.426  15.509  13.563  1.00  0.00     0.189 HD
HETATM    4  N   UNK N   1      36.460  14.166  16.318  0.00  0.00    -0.185 N 
ATOM      5  HN  UNK N   1      36.385  14.038  17.328  1.00  0.00     0.185 HD
HETATM    6  N   UNK N   1      35.019  12.425  15.514  0.00  0.00    -0.194 N 
ATOM      7  HN  UNK N   1      34.777  12.101  16.451  1.00  0.00     0.184 HD
HETATM    8  C   UNK N   1      35.738  13.328  12.979  0.00  0.00     0.147 A 
HETATM    9  C   UNK N   1      34.836  12.264  13.116  0.00  0.00     0.076 A 
HETATM   10  C   UNK N   1      34.484  11.824  14.411  0.00  0.00     0.026 A 
HETATM   11  C   UNK N   1      33.514  10.713  14.577  0.00  0.00     0.069 C 
HETATM   12  C   UNK N   1      35.872  13.456  15.340  0.00  0.00     0.706 A 
HETATM   13  C   UNK N   1      37.175  15.095  15.634  0.00  0.00     0.215 A 
ENDROOT
BRANCH   8  14
HETATM   14  N   UNK N   1      36.073  13.796  11.666  0.00  0.00    -0.340 N 
HETATM   15  H   UNK N   1      36.821  13.357  11.199  0.00  0.00     0.167 HD
BRANCH  14  16
HETATM   16  C   UNK N   1      35.400  14.846  10.995  0.00  0.00     0.033 A 
HETATM   17  C   UNK N   1      34.432  14.571  10.022  0.00  0.00     0.030 A 
HETATM   18  C   UNK N   1      33.991  15.578   9.168  0.00  0.00     0.018 A 
HETATM   19  C   UNK N   1      34.485  16.877   9.306  0.00  0.00     0.048 A 
HETATM   20  C   UNK N   1      35.353  17.182  10.365  0.00  0.00     0.018 A 
HETATM   21  C   UNK N   1      35.814  16.165  11.206  0.00  0.00     0.030 A 
BRANCH  19  22
HETATM   22  C   UNK N   1      34.178  17.891   8.249  0.00  0.00     0.417 C 
HETATM   23  F   UNK N   1      34.404  17.305   7.014  0.00  0.00    -0.166 F 
HETATM   24  F   UNK N   1      32.856  18.287   8.325  0.00  0.00    -0.166 F 
HETATM   25  F   UNK N   1      34.998  19.000   8.364  0.00  0.00    -0.166 F 
ENDBRANCH  19  22
ENDBRANCH  14  16
ENDBRANCH   8  14
TORSDOF 3
ENDMDL
MODEL 2
REMARK VINA RESULT:      -6.8      7.591      9.940
REMARK  3 active torsions:
REMARK  status: ('A' for Active; 'I' for Inactive)
REMARK    1  A    between atoms: N_2  and  C_16 
REMARK    2  A    between atoms: C_3  and  N_2 
REMARK    3  A    between atoms: C_13  and  C_14 
ROOT
HETATM    1  N   UNK N   1      29.750  17.425   7.870  0.00  0.00    -0.069 N 
HETATM    2  N   UNK N   1      28.521  17.421   8.346  0.00  0.00    -0.273 N 
ATOM      3  HN  UNK N   1      27.680  17.121   7.853  1.00  0.00     0.189 HD
HETATM    4  N   UNK N   1      29.873  18.178   9.950  0.00  0.00    -0.185 N 
ATOM      5  HN  UNK N   1      30.233  18.541  10.833  1.00  0.00     0.185 HD
HETATM    6  N   UNK N   1      31.893  17.944   8.678  0.00  0.00    -0.194 N 
ATOM      7  HN  UNK N   1      32.488  18.284   9.433  1.00  0.00     0.184 HD
HETATM    8  C   UNK N   1      30.222  17.054   6.635  0.00  0.00     0.147 A 
HETATM    9  C   UNK N   1      31.607  17.107   6.435  0.00  0.00     0.076 A 
HETATM   10  C   UNK N   1      32.436  17.559   7.485  0.00  0.00     0.026 A 
HETATM   11  C   UNK N   1      33.908  17.602   7.301  0.00  0.00     0.069 C 
HETATM   12  C   UNK N   1      30.555  17.864   8.836  0.00  0.00     0.706 A 
HETATM   13  C   UNK N   1      28.590  17.890   9.614  0.00  0.00     0.215 A 
ENDROOT
BRANCH   8  14
HETATM   14  N   UNK N   1      29.381  16.565   5.582  0.00  0.00    -0.340 N 
HETATM   15  H   UNK N   1      29.413  15.602   5.378  0.00  0.00     0.167 HD
BRANCH  14  16
HETATM   16  C   UNK N   1      28.507  17.374   4.815  0.00  0.00     0.033 A 
HETATM   17  C   UNK N   1      28.649  18.767   4.798  0.00  0.00     0.030 A 
HETATM   18  C   UNK N   1      27.631  19.569   4.291  0.00  0.00     0.018 A 
HETATM   19  C   UNK N   1      26.479  18.983   3.760  0.00  0.00     0.048 A 
HETATM   20  C   UNK N   1      26.395  17.586   3.655  0.00  0.00     0.018 A 
HETATM   21  C   UNK N   1      27.407  16.783   4.187  0.00  0.00     0.030 A 
BRANCH  19  22
HETATM   22  C   UNK N   1      25.305  19.850   3.429  0.00  0.00     0.417 C 
HETATM   23  F   UNK N   1      24.177  19.047   3.384  0.00  0.00    -0.166 F 
HETATM   24  F   UNK N   1      25.130  20.820   4.396  0.00  0.00    -0.166 F 
HETATM   25  F   UNK N   1      25.461  20.455   2.193  0.00  0.00    -0.166 F 
ENDBRANCH  19  22
ENDBRANCH  14  16
ENDBRANCH   8  14
TORSDOF 3
ENDMDL
MODEL 3
REMARK VINA RESULT:      -6.8      7.377      9.422
REMARK  3 active torsions:
REMARK  status: ('A' for Active; 'I' for Inactive)
REMARK    1  A    between atoms: N_2  and  C_16 
REMARK    2  A    between atoms: C_3  and  N_2 
REMARK    3  A    between atoms: C_13  and  C_14 
ROOT
HETATM    1  N   UNK N   1      31.966  16.374   5.413  0.00  0.00    -0.069 N 
HETATM    2  N   UNK N   1      31.406  15.799   4.368  0.00  0.00    -0.273 N 
ATOM      3  HN  UNK N   1      30.427  15.529   4.276  1.00  0.00     0.189 HD
HETATM    4  N   UNK N   1      33.560  16.128   3.894  0.00  0.00    -0.185 N 
ATOM      5  HN  UNK N   1      34.464  16.149   3.420  1.00  0.00     0.185 HD
HETATM    6  N   UNK N   1      34.093  17.199   5.973  0.00  0.00    -0.194 N 
ATOM      7  HN  UNK N   1      35.071  17.345   5.725  1.00  0.00     0.184 HD
HETATM    8  C   UNK N   1      31.420  16.747   6.617  0.00  0.00     0.147 A 
HETATM    9  C   UNK N   1      32.260  17.406   7.525  0.00  0.00     0.076 A 
HETATM   10  C   UNK N   1      33.610  17.627   7.177  0.00  0.00     0.026 A 
HETATM   11  C   UNK N   1      34.509  18.343   8.116  0.00  0.00     0.069 C 
HETATM   12  C   UNK N   1      33.249  16.581   5.120  0.00  0.00     0.706 A 
HETATM   13  C   UNK N   1      32.379  15.637   3.441  0.00  0.00     0.215 A 
ENDROOT
BRANCH   8  14
HETATM   14  N   UNK N   1      30.042  16.549   6.955  0.00  0.00    -0.340 N 
HETATM   15  H   UNK N   1      29.772  15.660   7.284  0.00  0.00     0.167 HD
BRANCH  14  16
HETATM   16  C   UNK N   1      29.040  17.544   6.848  0.00  0.00     0.033 A 
HETATM   17  C   UNK N   1      28.594  17.981   5.594  0.00  0.00     0.030 A 
HETATM   18  C   UNK N   1      27.838  19.145   5.486  0.00  0.00     0.018 A 
HETATM   19  C   UNK N   1      27.489  19.860   6.634  0.00  0.00     0.048 A 
HETATM   20  C   UNK N   1      27.822  19.352   7.898  0.00  0.00     0.018 A 
HETATM   21  C   UNK N   1      28.601  18.196   8.004  0.00  0.00     0.030 A 
BRANCH  19  22
HETATM   22  C   UNK N   1      26.876  21.218   6.489  0.00  0.00     0.417 C 
HETATM   23  F   UNK N   1      26.151  21.238   5.309  0.00  0.00    -0.166 F 
HETATM   24  F   UNK N   1      26.027  21.482   7.546  0.00  0.00    -0.166 F 
HETATM   25  F   UNK N   1      27.848  22.203   6.422  0.00  0.00    -0.166 F 
ENDBRANCH  19  22
ENDBRANCH  14  16
ENDBRANCH   8  14
TORSDOF 3
ENDMDL
MODEL 4
REMARK VINA RESULT:      -6.8      6.457      8.992
REMARK  3 active torsions:
REMARK  status: ('A' for Active; 'I' for Inactive)
REMARK    1  A    between atoms: N_2  and  C_16 
REMARK    2  A    between atoms: C_3  and  N_2 
REMARK    3  A    between atoms: C_13  and  C_14 
ROOT
HETATM    1  N   UNK N   1      32.387  17.032   7.293  0.00  0.00    -0.069 N 
HETATM    2  N   UNK N   1      32.461  17.175   8.601  0.00  0.00    -0.273 N 
ATOM      3  HN  UNK N   1      31.690  17.097   9.265  1.00  0.00     0.189 HD
HETATM    4  N   UNK N   1      34.510  17.454   7.766  0.00  0.00    -0.185 N 
ATOM      5  HN  UNK N   1      35.512  17.623   7.673  1.00  0.00     0.185 HD
HETATM    6  N   UNK N   1      33.886  17.053   5.485  0.00  0.00    -0.194 N 
ATOM      7  HN  UNK N   1      34.835  17.176   5.133  1.00  0.00     0.184 HD
HETATM    8  C   UNK N   1      31.305  16.760   6.492  0.00  0.00     0.147 A 
HETATM    9  C   UNK N   1      31.546  16.600   5.121  0.00  0.00     0.076 A 
HETATM   10  C   UNK N   1      32.862  16.751   4.633  0.00  0.00     0.026 A 
HETATM   11  C   UNK N   1      33.142  16.562   3.187  0.00  0.00     0.069 C 
HETATM   12  C   UNK N   1      33.615  17.186   6.801  0.00  0.00     0.706 A 
HETATM   13  C   UNK N   1      33.755  17.443   8.894  0.00  0.00     0.215 A 
ENDROOT
BRANCH   8  14
HETATM   14  N   UNK N   1      29.976  16.577   6.995  0.00  0.00    -0.340 N 
HETATM   15  H   UNK N   1      29.748  15.701   7.384  0.00  0.00     0.167 HD
BRANCH  14  16
HETATM   16  C   UNK N   1      28.967  17.571   6.972  0.00  0.00     0.033 A 
HETATM   17  C   UNK N   1      28.243  17.831   5.802  0.00  0.00     0.030 A 
HETATM   18  C   UNK N   1      27.473  18.986   5.697  0.00  0.00     0.018 A 
HETATM   19  C   UNK N   1      27.386  19.869   6.776  0.00  0.00     0.048 A 
HETATM   20  C   UNK N   1      28.002  19.541   7.993  0.00  0.00     0.018 A 
HETATM   21  C   UNK N   1      28.796  18.394   8.089  0.00  0.00     0.030 A 
BRANCH  19  22
HETATM   22  C   UNK N   1      26.744  21.205   6.576  0.00  0.00     0.417 C 
HETATM   23  F   UNK N   1      27.750  22.142   6.398  0.00  0.00    -0.166 F 
HETATM   24  F   UNK N   1      25.935  21.192   5.456  0.00  0.00    -0.166 F 
HETATM   25  F   UNK N   1      25.995  21.573   7.680  0.00  0.00    -0.166 F 
ENDBRANCH  19  22
ENDBRANCH  14  16
ENDBRANCH   8  14
TORSDOF 3
ENDMDL
MODEL 5
REMARK VINA RESULT:      -6.7      4.856      7.739
REMARK  3 active torsions:
REMARK  status: ('A' for Active; 'I' for Inactive)
REMARK    1  A    between atoms: N_2  and  C_16 
REMARK    2  A    between atoms: C_3  and  N_2 
REMARK    3  A    between atoms: C_13  and  C_14 
ROOT
HETATM    1  N   UNK N   1      31.528  17.413   8.277  0.00  0.00    -0.069 N 
HETATM    2  N   UNK N   1      30.817  17.487   9.384  0.00  0.00    -0.273 N 
ATOM      3  HN  UNK N   1      31.179  17.593  10.332  1.00  0.00     0.189 HD
HETATM    4  N   UNK N   1      29.399  17.285   7.674  0.00  0.00    -0.185 N 
ATOM      5  HN  UNK N   1      28.550  17.204   7.114  1.00  0.00     0.185 HD
HETATM    6  N   UNK N   1      31.092  17.255   5.974  0.00  0.00    -0.194 N 
ATOM      7  HN  UNK N   1      30.419  17.172   5.212  1.00  0.00     0.184 HD
HETATM    8  C   UNK N   1      32.888  17.445   8.095  0.00  0.00     0.147 A 
HETATM    9  C   UNK N   1      33.360  17.409   6.775  0.00  0.00     0.076 A 
HETATM   10  C   UNK N   1      32.431  17.315   5.716  0.00  0.00     0.026 A 
HETATM   11  C   UNK N   1      32.910  17.298   4.311  0.00  0.00     0.069 C 
HETATM   12  C   UNK N   1      30.677  17.306   7.258  0.00  0.00     0.706 A 
HETATM   13  C   UNK N   1      29.516  17.400   9.021  0.00  0.00     0.215 A 
ENDROOT
BRANCH   8  14
HETATM   14  N   UNK N   1      33.827  17.573   9.170  0.00  0.00    -0.340 N 
HETATM   15  H   UNK N   1      34.069  18.482   9.463  0.00  0.00     0.167 HD
BRANCH  14  16
HETATM   16  C   UNK N   1      34.430  16.480   9.840  0.00  0.00     0.033 A 
HETATM   17  C   UNK N   1      33.897  15.190   9.731  0.00  0.00     0.030 A 
HETATM   18  C   UNK N   1      34.304  14.188  10.608  0.00  0.00     0.018 A 
HETATM   19  C   UNK N   1      35.276  14.457  11.574  0.00  0.00     0.048 A 
HETATM   20  C   UNK N   1      35.906  15.711  11.596  0.00  0.00     0.018 A 
HETATM   21  C   UNK N   1      35.479  16.723  10.732  0.00  0.00     0.030 A 
BRANCH  19  22
HETATM   22  C   UNK N   1      35.539  13.447  12.646  0.00  0.00     0.417 C 
HETATM   23  F   UNK N   1      36.776  12.872  12.400  0.00  0.00    -0.166 F 
HETATM   24  F   UNK N   1      35.560  14.051  13.888  0.00  0.00    -0.166 F 
HETATM   25  F   UNK N   1      34.582  12.445  12.638  0.00  0.00    -0.166 F 
ENDBRANCH  19  22
ENDBRANCH  14  16
ENDBRANCH   8  14
TORSDOF 3
ENDMDL
MODEL 6
REMARK VINA RESULT:      -6.7      5.615      8.130
REMARK  3 active torsions:
REMARK  status: ('A' for Active; 'I' for Inactive)
REMARK    1  A    between atoms: N_2  and  C_16 
REMARK    2  A    between atoms: C_3  and  N_2 
REMARK    3  A    between atoms: C_13  and  C_14 
ROOT
HETATM    1  N   UNK N   1      35.487  12.435  12.382  0.00  0.00    -0.069 N 
HETATM    2  N   UNK N   1      35.292  11.142  12.541  0.00  0.00    -0.273 N 
ATOM      3  HN  UNK N   1      35.636  10.565  13.308  1.00  0.00     0.189 HD
HETATM    4  N   UNK N   1      34.251  11.765  10.669  0.00  0.00    -0.185 N 
ATOM      5  HN  UNK N   1      33.706  11.759   9.807  1.00  0.00     0.185 HD
HETATM    6  N   UNK N   1      34.821  14.088  10.851  0.00  0.00    -0.194 N 
ATOM      7  HN  UNK N   1      34.328  14.345   9.996  1.00  0.00     0.184 HD
HETATM    8  C   UNK N   1      36.181  13.328  13.160  0.00  0.00     0.147 A 
HETATM    9  C   UNK N   1      36.161  14.673  12.768  0.00  0.00     0.076 A 
HETATM   10  C   UNK N   1      35.464  15.036  11.595  0.00  0.00     0.026 A 
HETATM   11  C   UNK N   1      35.412  16.458  11.175  0.00  0.00     0.069 C 
HETATM   12  C   UNK N   1      34.852  12.805  11.271  0.00  0.00     0.706 A 
HETATM   13  C   UNK N   1      34.545  10.726  11.490  0.00  0.00     0.215 A 
ENDROOT
BRANCH   8  14
HETATM   14  N   UNK N   1      36.862  12.961  14.367  0.00  0.00    -0.340 N 
HETATM   15  H   UNK N   1      37.848  12.981  14.362  0.00  0.00     0.167 HD
BRANCH  14  16
HETATM   16  C   UNK N   1      36.215  12.574  15.566  0.00  0.00     0.033 A 
HETATM   17  C   UNK N   1      35.563  13.519  16.366  0.00  0.00     0.030 A 
HETATM   18  C   UNK N   1      35.189  13.197  17.668  0.00  0.00     0.018 A 
HETATM   19  C   UNK N   1      35.427  11.913  18.165  0.00  0.00     0.048 A 
HETATM   20  C   UNK N   1      35.958  10.928  17.320  0.00  0.00     0.018 A 
HETATM   21  C   UNK N   1      36.356  11.260  16.022  0.00  0.00     0.030 A 
BRANCH  19  22
HETATM   22  C   UNK N   1      35.228  11.648  19.625  0.00  0.00     0.417 C 
HETATM   23  F   UNK N   1      36.473  11.441  20.197  0.00  0.00    -0.166 F 
HETATM   24  F   UNK N   1      34.623  12.729  20.237  0.00  0.00    -0.166 F 
HETATM   25  F   UNK N   1      34.459  10.514  19.828  0.00  0.00    -0.166 F 
ENDBRANCH  19  22
ENDBRANCH  14  16
ENDBRANCH   8  14
TORSDOF 3
ENDMDL
MODEL 7
REMARK VINA RESULT:      -6.7      5.655      7.897
REMARK  3 active torsions:
REMARK  status: ('A' for Active; 'I' for Inactive)
REMARK    1  A    between atoms: N_2  and  C_16 
REMARK    2  A    between atoms: C_3  and  N_2 
REMARK    3  A    between atoms: C_13  and  C_14 
ROOT
HETATM    1  N   UNK N   1      35.701  13.736  12.456  0.00  0.00    -0.069 N 
HETATM    2  N   UNK N   1      36.179  14.944  12.676  0.00  0.00    -0.273 N 
ATOM      3  HN  UNK N   1      36.758  15.234  13.464  1.00  0.00     0.189 HD
HETATM    4  N   UNK N   1      35.019  15.004  10.772  0.00  0.00    -0.185 N 
ATOM      5  HN  UNK N   1      34.573  15.319   9.909  1.00  0.00     0.185 HD
HETATM    6  N   UNK N   1      34.440  12.676  10.781  0.00  0.00    -0.194 N 
ATOM      7  HN  UNK N   1      33.924  12.732   9.903  1.00  0.00     0.184 HD
HETATM    8  C   UNK N   1      35.832  12.585  13.193  0.00  0.00     0.147 A 
HETATM    9  C   UNK N   1      35.257  11.420  12.669  0.00  0.00     0.076 A 
HETATM   10  C   UNK N   1      34.558  11.489  11.444  0.00  0.00     0.026 A 
HETATM   11  C   UNK N   1      33.961  10.261  10.862  0.00  0.00     0.069 C 
HETATM   12  C   UNK N   1      35.020  13.774  11.311  0.00  0.00     0.706 A 
HETATM   13  C   UNK N   1      35.756  15.725  11.654  0.00  0.00     0.215 A 
ENDROOT
BRANCH   8  14
HETATM   14  N   UNK N   1      36.568  12.512  14.420  0.00  0.00    -0.340 N 
HETATM   15  H   UNK N   1      37.545  12.632  14.378  0.00  0.00     0.167 HD
BRANCH  14  16
HETATM   16  C   UNK N   1      35.986  12.279  15.690  0.00  0.00     0.033 A 
HETATM   17  C   UNK N   1      35.394  13.324  16.410  0.00  0.00     0.030 A 
HETATM   18  C   UNK N   1      35.091  13.163  17.759  0.00  0.00     0.018 A 
HETATM   19  C   UNK N   1      35.341  11.941  18.389  0.00  0.00     0.048 A 
HETATM   20  C   UNK N   1      35.809  10.854  17.637  0.00  0.00     0.018 A 
HETATM   21  C   UNK N   1      36.136  11.025  16.289  0.00  0.00     0.030 A 
BRANCH  19  22
HETATM   22  C   UNK N   1      35.223  11.851  19.878  0.00  0.00     0.417 C 
HETATM   23  F   UNK N   1      34.603  13.005  20.330  0.00  0.00    -0.166 F 
HETATM   24  F   UNK N   1      34.460  10.757  20.240  0.00  0.00    -0.166 F 
HETATM   25  F   UNK N   1      36.469  11.761  20.476  0.00  0.00    -0.166 F 
ENDBRANCH  19  22
ENDBRANCH  14  16
ENDBRANCH   8  14
TORSDOF 3
ENDMDL
MODEL 8
REMARK VINA RESULT:      -6.7      0.935      1.571
REMARK  3 active torsions:
REMARK  status: ('A' for Active; 'I' for Inactive)
REMARK    1  A    between atoms: N_2  and  C_16 
REMARK    2  A    between atoms: C_3  and  N_2 
REMARK    3  A    between atoms: C_13  and  C_14 
ROOT
HETATM    1  N   UNK N   1      36.577  13.992  14.481  0.00  0.00    -0.069 N 
HETATM    2  N   UNK N   1      37.332  15.024  14.797  0.00  0.00    -0.273 N 
ATOM      3  HN  UNK N   1      37.916  15.567  14.161  1.00  0.00     0.189 HD
HETATM    4  N   UNK N   1      36.314  14.328  16.655  0.00  0.00    -0.185 N 
ATOM      5  HN  UNK N   1      36.004  14.236  17.623  1.00  0.00     0.185 HD
HETATM    6  N   UNK N   1      35.075  12.570  15.593  0.00  0.00    -0.194 N 
ATOM      7  HN  UNK N   1      34.617  12.280  16.457  1.00  0.00     0.184 HD
HETATM    8  C   UNK N   1      36.379  13.379  13.268  0.00  0.00     0.147 A 
HETATM    9  C   UNK N   1      35.455  12.326  13.225  0.00  0.00     0.076 A 
HETATM   10  C   UNK N   1      34.804  11.934  14.415  0.00  0.00     0.026 A 
HETATM   11  C   UNK N   1      33.805  10.836  14.386  0.00  0.00     0.069 C 
HETATM   12  C   UNK N   1      35.961  13.588  15.590  0.00  0.00     0.706 A 
HETATM   13  C   UNK N   1      37.182  15.227  16.127  0.00  0.00     0.215 A 
ENDROOT
BRANCH   8  14
HETATM   14  N   UNK N   1      37.017  13.799  12.056  0.00  0.00    -0.340 N 
HETATM   15  H   UNK N   1      37.942  13.498  11.896  0.00  0.00     0.167 HD
BRANCH  14  16
HETATM   16  C   UNK N   1      36.410  14.617  11.073  0.00  0.00     0.033 A 
HETATM   17  C   UNK N   1      36.025  15.931  11.371  0.00  0.00     0.030 A 
HETATM   18  C   UNK N   1      35.177  16.624  10.512  0.00  0.00     0.018 A 
HETATM   19  C   UNK N   1      34.739  16.024   9.328  0.00  0.00     0.048 A 
HETATM   20  C   UNK N   1      35.230  14.762   8.965  0.00  0.00     0.018 A 
HETATM   21  C   UNK N   1      36.062  14.057   9.840  0.00  0.00     0.030 A 
BRANCH  19  22
HETATM   22  C   UNK N   1      33.658  16.686   8.532  0.00  0.00     0.417 C 
HETATM   23  F   UNK N   1      32.437  16.264   9.033  0.00  0.00    -0.166 F 
HETATM   24  F   UNK N   1      33.742  18.060   8.646  0.00  0.00    -0.166 F 
HETATM   25  F   UNK N   1      33.729  16.330   7.196  0.00  0.00    -0.166 F 
ENDBRANCH  19  22
ENDBRANCH  14  16
ENDBRANCH   8  14
TORSDOF 3
ENDMDL
MODEL 9
REMARK VINA RESULT:      -6.6     14.771     17.166
REMARK  3 active torsions:
REMARK  status: ('A' for Active; 'I' for Inactive)
REMARK    1  A    between atoms: N_2  and  C_16 
REMARK    2  A    between atoms: C_3  and  N_2 
REMARK    3  A    between atoms: C_13  and  C_14 
ROOT
HETATM    1  N   UNK N   1      21.300  18.737   2.912  0.00  0.00    -0.069 N 
HETATM    2  N   UNK N   1      21.632  19.965   3.254  0.00  0.00    -0.273 N 
ATOM      3  HN  UNK N   1      22.293  20.236   3.982  1.00  0.00     0.189 HD
HETATM    4  N   UNK N   1      20.161  20.095   1.583  0.00  0.00    -0.185 N 
ATOM      5  HN  UNK N   1      19.530  20.447   0.862  1.00  0.00     0.185 HD
HETATM    6  N   UNK N   1      19.931  17.724   1.295  0.00  0.00    -0.194 N 
ATOM      7  HN  UNK N   1      19.267  17.815   0.526  1.00  0.00     0.184 HD
HETATM    8  C   UNK N   1      21.721  17.533   3.420  0.00  0.00     0.147 A 
HETATM    9  C   UNK N   1      21.235  16.372   2.804  0.00  0.00     0.076 A 
HETATM   10  C   UNK N   1      20.331  16.492   1.727  0.00  0.00     0.026 A 
HETATM   11  C   UNK N   1      19.822  15.275   1.047  0.00  0.00     0.069 C 
HETATM   12  C   UNK N   1      20.432  18.819   1.905  0.00  0.00     0.706 A 
HETATM   13  C   UNK N   1      20.930  20.799   2.450  0.00  0.00     0.215 A 
ENDROOT
BRANCH   8  14
HETATM   14  N   UNK N   1      22.663  17.414   4.494  0.00  0.00    -0.340 N 
HETATM   15  H   UNK N   1      23.570  17.772   4.350  0.00  0.00     0.167 HD
BRANCH  14  16
HETATM   16  C   UNK N   1      22.379  16.818   5.747  0.00  0.00     0.033 A 
HETATM   17  C   UNK N   1      23.054  15.662   6.160  0.00  0.00     0.030 A 
HETATM   18  C   UNK N   1      22.577  14.920   7.237  0.00  0.00     0.018 A 
HETATM   19  C   UNK N   1      21.446  15.350   7.935  0.00  0.00     0.048 A 
HETATM   20  C   UNK N   1      20.850  16.577   7.606  0.00  0.00     0.018 A 
HETATM   21  C   UNK N   1      21.315  17.308   6.508  0.00  0.00     0.030 A 
BRANCH  19  22
HETATM   22  C   UNK N   1      20.816  14.436   8.938  0.00  0.00     0.417 C 
HETATM   23  F   UNK N   1      21.676  14.327  10.019  0.00  0.00    -0.166 F 
HETATM   24  F   UNK N   1      19.608  14.948   9.372  0.00  0.00    -0.166 F 
HETATM   25  F   UNK N   1      20.617  13.172   8.409  0.00  0.00    -0.166 F 
ENDBRANCH  19  22
ENDBRANCH  14  16
ENDBRANCH   8  14
TORSDOF 3
ENDMDL
