REMARK  3 active torsions:
REMARK  status: ('A' for Active; 'I' for Inactive)
REMARK    1  A    between atoms: N_2  and  C_16 
REMARK    2  A    between atoms: C_3  and  N_2 
REMARK    3  A    between atoms: C_13  and  C_14 
ROOT
HETATM    1  N   UNK N   1       0.090   1.752   0.086  0.00  0.00    -0.069 N 
HETATM    2  N   UNK N   1      -1.122   1.304   0.343  0.00  0.00    -0.273 N 
ATOM      3  HN  UNK N   1      -1.412   0.327   0.387  1.00  0.00     0.189 HD
HETATM    4  N   UNK N   1      -1.186   3.532   0.422  0.00  0.00    -0.185 N 
ATOM      5  HN  UNK N   1      -1.503   4.497   0.519  1.00  0.00     0.185 HD
HETATM    6  N   UNK N   1       1.150   3.845  -0.025  0.00  0.00    -0.194 N 
ATOM      7  HN  UNK N   1       1.092   4.862   0.027  1.00  0.00     0.184 HD
HETATM    8  C   UNK N   1       1.247   1.066  -0.190  0.00  0.00     0.147 A 
HETATM    9  C   UNK N   1       2.415   1.821  -0.361  0.00  0.00     0.076 A 
HETATM   10  C   UNK N   1       2.343   3.228  -0.271  0.00  0.00     0.026 A 
HETATM   11  C   UNK N   1       3.573   4.044  -0.427  0.00  0.00     0.069 C 
HETATM   12  C   UNK N   1       0.050   3.082   0.148  0.00  0.00     0.706 A 
HETATM   13  C   UNK N   1      -1.908   2.389   0.539  0.00  0.00     0.215 A 
ENDROOT
BRANCH   8  14
HETATM   14  N   UNK N   1       1.323  -0.364  -0.250  0.00  0.00    -0.340 N 
HETATM   15  H   UNK N   1       2.218  -0.776  -0.268  0.00  0.00     0.167 HD
BRANCH  14  16
HETATM   16  C   UNK N   1       0.199  -1.225  -0.284  0.00  0.00     0.033 A 
HETATM   17  C   UNK N   1      -0.918  -0.915  -1.070  0.00  0.00     0.030 A 
HETATM   18  C   UNK N   1      -2.118  -1.594  -0.880  0.00  0.00     0.018 A 
HETATM   19  C   UNK N   1      -2.200  -2.616   0.069  0.00  0.00     0.048 A 
HETATM   20  C   UNK N   1      -1.047  -3.016   0.761  0.00  0.00     0.018 A 
HETATM   21  C   UNK N   1       0.151  -2.317   0.587  0.00  0.00     0.030 A 
BRANCH  19  22
HETATM   22  C   UNK N   1      -3.541  -3.180   0.420  0.00  0.00     0.417 C 
HETATM   23  F   UNK N   1      -4.303  -2.163   0.972  0.00  0.00    -0.166 F 
HETATM   24  F   UNK N   1      -4.177  -3.659  -0.709  0.00  0.00    -0.166 F 
HETATM   25  F   UNK N   1      -3.429  -4.198   1.352  0.00  0.00    -0.166 F 
ENDBRANCH  19  22
ENDBRANCH  14  16
ENDBRANCH   8  14
TORSDOF 3
