MODEL 1
REMARK VINA RESULT:      -6.8      0.000      0.000
REMARK  7 active torsions:
REMARK  status: ('A' for Active; 'I' for Inactive)
REMARK    1  A    between atoms: C_2  and  N_3 
REMARK    2  A    between atoms: N_3  and  C_4 
REMARK    3  A    between atoms: N_3  and  C_6 
REMARK    4  A    between atoms: C_6  and  C_7 
REMARK    5  A    between atoms: C_7  and  N_8 
REMARK       I    between atoms: N_8  and  C_9 
REMARK    6  A    between atoms: C_9  and  C_11 
REMARK    7  A    between atoms: C_17  and  C_18 
ROOT
HETATM    1  C   UNK N   1      33.086  15.718   6.034  0.00  0.00     0.062 A 
HETATM    2  C   UNK N   1      32.265  16.615   5.388  0.00  0.00    -0.018 A 
HETATM    3  C   UNK N   1      32.675  17.845   4.659  0.00  0.00     0.052 C 
HETATM    4  C   UNK N   1      32.269  14.692   6.470  0.00  0.00     0.022 A 
HETATM    5  C   UNK N   1      32.693  13.507   7.266  0.00  0.00     0.069 C 
HETATM    6  N   UNK N   1      30.979  14.967   6.181  0.00  0.00    -0.359 N 
HETATM    7  C   UNK N   1      30.984  16.148   5.525  0.00  0.00     0.040 A 
HETATM    8  H   UNK N   1      30.194  14.418   6.405  0.00  0.00     0.166 HD
ENDROOT
BRANCH   7   9
HETATM    9  C   UNK N   1      29.779  16.932   5.211  0.00  0.00     0.048 C 
HETATM   10  C   UNK N   1      29.144  17.751   6.052  0.00  0.00     0.047 A 
HETATM   11  C   UNK N   1      28.163  18.752   5.661  0.00  0.00     0.008 A 
HETATM   12  C   UNK N   1      29.294  17.941   7.505  0.00  0.00     0.257 A 
HETATM   13  C   UNK N   1      27.681  19.120   4.405  0.00  0.00     0.038 A 
HETATM   14  C   UNK N   1      27.812  19.440   6.802  0.00  0.00     0.046 A 
HETATM   15  C   UNK N   1      26.805  20.217   4.334  0.00  0.00     0.035 A 
HETATM   16 Cl   UNK N   1      26.201  20.749   2.779  0.00  0.00    -0.084 Cl
HETATM   17  C   UNK N   1      26.435  20.914   5.506  0.00  0.00     0.026 A 
HETATM   18  C   UNK N   1      26.942  20.524   6.760  0.00  0.00     0.032 A 
HETATM   19  N   UNK N   1      28.486  18.937   7.934  0.00  0.00    -0.322 N 
HETATM   20  H   UNK N   1      28.387  19.251   8.862  0.00  0.00     0.169 HD
HETATM   21  O   UNK N   1      29.998  17.285   8.249  0.00  0.00    -0.267 OA
ENDBRANCH   7   9
BRANCH   1  22
HETATM   22  C   UNK N   1      34.535  15.890   6.280  0.00  0.00     0.254 C 
HETATM   23  N   UNK N   1      34.976  16.548   7.390  0.00  0.00    -0.355 N 
HETATM   24  H   UNK N   1      35.920  16.820   7.443  0.00  0.00     0.162 HD
HETATM   25  O   UNK N   1      35.343  15.343   5.546  0.00  0.00    -0.268 OA
BRANCH  23  26
HETATM   26  C   UNK N   1      34.085  16.857   8.495  0.00  0.00     0.153 C 
BRANCH  26  27
HETATM   27  C   UNK N   1      34.223  15.901   9.673  0.00  0.00     0.292 C 
BRANCH  27  28
HETATM   28  N   UNK N   1      35.605  15.423   9.761  0.00  0.00     0.089 N 
BRANCH  28  29
HETATM   29  C   UNK N   1      36.132  15.909  11.028  0.00  0.00     0.268 C 
HETATM   30  C   UNK N   1      35.833  14.922  12.144  0.00  0.00     0.037 C 
ENDBRANCH  28  29
BRANCH  28  31
HETATM   31  C   UNK N   1      35.588  13.962   9.827  0.00  0.00     0.268 C 
HETATM   32  C   UNK N   1      36.219  13.345   8.593  0.00  0.00     0.037 C 
ENDBRANCH  28  31
ENDBRANCH  27  28
ENDBRANCH  26  27
ENDBRANCH  23  26
ENDBRANCH   1  22
TORSDOF 7
ENDMDL
MODEL 2
REMARK VINA RESULT:      -6.7      3.973      8.891
REMARK  7 active torsions:
REMARK  status: ('A' for Active; 'I' for Inactive)
REMARK    1  A    between atoms: C_2  and  N_3 
REMARK    2  A    between atoms: N_3  and  C_4 
REMARK    3  A    between atoms: N_3  and  C_6 
REMARK    4  A    between atoms: C_6  and  C_7 
REMARK    5  A    between atoms: C_7  and  N_8 
REMARK       I    between atoms: N_8  and  C_9 
REMARK    6  A    between atoms: C_9  and  C_11 
REMARK    7  A    between atoms: C_17  and  C_18 
ROOT
HETATM    1  C   UNK N   1      34.540  15.390   7.294  0.00  0.00     0.062 A 
HETATM    2  C   UNK N   1      34.158  14.888   8.518  0.00  0.00    -0.018 A 
HETATM    3  C   UNK N   1      33.063  15.389   9.392  0.00  0.00     0.052 C 
HETATM    4  C   UNK N   1      35.523  14.542   6.819  0.00  0.00     0.022 A 
HETATM    5  C   UNK N   1      36.281  14.699   5.547  0.00  0.00     0.069 C 
HETATM    6  N   UNK N   1      35.805  13.594   7.737  0.00  0.00    -0.359 N 
HETATM    7  C   UNK N   1      34.970  13.815   8.776  0.00  0.00     0.040 A 
HETATM    8  H   UNK N   1      36.483  12.884   7.664  0.00  0.00     0.166 HD
ENDROOT
BRANCH   7   9
HETATM    9  C   UNK N   1      35.076  13.154  10.086  0.00  0.00     0.048 C 
HETATM   10  C   UNK N   1      35.569  13.704  11.198  0.00  0.00     0.047 A 
HETATM   11  C   UNK N   1      35.386  13.178  12.541  0.00  0.00     0.008 A 
HETATM   12  C   UNK N   1      36.313  14.959  11.400  0.00  0.00     0.257 A 
HETATM   13  C   UNK N   1      34.680  12.068  13.002  0.00  0.00     0.038 A 
HETATM   14  C   UNK N   1      35.972  14.074  13.409  0.00  0.00     0.046 A 
HETATM   15  C   UNK N   1      34.592  11.875  14.392  0.00  0.00     0.035 A 
HETATM   16 Cl   UNK N   1      33.682  10.520  15.027  0.00  0.00    -0.084 Cl
HETATM   17  C   UNK N   1      35.204  12.788  15.280  0.00  0.00     0.026 A 
HETATM   18  C   UNK N   1      35.905  13.904  14.787  0.00  0.00     0.032 A 
HETATM   19  N   UNK N   1      36.556  15.155  12.715  0.00  0.00    -0.322 N 
HETATM   20  H   UNK N   1      37.047  15.909  13.114  0.00  0.00     0.169 HD
HETATM   21  O   UNK N   1      36.709  15.711  10.528  0.00  0.00    -0.267 OA
ENDBRANCH   7   9
BRANCH   1  22
HETATM   22  C   UNK N   1      34.046  16.641   6.677  0.00  0.00     0.254 C 
HETATM   23  N   UNK N   1      32.961  16.624   5.850  0.00  0.00    -0.355 N 
HETATM   24  H   UNK N   1      32.763  17.417   5.302  0.00  0.00     0.162 HD
HETATM   25  O   UNK N   1      34.540  17.710   6.995  0.00  0.00    -0.268 OA
BRANCH  23  26
HETATM   26  C   UNK N   1      32.091  15.464   5.762  0.00  0.00     0.153 C 
BRANCH  26  27
HETATM   27  C   UNK N   1      30.654  15.747   6.179  0.00  0.00     0.292 C 
BRANCH  27  28
HETATM   28  N   UNK N   1      30.500  17.171   6.484  0.00  0.00     0.089 N 
BRANCH  28  29
HETATM   29  C   UNK N   1      29.403  17.656   5.659  0.00  0.00     0.268 C 
HETATM   30  C   UNK N   1      28.169  17.909   6.509  0.00  0.00     0.037 C 
ENDBRANCH  28  29
BRANCH  28  31
HETATM   31  C   UNK N   1      30.089  17.306   7.881  0.00  0.00     0.268 C 
HETATM   32  C   UNK N   1      31.028  18.219   8.648  0.00  0.00     0.037 C 
ENDBRANCH  28  31
ENDBRANCH  27  28
ENDBRANCH  26  27
ENDBRANCH  23  26
ENDBRANCH   1  22
TORSDOF 7
ENDMDL
MODEL 3
REMARK VINA RESULT:      -6.7      3.376      5.852
REMARK  7 active torsions:
REMARK  status: ('A' for Active; 'I' for Inactive)
REMARK    1  A    between atoms: C_2  and  N_3 
REMARK    2  A    between atoms: N_3  and  C_4 
REMARK    3  A    between atoms: N_3  and  C_6 
REMARK    4  A    between atoms: C_6  and  C_7 
REMARK    5  A    between atoms: C_7  and  N_8 
REMARK       I    between atoms: N_8  and  C_9 
REMARK    6  A    between atoms: C_9  and  C_11 
REMARK    7  A    between atoms: C_17  and  C_18 
ROOT
HETATM    1  C   UNK N   1      35.768  13.481  10.821  0.00  0.00     0.062 A 
HETATM    2  C   UNK N   1      35.246  14.667  10.356  0.00  0.00    -0.018 A 
HETATM    3  C   UNK N   1      35.902  16.002  10.362  0.00  0.00     0.052 C 
HETATM    4  C   UNK N   1      34.843  12.503  10.510  0.00  0.00     0.022 A 
HETATM    5  C   UNK N   1      34.939  11.058  10.856  0.00  0.00     0.069 C 
HETATM    6  N   UNK N   1      33.749  13.058   9.945  0.00  0.00    -0.359 N 
HETATM    7  C   UNK N   1      34.001  14.382   9.859  0.00  0.00     0.040 A 
HETATM    8  H   UNK N   1      32.933  12.590   9.655  0.00  0.00     0.166 HD
ENDROOT
BRANCH   7   9
HETATM    9  C   UNK N   1      32.999  15.400   9.506  0.00  0.00     0.048 C 
HETATM   10  C   UNK N   1      32.619  15.721   8.267  0.00  0.00     0.047 A 
HETATM   11  C   UNK N   1      31.427  16.483   7.931  0.00  0.00     0.008 A 
HETATM   12  C   UNK N   1      33.195  15.357   6.961  0.00  0.00     0.257 A 
HETATM   13  C   UNK N   1      30.422  17.014   8.738  0.00  0.00     0.038 A 
HETATM   14  C   UNK N   1      31.349  16.524   6.556  0.00  0.00     0.046 A 
HETATM   15  C   UNK N   1      29.319  17.614   8.104  0.00  0.00     0.035 A 
HETATM   16 Cl   UNK N   1      28.007  18.261   9.068  0.00  0.00    -0.084 Cl
HETATM   17  C   UNK N   1      29.246  17.667   6.695  0.00  0.00     0.026 A 
HETATM   18  C   UNK N   1      30.272  17.116   5.905  0.00  0.00     0.032 A 
HETATM   19  N   UNK N   1      32.437  15.853   5.959  0.00  0.00    -0.322 N 
HETATM   20  H   UNK N   1      32.611  15.764   4.993  0.00  0.00     0.169 HD
HETATM   21  O   UNK N   1      34.228  14.740   6.775  0.00  0.00    -0.267 OA
ENDBRANCH   7   9
BRANCH   1  22
HETATM   22  C   UNK N   1      37.029  13.328  11.581  0.00  0.00     0.254 C 
HETATM   23  N   UNK N   1      37.100  13.709  12.889  0.00  0.00    -0.355 N 
HETATM   24  H   UNK N   1      37.981  13.781  13.321  0.00  0.00     0.162 HD
HETATM   25  O   UNK N   1      37.978  12.754  11.072  0.00  0.00    -0.268 OA
BRANCH  23  26
HETATM   26  C   UNK N   1      35.905  14.011  13.659  0.00  0.00     0.153 C 
BRANCH  26  27
HETATM   27  C   UNK N   1      35.985  13.556  15.109  0.00  0.00     0.292 C 
BRANCH  27  28
HETATM   28  N   UNK N   1      34.809  12.747  15.438  0.00  0.00     0.089 N 
BRANCH  28  29
HETATM   29  C   UNK N   1      34.783  11.646  14.486  0.00  0.00     0.268 C 
HETATM   30  C   UNK N   1      33.592  10.741  14.751  0.00  0.00     0.037 C 
ENDBRANCH  28  29
BRANCH  28  31
HETATM   31  C   UNK N   1      35.000  12.169  16.768  0.00  0.00     0.268 C 
HETATM   32  C   UNK N   1      35.112  13.246  17.830  0.00  0.00     0.037 C 
ENDBRANCH  28  31
ENDBRANCH  27  28
ENDBRANCH  26  27
ENDBRANCH  23  26
ENDBRANCH   1  22
TORSDOF 7
ENDMDL
MODEL 4
REMARK VINA RESULT:      -6.7     13.102     16.326
REMARK  7 active torsions:
REMARK  status: ('A' for Active; 'I' for Inactive)
REMARK    1  A    between atoms: C_2  and  N_3 
REMARK    2  A    between atoms: N_3  and  C_4 
REMARK    3  A    between atoms: N_3  and  C_6 
REMARK    4  A    between atoms: C_6  and  C_7 
REMARK    5  A    between atoms: C_7  and  N_8 
REMARK       I    between atoms: N_8  and  C_9 
REMARK    6  A    between atoms: C_9  and  C_11 
REMARK    7  A    between atoms: C_17  and  C_18 
ROOT
HETATM    1  C   UNK N   1      27.201  27.526  -5.010  0.00  0.00     0.062 A 
HETATM    2  C   UNK N   1      28.225  26.780  -4.473  0.00  0.00    -0.018 A 
HETATM    3  C   UNK N   1      29.603  27.243  -4.155  0.00  0.00     0.052 C 
HETATM    4  C   UNK N   1      26.091  26.702  -5.026  0.00  0.00     0.022 A 
HETATM    5  C   UNK N   1      24.746  27.047  -5.565  0.00  0.00     0.069 C 
HETATM    6  N   UNK N   1      26.420  25.467  -4.593  0.00  0.00    -0.359 N 
HETATM    7  C   UNK N   1      27.729  25.520  -4.261  0.00  0.00     0.040 A 
HETATM    8  H   UNK N   1      25.826  24.685  -4.532  0.00  0.00     0.166 HD
ENDROOT
BRANCH   7   9
HETATM    9  C   UNK N   1      28.558  24.347  -3.946  0.00  0.00     0.048 C 
HETATM   10  C   UNK N   1      28.832  23.341  -4.779  0.00  0.00     0.047 A 
HETATM   11  C   UNK N   1      29.888  22.360  -4.585  0.00  0.00     0.008 A 
HETATM   12  C   UNK N   1      28.256  22.996  -6.091  0.00  0.00     0.257 A 
HETATM   13  C   UNK N   1      30.842  22.229  -3.577  0.00  0.00     0.038 A 
HETATM   14  C   UNK N   1      29.897  21.550  -5.700  0.00  0.00     0.046 A 
HETATM   15  C   UNK N   1      31.818  21.227  -3.722  0.00  0.00     0.035 A 
HETATM   16 Cl   UNK N   1      33.066  21.045  -2.507  0.00  0.00    -0.084 Cl
HETATM   17  C   UNK N   1      31.819  20.390  -4.860  0.00  0.00     0.026 A 
HETATM   18  C   UNK N   1      30.848  20.549  -5.865  0.00  0.00     0.032 A 
HETATM   19  N   UNK N   1      28.890  21.924  -6.615  0.00  0.00    -0.322 N 
HETATM   20  H   UNK N   1      28.688  21.485  -7.473  0.00  0.00     0.169 HD
HETATM   21  O   UNK N   1      27.315  23.547  -6.632  0.00  0.00    -0.267 OA
ENDBRANCH   7   9
BRANCH   1  22
HETATM   22  C   UNK N   1      27.315  28.903  -5.541  0.00  0.00     0.254 C 
HETATM   23  N   UNK N   1      26.992  29.975  -4.762  0.00  0.00    -0.355 N 
HETATM   24  H   UNK N   1      26.888  30.859  -5.181  0.00  0.00     0.162 HD
HETATM   25  O   UNK N   1      27.808  29.089  -6.641  0.00  0.00    -0.268 OA
BRANCH  23  26
HETATM   26  C   UNK N   1      26.796  29.842  -3.328  0.00  0.00     0.153 C 
BRANCH  26  27
HETATM   27  C   UNK N   1      27.533  30.896  -2.513  0.00  0.00     0.292 C 
BRANCH  27  28
HETATM   28  N   UNK N   1      28.543  30.252  -1.671  0.00  0.00     0.089 N 
BRANCH  28  29
HETATM   29  C   UNK N   1      29.824  30.444  -2.337  0.00  0.00     0.268 C 
HETATM   30  C   UNK N   1      30.920  29.681  -1.612  0.00  0.00     0.037 C 
ENDBRANCH  28  29
BRANCH  28  31
HETATM   31  C   UNK N   1      28.605  30.962  -0.394  0.00  0.00     0.268 C 
HETATM   32  C   UNK N   1      28.106  30.095   0.747  0.00  0.00     0.037 C 
ENDBRANCH  28  31
ENDBRANCH  27  28
ENDBRANCH  26  27
ENDBRANCH  23  26
ENDBRANCH   1  22
TORSDOF 7
ENDMDL
MODEL 5
REMARK VINA RESULT:      -6.6      4.678      7.466
REMARK  7 active torsions:
REMARK  status: ('A' for Active; 'I' for Inactive)
REMARK    1  A    between atoms: C_2  and  N_3 
REMARK    2  A    between atoms: N_3  and  C_4 
REMARK    3  A    between atoms: N_3  and  C_6 
REMARK    4  A    between atoms: C_6  and  C_7 
REMARK    5  A    between atoms: C_7  and  N_8 
REMARK       I    between atoms: N_8  and  C_9 
REMARK    6  A    between atoms: C_9  and  C_11 
REMARK    7  A    between atoms: C_17  and  C_18 
ROOT
HETATM    1  C   UNK N   1      36.037  11.284  11.663  0.00  0.00     0.062 A 
HETATM    2  C   UNK N   1      35.998  12.039  10.514  0.00  0.00    -0.018 A 
HETATM    3  C   UNK N   1      37.156  12.592   9.761  0.00  0.00     0.052 C 
HETATM    4  C   UNK N   1      34.731  10.918  11.930  0.00  0.00     0.022 A 
HETATM    5  C   UNK N   1      34.260  10.131  13.104  0.00  0.00     0.069 C 
HETATM    6  N   UNK N   1      33.896  11.483  11.033  0.00  0.00    -0.359 N 
HETATM    7  C   UNK N   1      34.677  12.172  10.173  0.00  0.00     0.040 A 
HETATM    8  H   UNK N   1      32.915  11.408  11.012  0.00  0.00     0.166 HD
ENDROOT
BRANCH   7   9
HETATM    9  C   UNK N   1      34.174  13.118   9.164  0.00  0.00     0.048 C 
HETATM   10  C   UNK N   1      34.099  14.442   9.308  0.00  0.00     0.047 A 
HETATM   11  C   UNK N   1      33.907  15.390   8.222  0.00  0.00     0.008 A 
HETATM   12  C   UNK N   1      34.265  15.290  10.501  0.00  0.00     0.257 A 
HETATM   13  C   UNK N   1      33.789  15.195   6.846  0.00  0.00     0.038 A 
HETATM   14  C   UNK N   1      33.972  16.652   8.771  0.00  0.00     0.046 A 
HETATM   15  C   UNK N   1      33.723  16.334   6.024  0.00  0.00     0.035 A 
HETATM   16 Cl   UNK N   1      33.616  16.148   4.286  0.00  0.00    -0.084 Cl
HETATM   17  C   UNK N   1      33.777  17.628   6.589  0.00  0.00     0.026 A 
HETATM   18  C   UNK N   1      33.903  17.795   7.981  0.00  0.00     0.032 A 
HETATM   19  N   UNK N   1      34.173  16.596  10.166  0.00  0.00    -0.322 N 
HETATM   20  H   UNK N   1      34.234  17.364  10.780  0.00  0.00     0.169 HD
HETATM   21  O   UNK N   1      34.418  14.903  11.645  0.00  0.00    -0.267 OA
ENDBRANCH   7   9
BRANCH   1  22
HETATM   22  C   UNK N   1      37.240  11.012  12.482  0.00  0.00     0.254 C 
HETATM   23  N   UNK N   1      37.666  11.917  13.409  0.00  0.00    -0.355 N 
HETATM   24  H   UNK N   1      38.562  11.814  13.804  0.00  0.00     0.162 HD
HETATM   25  O   UNK N   1      37.790   9.925  12.409  0.00  0.00    -0.268 OA
BRANCH  23  26
HETATM   26  C   UNK N   1      36.829  13.029  13.827  0.00  0.00     0.153 C 
BRANCH  26  27
HETATM   27  C   UNK N   1      36.664  13.131  15.337  0.00  0.00     0.292 C 
BRANCH  27  28
HETATM   28  N   UNK N   1      35.557  12.277  15.772  0.00  0.00     0.089 N 
BRANCH  28  29
HETATM   29  C   UNK N   1      36.109  11.344  16.744  0.00  0.00     0.268 C 
HETATM   30  C   UNK N   1      36.332   9.982  16.109  0.00  0.00     0.037 C 
ENDBRANCH  28  29
BRANCH  28  31
HETATM   31  C   UNK N   1      34.576  13.106  16.471  0.00  0.00     0.268 C 
HETATM   32  C   UNK N   1      35.084  13.533  17.836  0.00  0.00     0.037 C 
ENDBRANCH  28  31
ENDBRANCH  27  28
ENDBRANCH  26  27
ENDBRANCH  23  26
ENDBRANCH   1  22
TORSDOF 7
ENDMDL
MODEL 6
REMARK VINA RESULT:      -6.5      4.081      9.475
REMARK  7 active torsions:
REMARK  status: ('A' for Active; 'I' for Inactive)
REMARK    1  A    between atoms: C_2  and  N_3 
REMARK    2  A    between atoms: N_3  and  C_4 
REMARK    3  A    between atoms: N_3  and  C_6 
REMARK    4  A    between atoms: C_6  and  C_7 
REMARK    5  A    between atoms: C_7  and  N_8 
REMARK       I    between atoms: N_8  and  C_9 
REMARK    6  A    between atoms: C_9  and  C_11 
REMARK    7  A    between atoms: C_17  and  C_18 
ROOT
HETATM    1  C   UNK N   1      34.325  16.124   8.037  0.00  0.00     0.062 A 
HETATM    2  C   UNK N   1      34.463  15.015   8.840  0.00  0.00    -0.018 A 
HETATM    3  C   UNK N   1      34.314  13.590   8.439  0.00  0.00     0.052 C 
HETATM    4  C   UNK N   1      34.656  17.213   8.822  0.00  0.00     0.022 A 
HETATM    5  C   UNK N   1      34.610  18.642   8.408  0.00  0.00     0.069 C 
HETATM    6  N   UNK N   1      34.915  16.816  10.086  0.00  0.00    -0.359 N 
HETATM    7  C   UNK N   1      34.790  15.470  10.091  0.00  0.00     0.040 A 
HETATM    8  H   UNK N   1      35.148  17.391  10.849  0.00  0.00     0.166 HD
ENDROOT
BRANCH   7   9
HETATM    9  C   UNK N   1      34.772  14.639  11.305  0.00  0.00     0.048 C 
HETATM   10  C   UNK N   1      35.771  13.865  11.733  0.00  0.00     0.047 A 
HETATM   11  C   UNK N   1      35.878  13.302  13.069  0.00  0.00     0.008 A 
HETATM   12  C   UNK N   1      37.018  13.450  11.066  0.00  0.00     0.257 A 
HETATM   13  C   UNK N   1      35.051  13.431  14.185  0.00  0.00     0.038 A 
HETATM   14  C   UNK N   1      37.085  12.642  13.135  0.00  0.00     0.046 A 
HETATM   15  C   UNK N   1      35.482  12.849  15.391  0.00  0.00     0.035 A 
HETATM   16 Cl   UNK N   1      34.504  13.015  16.835  0.00  0.00    -0.084 Cl
HETATM   17  C   UNK N   1      36.714  12.162  15.454  0.00  0.00     0.026 A 
HETATM   18  C   UNK N   1      37.531  12.054  14.313  0.00  0.00     0.032 A 
HETATM   19  N   UNK N   1      37.778  12.714  11.908  0.00  0.00    -0.322 N 
HETATM   20  H   UNK N   1      38.650  12.305  11.703  0.00  0.00     0.169 HD
HETATM   21  O   UNK N   1      37.329  13.680   9.912  0.00  0.00    -0.267 OA
ENDBRANCH   7   9
BRANCH   1  22
HETATM   22  C   UNK N   1      33.829  16.129   6.643  0.00  0.00     0.254 C 
HETATM   23  N   UNK N   1      32.491  16.061   6.383  0.00  0.00    -0.355 N 
HETATM   24  H   UNK N   1      32.189  15.872   5.466  0.00  0.00     0.162 HD
HETATM   25  O   UNK N   1      34.609  16.309   5.722  0.00  0.00    -0.268 OA
BRANCH  23  26
HETATM   26  C   UNK N   1      31.502  16.259   7.429  0.00  0.00     0.153 C 
BRANCH  26  27
HETATM   27  C   UNK N   1      30.556  17.420   7.159  0.00  0.00     0.292 C 
BRANCH  27  28
HETATM   28  N   UNK N   1      29.293  17.203   7.868  0.00  0.00     0.089 N 
BRANCH  28  29
HETATM   29  C   UNK N   1      28.947  18.469   8.499  0.00  0.00     0.268 C 
HETATM   30  C   UNK N   1      29.666  18.616   9.829  0.00  0.00     0.037 C 
ENDBRANCH  28  29
BRANCH  28  31
HETATM   31  C   UNK N   1      28.252  16.906   6.885  0.00  0.00     0.268 C 
HETATM   32  C   UNK N   1      28.597  17.480   5.523  0.00  0.00     0.037 C 
ENDBRANCH  28  31
ENDBRANCH  27  28
ENDBRANCH  26  27
ENDBRANCH  23  26
ENDBRANCH   1  22
TORSDOF 7
ENDMDL
MODEL 7
REMARK VINA RESULT:      -6.5      4.062      9.084
REMARK  7 active torsions:
REMARK  status: ('A' for Active; 'I' for Inactive)
REMARK    1  A    between atoms: C_2  and  N_3 
REMARK    2  A    between atoms: N_3  and  C_4 
REMARK    3  A    between atoms: N_3  and  C_6 
REMARK    4  A    between atoms: C_6  and  C_7 
REMARK    5  A    between atoms: C_7  and  N_8 
REMARK       I    between atoms: N_8  and  C_9 
REMARK    6  A    between atoms: C_9  and  C_11 
REMARK    7  A    between atoms: C_17  and  C_18 
ROOT
HETATM    1  C   UNK N   1      33.160  16.401   7.319  0.00  0.00     0.062 A 
HETATM    2  C   UNK N   1      34.045  15.569   7.965  0.00  0.00    -0.018 A 
HETATM    3  C   UNK N   1      35.305  14.997   7.418  0.00  0.00     0.052 C 
HETATM    4  C   UNK N   1      32.204  16.750   8.254  0.00  0.00     0.022 A 
HETATM    5  C   UNK N   1      31.006  17.601   8.013  0.00  0.00     0.069 C 
HETATM    6  N   UNK N   1      32.430  16.102   9.417  0.00  0.00    -0.359 N 
HETATM    7  C   UNK N   1      33.555  15.377   9.231  0.00  0.00     0.040 A 
HETATM    8  H   UNK N   1      31.885  16.149  10.235  0.00  0.00     0.166 HD
ENDROOT
BRANCH   7   9
HETATM    9  C   UNK N   1      34.050  14.352  10.163  0.00  0.00     0.048 C 
HETATM   10  C   UNK N   1      34.947  14.549  11.131  0.00  0.00     0.047 A 
HETATM   11  C   UNK N   1      35.197  13.637  12.236  0.00  0.00     0.008 A 
HETATM   12  C   UNK N   1      35.825  15.699  11.408  0.00  0.00     0.257 A 
HETATM   13  C   UNK N   1      34.598  12.424  12.575  0.00  0.00     0.038 A 
HETATM   14  C   UNK N   1      36.127  14.239  13.055  0.00  0.00     0.046 A 
HETATM   15  C   UNK N   1      34.983  11.817  13.784  0.00  0.00     0.035 A 
HETATM   16 Cl   UNK N   1      34.233  10.314  14.280  0.00  0.00    -0.084 Cl
HETATM   17  C   UNK N   1      35.945  12.429  14.617  0.00  0.00     0.026 A 
HETATM   18  C   UNK N   1      36.529  13.657  14.252  0.00  0.00     0.032 A 
HETATM   19  N   UNK N   1      36.527  15.492  12.544  0.00  0.00    -0.322 N 
HETATM   20  H   UNK N   1      37.193  16.100  12.941  0.00  0.00     0.169 HD
HETATM   21  O   UNK N   1      35.959  16.688  10.711  0.00  0.00    -0.267 OA
ENDBRANCH   7   9
BRANCH   1  22
HETATM   22  C   UNK N   1      33.197  16.761   5.884  0.00  0.00     0.254 C 
HETATM   23  N   UNK N   1      32.565  15.983   4.958  0.00  0.00    -0.355 N 
HETATM   24  H   UNK N   1      32.756  16.123   4.003  0.00  0.00     0.162 HD
HETATM   25  O   UNK N   1      33.698  17.818   5.536  0.00  0.00    -0.268 OA
BRANCH  23  26
HETATM   26  C   UNK N   1      31.617  14.954   5.350  0.00  0.00     0.153 C 
BRANCH  26  27
HETATM   27  C   UNK N   1      30.167  15.327   5.076  0.00  0.00     0.292 C 
BRANCH  27  28
HETATM   28  N   UNK N   1      30.056  15.936   3.748  0.00  0.00     0.089 N 
BRANCH  28  29
HETATM   29  C   UNK N   1      29.722  14.861   2.825  0.00  0.00     0.268 C 
HETATM   30  C   UNK N   1      28.280  14.984   2.363  0.00  0.00     0.037 C 
ENDBRANCH  28  29
BRANCH  28  31
HETATM   31  C   UNK N   1      28.930  16.869   3.758  0.00  0.00     0.268 C 
HETATM   32  C   UNK N   1      29.138  17.979   4.771  0.00  0.00     0.037 C 
ENDBRANCH  28  31
ENDBRANCH  27  28
ENDBRANCH  26  27
ENDBRANCH  23  26
ENDBRANCH   1  22
TORSDOF 7
ENDMDL
MODEL 8
REMARK VINA RESULT:      -6.4      3.301      5.041
REMARK  7 active torsions:
REMARK  status: ('A' for Active; 'I' for Inactive)
REMARK    1  A    between atoms: C_2  and  N_3 
REMARK    2  A    between atoms: N_3  and  C_4 
REMARK    3  A    between atoms: N_3  and  C_6 
REMARK    4  A    between atoms: C_6  and  C_7 
REMARK    5  A    between atoms: C_7  and  N_8 
REMARK       I    between atoms: N_8  and  C_9 
REMARK    6  A    between atoms: C_9  and  C_11 
REMARK    7  A    between atoms: C_17  and  C_18 
ROOT
HETATM    1  C   UNK N   1      35.040  14.780   9.521  0.00  0.00     0.062 A 
HETATM    2  C   UNK N   1      33.996  14.499   8.669  0.00  0.00    -0.018 A 
HETATM    3  C   UNK N   1      33.736  13.217   7.958  0.00  0.00     0.052 C 
HETATM    4  C   UNK N   1      34.805  16.050  10.013  0.00  0.00     0.022 A 
HETATM    5  C   UNK N   1      35.687  16.812  10.939  0.00  0.00     0.069 C 
HETATM    6  N   UNK N   1      33.704  16.578   9.437  0.00  0.00    -0.359 N 
HETATM    7  C   UNK N   1      33.217  15.625   8.612  0.00  0.00     0.040 A 
HETATM    8  H   UNK N   1      33.331  17.476   9.589  0.00  0.00     0.166 HD
ENDROOT
BRANCH   7   9
HETATM    9  C   UNK N   1      32.151  15.844   7.622  0.00  0.00     0.048 C 
HETATM   10  C   UNK N   1      32.301  16.439   6.436  0.00  0.00     0.047 A 
HETATM   11  C   UNK N   1      31.343  16.375   5.344  0.00  0.00     0.008 A 
HETATM   12  C   UNK N   1      33.430  17.205   5.882  0.00  0.00     0.257 A 
HETATM   13  C   UNK N   1      30.124  15.706   5.233  0.00  0.00     0.038 A 
HETATM   14  C   UNK N   1      31.903  17.041   4.276  0.00  0.00     0.046 A 
HETATM   15  C   UNK N   1      29.466  15.743   3.990  0.00  0.00     0.035 A 
HETATM   16 Cl   UNK N   1      27.953  14.887   3.782  0.00  0.00    -0.084 Cl
HETATM   17  C   UNK N   1      30.036  16.437   2.899  0.00  0.00     0.026 A 
HETATM   18  C   UNK N   1      31.271  17.097   3.039  0.00  0.00     0.032 A 
HETATM   19  N   UNK N   1      33.171  17.565   4.605  0.00  0.00    -0.322 N 
HETATM   20  H   UNK N   1      33.756  18.095   4.016  0.00  0.00     0.169 HD
HETATM   21  O   UNK N   1      34.444  17.525   6.473  0.00  0.00    -0.267 OA
ENDBRANCH   7   9
BRANCH   1  22
HETATM   22  C   UNK N   1      36.214  13.915   9.769  0.00  0.00     0.254 C 
HETATM   23  N   UNK N   1      36.314  13.197  10.925  0.00  0.00    -0.355 N 
HETATM   24  H   UNK N   1      37.175  12.783  11.161  0.00  0.00     0.162 HD
HETATM   25  O   UNK N   1      37.045  13.753   8.890  0.00  0.00    -0.268 OA
BRANCH  23  26
HETATM   26  C   UNK N   1      35.178  13.029  11.816  0.00  0.00     0.153 C 
BRANCH  26  27
HETATM   27  C   UNK N   1      35.313  13.795  13.125  0.00  0.00     0.292 C 
BRANCH  27  28
HETATM   28  N   UNK N   1      35.067  12.893  14.252  0.00  0.00     0.089 N 
BRANCH  28  29
HETATM   29  C   UNK N   1      34.817  11.576  13.684  0.00  0.00     0.268 C 
HETATM   30  C   UNK N   1      33.812  10.813  14.530  0.00  0.00     0.037 C 
ENDBRANCH  28  29
BRANCH  28  31
HETATM   31  C   UNK N   1      36.289  12.800  15.049  0.00  0.00     0.268 C 
HETATM   32  C   UNK N   1      36.812  14.174  15.424  0.00  0.00     0.037 C 
ENDBRANCH  28  31
ENDBRANCH  27  28
ENDBRANCH  26  27
ENDBRANCH  23  26
ENDBRANCH   1  22
TORSDOF 7
ENDMDL
MODEL 9
REMARK VINA RESULT:      -6.3      4.104      9.183
REMARK  7 active torsions:
REMARK  status: ('A' for Active; 'I' for Inactive)
REMARK    1  A    between atoms: C_2  and  N_3 
REMARK    2  A    between atoms: N_3  and  C_4 
REMARK    3  A    between atoms: N_3  and  C_6 
REMARK    4  A    between atoms: C_6  and  C_7 
REMARK    5  A    between atoms: C_7  and  N_8 
REMARK       I    between atoms: N_8  and  C_9 
REMARK    6  A    between atoms: C_9  and  C_11 
REMARK    7  A    between atoms: C_17  and  C_18 
ROOT
HETATM    1  C   UNK N   1      34.396  15.914   7.152  0.00  0.00     0.062 A 
HETATM    2  C   UNK N   1      34.093  15.946   8.494  0.00  0.00    -0.018 A 
HETATM    3  C   UNK N   1      33.043  16.763   9.160  0.00  0.00     0.052 C 
HETATM    4  C   UNK N   1      35.363  14.939   6.997  0.00  0.00     0.022 A 
HETATM    5  C   UNK N   1      36.044  14.568   5.726  0.00  0.00     0.069 C 
HETATM    6  N   UNK N   1      35.713  14.433   8.199  0.00  0.00    -0.359 N 
HETATM    7  C   UNK N   1      34.936  15.058   9.111  0.00  0.00     0.040 A 
HETATM    8  H   UNK N   1      36.396  13.748   8.375  0.00  0.00     0.166 HD
ENDROOT
BRANCH   7   9
HETATM    9  C   UNK N   1      35.127  14.975  10.567  0.00  0.00     0.048 C 
HETATM   10  C   UNK N   1      35.173  13.849  11.283  0.00  0.00     0.047 A 
HETATM   11  C   UNK N   1      35.670  13.746  12.646  0.00  0.00     0.008 A 
HETATM   12  C   UNK N   1      34.846  12.462  10.912  0.00  0.00     0.257 A 
HETATM   13  C   UNK N   1      36.217  14.707  13.496  0.00  0.00     0.038 A 
HETATM   14  C   UNK N   1      35.629  12.413  12.991  0.00  0.00     0.046 A 
HETATM   15  C   UNK N   1      36.719  14.276  14.737  0.00  0.00     0.035 A 
HETATM   16 Cl   UNK N   1      37.455  15.432  15.827  0.00  0.00    -0.084 Cl
HETATM   17  C   UNK N   1      36.665  12.911  15.095  0.00  0.00     0.026 A 
HETATM   18  C   UNK N   1      36.113  11.962  14.214  0.00  0.00     0.032 A 
HETATM   19  N   UNK N   1      35.109  11.626  11.942  0.00  0.00    -0.322 N 
HETATM   20  H   UNK N   1      34.965  10.652  11.957  0.00  0.00     0.169 HD
HETATM   21  O   UNK N   1      34.364  12.091   9.858  0.00  0.00    -0.267 OA
ENDBRANCH   7   9
BRANCH   1  22
HETATM   22  C   UNK N   1      33.847  16.819   6.117  0.00  0.00     0.254 C 
HETATM   23  N   UNK N   1      32.824  16.410   5.312  0.00  0.00    -0.355 N 
HETATM   24  H   UNK N   1      32.602  16.940   4.513  0.00  0.00     0.162 HD
HETATM   25  O   UNK N   1      34.233  17.975   6.056  0.00  0.00    -0.268 OA
BRANCH  23  26
HETATM   26  C   UNK N   1      32.057  15.213   5.606  0.00  0.00     0.153 C 
BRANCH  26  27
HETATM   27  C   UNK N   1      30.630  15.499   6.054  0.00  0.00     0.292 C 
BRANCH  27  28
HETATM   28  N   UNK N   1      30.072  16.593   5.255  0.00  0.00     0.089 N 
BRANCH  28  29
HETATM   29  C   UNK N   1      29.088  15.997   4.363  0.00  0.00     0.268 C 
HETATM   30  C   UNK N   1      29.487  16.209   2.912  0.00  0.00     0.037 C 
ENDBRANCH  28  29
BRANCH  28  31
HETATM   31  C   UNK N   1      29.357  17.503   6.149  0.00  0.00     0.268 C 
HETATM   32  C   UNK N   1      29.687  17.225   7.604  0.00  0.00     0.037 C 
ENDBRANCH  28  31
ENDBRANCH  27  28
ENDBRANCH  26  27
ENDBRANCH  23  26
ENDBRANCH   1  22
TORSDOF 7
ENDMDL
