REMARK  7 active torsions:
REMARK  status: ('A' for Active; 'I' for Inactive)
REMARK    1  A    between atoms: C_2  and  N_3 
REMARK    2  A    between atoms: N_3  and  C_4 
REMARK    3  A    between atoms: N_3  and  C_6 
REMARK    4  A    between atoms: C_6  and  C_7 
REMARK    5  A    between atoms: C_7  and  N_8 
REMARK       I    between atoms: N_8  and  C_9 
REMARK    6  A    between atoms: C_9  and  C_11 
REMARK    7  A    between atoms: C_17  and  C_18 
ROOT
HETATM    1  C   UNK N   1       2.806  -6.673   0.085  0.00  0.00     0.062 A 
HETATM    2  C   UNK N   1       1.926  -5.800   0.683  0.00  0.00    -0.018 A 
HETATM    3  C   UNK N   1       0.844  -6.135   1.648  0.00  0.00     0.052 C 
HETATM    4  C   UNK N   1       3.686  -5.895  -0.644  0.00  0.00     0.022 A 
HETATM    5  C   UNK N   1       4.794  -6.392  -1.506  0.00  0.00     0.069 C 
HETATM    6  N   UNK N   1       3.329  -4.595  -0.573  0.00  0.00    -0.359 N 
HETATM    7  C   UNK N   1       2.248  -4.545   0.236  0.00  0.00     0.040 A 
HETATM    8  H   UNK N   1       3.768  -3.837  -1.021  0.00  0.00     0.166 HD
ENDROOT
BRANCH   7   9
HETATM    9  C   UNK N   1       1.399  -3.358   0.421  0.00  0.00     0.048 C 
HETATM   10  C   UNK N   1       1.797  -2.090   0.301  0.00  0.00     0.047 A 
HETATM   11  C   UNK N   1       0.910  -0.945   0.171  0.00  0.00     0.008 A 
HETATM   12  C   UNK N   1       3.148  -1.515   0.182  0.00  0.00     0.257 A 
HETATM   13  C   UNK N   1      -0.481  -0.867   0.110  0.00  0.00     0.038 A 
HETATM   14  C   UNK N   1       1.706   0.164  -0.014  0.00  0.00     0.046 A 
HETATM   15  C   UNK N   1      -1.058   0.392  -0.134  0.00  0.00     0.035 A 
HETATM   16 Cl   UNK N   1      -2.798   0.542  -0.262  0.00  0.00    -0.084 Cl
HETATM   17  C   UNK N   1      -0.241   1.531  -0.311  0.00  0.00     0.026 A 
HETATM   18  C   UNK N   1       1.161   1.421  -0.251  0.00  0.00     0.032 A 
HETATM   19  N   UNK N   1       3.075  -0.176   0.010  0.00  0.00    -0.322 N 
HETATM   20  H   UNK N   1       3.834   0.445  -0.081  0.00  0.00     0.169 HD
HETATM   21  O   UNK N   1       4.200  -2.121   0.268  0.00  0.00    -0.267 OA
ENDBRANCH   7   9
BRANCH   1  22
HETATM   22  C   UNK N   1       2.743  -8.150   0.151  0.00  0.00     0.254 C 
HETATM   23  N   UNK N   1       1.571  -8.805  -0.092  0.00  0.00    -0.355 N 
HETATM   24  H   UNK N   1       1.497  -9.758   0.141  0.00  0.00     0.162 HD
HETATM   25  O   UNK N   1       3.767  -8.794   0.312  0.00  0.00    -0.268 OA
BRANCH  23  26
HETATM   26  C   UNK N   1       0.431  -8.128  -0.686  0.00  0.00     0.153 C 
BRANCH  26  27
HETATM   27  C   UNK N   1      -0.810  -8.139   0.196  0.00  0.00     0.292 C 
BRANCH  27  28
HETATM   28  N   UNK N   1      -1.826  -7.249  -0.370  0.00  0.00     0.089 N 
BRANCH  28  29
HETATM   29  C   UNK N   1      -3.092  -7.617   0.248  0.00  0.00     0.268 C 
HETATM   30  C   UNK N   1      -4.258  -7.106  -0.581  0.00  0.00     0.037 C 
ENDBRANCH  28  29
BRANCH  28  31
HETATM   31  C   UNK N   1      -1.523  -5.878   0.039  0.00  0.00     0.268 C 
HETATM   32  C   UNK N   1      -2.025  -4.872  -0.980  0.00  0.00     0.037 C 
ENDBRANCH  28  31
ENDBRANCH  27  28
ENDBRANCH  26  27
ENDBRANCH  23  26
ENDBRANCH   1  22
TORSDOF 7
