REMARK  6 active torsions:
REMARK  status: ('A' for Active; 'I' for Inactive)
REMARK    1  A    between atoms: N_2  and  O_1 
REMARK    2  A    between atoms: C_4  and  N_2 
REMARK    3  A    between atoms: C_8  and  N_7 
REMARK    4  A    between atoms: C_8  and  C_9 
REMARK    5  A    between atoms: C_24  and  C_25 
REMARK    6  A    between atoms: C_26  and  C_27 
ROOT
HETATM    1  C   UNK N   1       0.416   1.360  -0.082  0.00  0.00     0.135 A 
HETATM    2  C   UNK N   1      -0.536   0.276  -0.188  0.00  0.00     0.278 A 
HETATM    3  O   UNK N   1      -1.737   0.430  -0.182  0.00  0.00    -0.265 OA
HETATM    4  N   UNK N   1       0.124  -0.899  -0.378  0.00  0.00    -0.307 N 
HETATM    5  C   UNK N   1       1.518  -0.617  -0.335  0.00  0.00     0.051 A 
HETATM    6  C   UNK N   1       2.576  -1.512  -0.502  0.00  0.00     0.031 A 
HETATM    7  C   UNK N   1       3.890  -1.003  -0.479  0.00  0.00     0.003 A 
HETATM    8  C   UNK N   1       4.129   0.380  -0.304  0.00  0.00     0.012 A 
HETATM    9  C   UNK N   1       3.056   1.269  -0.119  0.00  0.00    -0.021 A 
HETATM   10  C   UNK N   1       1.747   0.737  -0.146  0.00  0.00     0.035 A 
ENDROOT
BRANCH   4  11
HETATM   11  C   UNK N   1      -0.419  -2.190  -0.806  0.00  0.00     0.174 C 
BRANCH  11  12
HETATM   12  C   UNK N   1      -1.870  -2.527  -0.532  0.00  0.00    -0.003 A 
HETATM   13  C   UNK N   1      -2.924  -1.678  -0.901  0.00  0.00     0.054 A 
HETATM   14  C   UNK N   1      -4.255  -2.022  -0.656  0.00  0.00     0.117 A 
HETATM   15  F   UNK N   1      -5.246  -1.151  -0.964  0.00  0.00    -0.206 F 
HETATM   16  C   UNK N   1      -4.558  -3.260  -0.090  0.00  0.00     0.054 A 
HETATM   17  C   UNK N   1      -3.522  -4.139   0.228  0.00  0.00     0.003 A 
HETATM   18  C   UNK N   1      -3.792  -5.506   0.785  0.00  0.00     0.212 C 
HETATM   19  C   UNK N   1      -2.185  -3.781   0.007  0.00  0.00     0.088 A 
HETATM   20  O   UNK N   1      -2.663  -5.993   1.487  0.00  0.00    -0.362 OA
HETATM   21  C   UNK N   1      -1.563  -5.986   0.602  0.00  0.00     0.345 C 
HETATM   22  O   UNK N   1      -1.216  -4.681   0.295  0.00  0.00    -0.325 OA
ENDBRANCH  11  12
ENDBRANCH   4  11
BRANCH   1  23
HETATM   23  N   UNK N   1       0.127   2.614  -0.100  0.00  0.00    -0.263 N 
ATOM     24  HN  UNK N   1       0.884   3.298  -0.076  1.00  0.00     0.194 HD
BRANCH  23  25
HETATM   25  O   UNK N   1      -1.117   3.037  -0.150  0.00  0.00    -0.289 OA
HETATM   26  H   UNK N   1      -1.299   3.955  -0.185  0.00  0.00     0.244 HD
ENDBRANCH  23  25
ENDBRANCH   1  23
BRANCH   9  27
HETATM   27  C   UNK N   1       3.284   2.725   0.016  0.00  0.00     0.013 C 
HETATM   28  C   UNK N   1       2.481   3.401   0.838  0.00  0.00     0.012 C 
BRANCH  28  29
HETATM   29  C   UNK N   1       2.032   4.780   0.633  0.00  0.00    -0.036 A 
HETATM   30  C   UNK N   1       0.956   5.220   1.414  0.00  0.00     0.011 A 
HETATM   31  C   UNK N   1       0.312   6.422   1.118  0.00  0.00     0.001 A 
HETATM   32  C   UNK N   1       0.735   7.187   0.030  0.00  0.00     0.000 A 
HETATM   33  C   UNK N   1       1.809   6.753  -0.756  0.00  0.00     0.001 A 
HETATM   34  C   UNK N   1       2.445   5.541  -0.469  0.00  0.00     0.011 A 
ENDBRANCH  28  29
ENDBRANCH   9  27
TORSDOF 6
