MODEL 1
REMARK VINA RESULT:      -8.6      0.000      0.000
REMARK  6 active torsions:
REMARK  status: ('A' for Active; 'I' for Inactive)
REMARK    1  A    between atoms: N_2  and  O_1 
REMARK    2  A    between atoms: C_4  and  N_2 
REMARK    3  A    between atoms: C_8  and  N_7 
REMARK    4  A    between atoms: C_8  and  C_9 
REMARK    5  A    between atoms: C_24  and  C_25 
REMARK    6  A    between atoms: C_26  and  C_27 
ROOT
HETATM    1  C   UNK N   1      33.570  13.307   9.144  0.00  0.00     0.135 A 
HETATM    2  C   UNK N   1      32.944  13.987   8.031  0.00  0.00     0.278 A 
HETATM    3  O   UNK N   1      32.197  13.449   7.245  0.00  0.00    -0.265 OA
HETATM    4  N   UNK N   1      33.256  15.312   8.068  0.00  0.00    -0.307 N 
HETATM    5  C   UNK N   1      34.142  15.511   9.163  0.00  0.00     0.051 A 
HETATM    6  C   UNK N   1      34.706  16.712   9.598  0.00  0.00     0.031 A 
HETATM    7  C   UNK N   1      35.516  16.689  10.750  0.00  0.00     0.003 A 
HETATM    8  C   UNK N   1      35.741  15.484  11.455  0.00  0.00     0.012 A 
HETATM    9  C   UNK N   1      35.182  14.278  10.998  0.00  0.00    -0.021 A 
HETATM   10  C   UNK N   1      34.373  14.324   9.840  0.00  0.00     0.035 A 
ENDROOT
BRANCH   4  11
HETATM   11  C   UNK N   1      32.640  16.413   7.325  0.00  0.00     0.174 C 
BRANCH  11  12
HETATM   12  C   UNK N   1      31.305  16.972   7.772  0.00  0.00    -0.003 A 
HETATM   13  C   UNK N   1      31.187  17.892   8.824  0.00  0.00     0.054 A 
HETATM   14  C   UNK N   1      29.946  18.409   9.203  0.00  0.00     0.117 A 
HETATM   15  F   UNK N   1      29.858  19.244  10.266  0.00  0.00    -0.206 F 
HETATM   16  C   UNK N   1      28.802  18.058   8.487  0.00  0.00     0.054 A 
HETATM   17  C   UNK N   1      28.913  17.190   7.401  0.00  0.00     0.003 A 
HETATM   18  C   UNK N   1      27.726  16.824   6.559  0.00  0.00     0.212 C 
HETATM   19  C   UNK N   1      30.156  16.650   7.039  0.00  0.00     0.088 A 
HETATM   20  O   UNK N   1      27.947  15.598   5.886  0.00  0.00    -0.362 OA
HETATM   21  C   UNK N   1      29.124  15.730   5.117  0.00  0.00     0.345 C 
HETATM   22  O   UNK N   1      30.221  15.843   5.955  0.00  0.00    -0.325 OA
ENDBRANCH  11  12
ENDBRANCH   4  11
BRANCH   1  23
HETATM   23  N   UNK N   1      33.322  12.101   9.519  0.00  0.00    -0.263 N 
ATOM     24  HN  UNK N   1      34.099  11.494   9.784  1.00  0.00     0.194 HD
BRANCH  23  25
HETATM   25  O   UNK N   1      32.096  11.630   9.570  0.00  0.00    -0.289 OA
HETATM   26  H   UNK N   1      31.711  11.414  10.396  0.00  0.00     0.244 HD
ENDBRANCH  23  25
ENDBRANCH   1  23
BRANCH   9  27
HETATM   27  C   UNK N   1      35.366  13.017  11.750  0.00  0.00     0.013 C 
HETATM   28  C   UNK N   1      34.570  12.802  12.797  0.00  0.00     0.012 C 
BRANCH  28  29
HETATM   29  C   UNK N   1      34.959  12.100  14.023  0.00  0.00    -0.036 A 
HETATM   30  C   UNK N   1      34.285  10.908  14.313  0.00  0.00     0.011 A 
HETATM   31  C   UNK N   1      34.417  10.308  15.566  0.00  0.00     0.001 A 
HETATM   32  C   UNK N   1      35.217  10.904  16.541  0.00  0.00     0.000 A 
HETATM   33  C   UNK N   1      35.893  12.097  16.259  0.00  0.00     0.001 A 
HETATM   34  C   UNK N   1      35.750  12.707  15.008  0.00  0.00     0.011 A 
ENDBRANCH  28  29
ENDBRANCH   9  27
TORSDOF 6
ENDMDL
MODEL 2
REMARK VINA RESULT:      -8.5      2.626      4.022
REMARK  6 active torsions:
REMARK  status: ('A' for Active; 'I' for Inactive)
REMARK    1  A    between atoms: N_2  and  O_1 
REMARK    2  A    between atoms: C_4  and  N_2 
REMARK    3  A    between atoms: C_8  and  N_7 
REMARK    4  A    between atoms: C_8  and  C_9 
REMARK    5  A    between atoms: C_24  and  C_25 
REMARK    6  A    between atoms: C_26  and  C_27 
ROOT
HETATM    1  C   UNK N   1      36.101  13.693  12.173  0.00  0.00     0.135 A 
HETATM    2  C   UNK N   1      36.098  14.573  11.025  0.00  0.00     0.278 A 
HETATM    3  O   UNK N   1      36.688  15.629  10.983  0.00  0.00    -0.265 OA
HETATM    4  N   UNK N   1      35.415  13.991  10.001  0.00  0.00    -0.307 N 
HETATM    5  C   UNK N   1      34.904  12.752  10.479  0.00  0.00     0.051 A 
HETATM    6  C   UNK N   1      34.158  11.807   9.773  0.00  0.00     0.031 A 
HETATM    7  C   UNK N   1      33.802  10.612  10.431  0.00  0.00     0.003 A 
HETATM    8  C   UNK N   1      34.201  10.373  11.766  0.00  0.00     0.012 A 
HETATM    9  C   UNK N   1      34.936  11.340  12.473  0.00  0.00    -0.021 A 
HETATM   10  C   UNK N   1      35.283  12.531  11.794  0.00  0.00     0.035 A 
ENDROOT
BRANCH   4  11
HETATM   11  C   UNK N   1      35.386  14.378   8.589  0.00  0.00     0.174 C 
BRANCH  11  12
HETATM   12  C   UNK N   1      34.391  15.414   8.110  0.00  0.00    -0.003 A 
HETATM   13  C   UNK N   1      34.537  16.783   8.382  0.00  0.00     0.054 A 
HETATM   14  C   UNK N   1      33.616  17.721   7.911  0.00  0.00     0.117 A 
HETATM   15  F   UNK N   1      33.748  19.026   8.247  0.00  0.00    -0.206 F 
HETATM   16  C   UNK N   1      32.560  17.307   7.099  0.00  0.00     0.054 A 
HETATM   17  C   UNK N   1      32.436  15.957   6.772  0.00  0.00     0.003 A 
HETATM   18  C   UNK N   1      31.354  15.464   5.856  0.00  0.00     0.212 C 
HETATM   19  C   UNK N   1      33.346  15.013   7.269  0.00  0.00     0.088 A 
HETATM   20  O   UNK N   1      31.105  14.087   6.070  0.00  0.00    -0.362 OA
HETATM   21  C   UNK N   1      32.319  13.390   5.884  0.00  0.00     0.345 C 
HETATM   22  O   UNK N   1      33.209  13.719   6.893  0.00  0.00    -0.325 OA
ENDBRANCH  11  12
ENDBRANCH   4  11
BRANCH   1  23
HETATM   23  N   UNK N   1      36.820  13.844  13.230  0.00  0.00    -0.263 N 
ATOM     24  HN  UNK N   1      37.419  13.077  13.537  1.00  0.00     0.194 HD
BRANCH  23  25
HETATM   25  O   UNK N   1      36.804  14.961  13.924  0.00  0.00    -0.289 OA
HETATM   26  H   UNK N   1      36.469  15.747  13.539  0.00  0.00     0.244 HD
ENDBRANCH  23  25
ENDBRANCH   1  23
BRANCH   9  27
HETATM   27  C   UNK N   1      35.405  11.087  13.854  0.00  0.00     0.013 C 
HETATM   28  C   UNK N   1      34.581  11.406  14.852  0.00  0.00     0.012 C 
BRANCH  28  29
HETATM   29  C   UNK N   1      34.999  11.910  16.162  0.00  0.00    -0.036 A 
HETATM   30  C   UNK N   1      35.195  10.961  17.174  0.00  0.00     0.011 A 
HETATM   31  C   UNK N   1      35.354  11.364  18.500  0.00  0.00     0.001 A 
HETATM   32  C   UNK N   1      35.307  12.720  18.825  0.00  0.00     0.000 A 
HETATM   33  C   UNK N   1      35.111  13.674  17.819  0.00  0.00     0.001 A 
HETATM   34  C   UNK N   1      34.936  13.270  16.492  0.00  0.00     0.011 A 
ENDBRANCH  28  29
ENDBRANCH   9  27
TORSDOF 6
ENDMDL
MODEL 3
REMARK VINA RESULT:      -8.4      3.090      5.265
REMARK  6 active torsions:
REMARK  status: ('A' for Active; 'I' for Inactive)
REMARK    1  A    between atoms: N_2  and  O_1 
REMARK    2  A    between atoms: C_4  and  N_2 
REMARK    3  A    between atoms: C_8  and  N_7 
REMARK    4  A    between atoms: C_8  and  C_9 
REMARK    5  A    between atoms: C_24  and  C_25 
REMARK    6  A    between atoms: C_26  and  C_27 
ROOT
HETATM    1  C   UNK N   1      30.502  17.090   8.090  0.00  0.00     0.135 A 
HETATM    2  C   UNK N   1      29.323  17.120   7.252  0.00  0.00     0.278 A 
HETATM    3  O   UNK N   1      28.190  17.097   7.680  0.00  0.00    -0.265 OA
HETATM    4  N   UNK N   1      29.688  17.262   5.949  0.00  0.00    -0.307 N 
HETATM    5  C   UNK N   1      31.110  17.262   5.902  0.00  0.00     0.051 A 
HETATM    6  C   UNK N   1      31.928  17.404   4.780  0.00  0.00     0.031 A 
HETATM    7  C   UNK N   1      33.324  17.435   4.972  0.00  0.00     0.003 A 
HETATM    8  C   UNK N   1      33.880  17.337   6.268  0.00  0.00     0.012 A 
HETATM    9  C   UNK N   1      33.047  17.177   7.389  0.00  0.00    -0.021 A 
HETATM   10  C   UNK N   1      31.651  17.149   7.174  0.00  0.00     0.035 A 
ENDROOT
BRANCH   4  11
HETATM   11  C   UNK N   1      28.849  17.610   4.800  0.00  0.00     0.174 C 
BRANCH  11  12
HETATM   12  C   UNK N   1      27.741  18.630   4.957  0.00  0.00    -0.003 A 
HETATM   13  C   UNK N   1      27.987  19.961   5.326  0.00  0.00     0.054 A 
HETATM   14  C   UNK N   1      26.949  20.888   5.443  0.00  0.00     0.117 A 
HETATM   15  F   UNK N   1      27.212  22.148   5.866  0.00  0.00    -0.206 F 
HETATM   16  C   UNK N   1      25.644  20.510   5.129  0.00  0.00     0.054 A 
HETATM   17  C   UNK N   1      25.393  19.205   4.703  0.00  0.00     0.003 A 
HETATM   18  C   UNK N   1      24.019  18.760   4.297  0.00  0.00     0.212 C 
HETATM   19  C   UNK N   1      26.432  18.268   4.613  0.00  0.00     0.088 A 
HETATM   20  O   UNK N   1      23.896  17.353   4.404  0.00  0.00    -0.362 OA
HETATM   21  C   UNK N   1      24.904  16.766   3.608  0.00  0.00     0.345 C 
HETATM   22  O   UNK N   1      26.147  17.025   4.159  0.00  0.00    -0.325 OA
ENDBRANCH  11  12
ENDBRANCH   4  11
BRANCH   1  23
HETATM   23  N   UNK N   1      30.508  17.168   9.375  0.00  0.00    -0.263 N 
ATOM     24  HN  UNK N   1      31.073  16.506   9.909  1.00  0.00     0.194 HD
BRANCH  23  25
HETATM   25  O   UNK N   1      29.810  18.077  10.017  0.00  0.00    -0.289 OA
HETATM   26  H   UNK N   1      30.241  18.813  10.404  0.00  0.00     0.244 HD
ENDBRANCH  23  25
ENDBRANCH   1  23
BRANCH   9  27
HETATM   27  C   UNK N   1      33.608  17.123   8.757  0.00  0.00     0.013 C 
HETATM   28  C   UNK N   1      34.572  16.232   8.994  0.00  0.00     0.012 C 
BRANCH  28  29
HETATM   29  C   UNK N   1      34.768  15.518  10.257  0.00  0.00    -0.036 A 
HETATM   30  C   UNK N   1      35.586  16.133  11.214  0.00  0.00     0.011 A 
HETATM   31  C   UNK N   1      36.021  15.423  12.334  0.00  0.00     0.001 A 
HETATM   32  C   UNK N   1      35.649  14.088  12.498  0.00  0.00     0.000 A 
HETATM   33  C   UNK N   1      34.833  13.466  11.545  0.00  0.00     0.001 A 
HETATM   34  C   UNK N   1      34.409  14.172  10.415  0.00  0.00     0.011 A 
ENDBRANCH  28  29
ENDBRANCH   9  27
TORSDOF 6
ENDMDL
MODEL 4
REMARK VINA RESULT:      -8.3      3.477      5.199
REMARK  6 active torsions:
REMARK  status: ('A' for Active; 'I' for Inactive)
REMARK    1  A    between atoms: N_2  and  O_1 
REMARK    2  A    between atoms: C_4  and  N_2 
REMARK    3  A    between atoms: C_8  and  N_7 
REMARK    4  A    between atoms: C_8  and  C_9 
REMARK    5  A    between atoms: C_24  and  C_25 
REMARK    6  A    between atoms: C_26  and  C_27 
ROOT
HETATM    1  C   UNK N   1      36.294  14.256  12.992  0.00  0.00     0.135 A 
HETATM    2  C   UNK N   1      35.999  14.954  11.760  0.00  0.00     0.278 A 
HETATM    3  O   UNK N   1      35.602  16.098  11.711  0.00  0.00    -0.265 OA
HETATM    4  N   UNK N   1      36.314  14.166  10.697  0.00  0.00    -0.307 N 
HETATM    5  C   UNK N   1      36.760  12.916  11.211  0.00  0.00     0.051 A 
HETATM    6  C   UNK N   1      37.207  11.807  10.490  0.00  0.00     0.031 A 
HETATM    7  C   UNK N   1      37.661  10.683  11.210  0.00  0.00     0.003 A 
HETATM    8  C   UNK N   1      37.675  10.685  12.624  0.00  0.00     0.012 A 
HETATM    9  C   UNK N   1      37.205  11.801  13.338  0.00  0.00    -0.021 A 
HETATM   10  C   UNK N   1      36.755  12.916  12.597  0.00  0.00     0.035 A 
ENDROOT
BRANCH   4  11
HETATM   11  C   UNK N   1      36.443  14.544   9.288  0.00  0.00     0.174 C 
BRANCH  11  12
HETATM   12  C   UNK N   1      35.218  14.568   8.398  0.00  0.00    -0.003 A 
HETATM   13  C   UNK N   1      34.546  13.400   8.009  0.00  0.00     0.054 A 
HETATM   14  C   UNK N   1      33.405  13.451   7.204  0.00  0.00     0.117 A 
HETATM   15  F   UNK N   1      32.818  12.303   6.791  0.00  0.00    -0.206 F 
HETATM   16  C   UNK N   1      32.879  14.686   6.825  0.00  0.00     0.054 A 
HETATM   17  C   UNK N   1      33.504  15.857   7.254  0.00  0.00     0.003 A 
HETATM   18  C   UNK N   1      32.950  17.212   6.925  0.00  0.00     0.212 C 
HETATM   19  C   UNK N   1      34.665  15.804   8.039  0.00  0.00     0.088 A 
HETATM   20  O   UNK N   1      33.962  18.199   6.999  0.00  0.00    -0.362 OA
HETATM   21  C   UNK N   1      34.523  18.153   8.294  0.00  0.00     0.345 C 
HETATM   22  O   UNK N   1      35.215  16.966   8.463  0.00  0.00    -0.325 OA
ENDBRANCH  11  12
ENDBRANCH   4  11
BRANCH   1  23
HETATM   23  N   UNK N   1      36.304  14.782  14.167  0.00  0.00    -0.263 N 
ATOM     24  HN  UNK N   1      35.436  14.816  14.702  1.00  0.00     0.194 HD
BRANCH  23  25
HETATM   25  O   UNK N   1      37.402  15.275  14.695  0.00  0.00    -0.289 OA
HETATM   26  H   UNK N   1      37.501  15.307  15.626  0.00  0.00     0.244 HD
ENDBRANCH  23  25
ENDBRANCH   1  23
BRANCH   9  27
HETATM   27  C   UNK N   1      37.258  11.840  14.817  0.00  0.00     0.013 C 
HETATM   28  C   UNK N   1      36.286  11.219  15.485  0.00  0.00     0.012 C 
BRANCH  28  29
HETATM   29  C   UNK N   1      35.725  11.663  16.763  0.00  0.00    -0.036 A 
HETATM   30  C   UNK N   1      35.429  13.026  16.888  0.00  0.00     0.011 A 
HETATM   31  C   UNK N   1      35.126  13.573  18.136  0.00  0.00     0.001 A 
HETATM   32  C   UNK N   1      35.127  12.759  19.269  0.00  0.00     0.000 A 
HETATM   33  C   UNK N   1      35.423  11.395  19.153  0.00  0.00     0.001 A 
HETATM   34  C   UNK N   1      35.742  10.850  17.905  0.00  0.00     0.011 A 
ENDBRANCH  28  29
ENDBRANCH   9  27
TORSDOF 6
ENDMDL
MODEL 5
REMARK VINA RESULT:      -8.3      2.654      3.934
REMARK  6 active torsions:
REMARK  status: ('A' for Active; 'I' for Inactive)
REMARK    1  A    between atoms: N_2  and  O_1 
REMARK    2  A    between atoms: C_4  and  N_2 
REMARK    3  A    between atoms: C_8  and  N_7 
REMARK    4  A    between atoms: C_8  and  C_9 
REMARK    5  A    between atoms: C_24  and  C_25 
REMARK    6  A    between atoms: C_26  and  C_27 
ROOT
HETATM    1  C   UNK N   1      36.091  14.028  11.740  0.00  0.00     0.135 A 
HETATM    2  C   UNK N   1      36.133  15.026  10.694  0.00  0.00     0.278 A 
HETATM    3  O   UNK N   1      36.732  16.073  10.784  0.00  0.00    -0.265 OA
HETATM    4  N   UNK N   1      35.478  14.565   9.593  0.00  0.00    -0.307 N 
HETATM    5  C   UNK N   1      34.942  13.288   9.919  0.00  0.00     0.051 A 
HETATM    6  C   UNK N   1      34.212  12.432   9.092  0.00  0.00     0.031 A 
HETATM    7  C   UNK N   1      33.826  11.178   9.607  0.00  0.00     0.003 A 
HETATM    8  C   UNK N   1      34.179  10.793  10.921  0.00  0.00     0.012 A 
HETATM    9  C   UNK N   1      34.898  11.671  11.750  0.00  0.00    -0.021 A 
HETATM   10  C   UNK N   1      35.276  12.923  11.213  0.00  0.00     0.035 A 
ENDROOT
BRANCH   4  11
HETATM   11  C   UNK N   1      35.499  15.100   8.230  0.00  0.00     0.174 C 
BRANCH  11  12
HETATM   12  C   UNK N   1      34.296  15.848   7.694  0.00  0.00    -0.003 A 
HETATM   13  C   UNK N   1      33.640  16.847   8.429  0.00  0.00     0.054 A 
HETATM   14  C   UNK N   1      32.545  17.536   7.904  0.00  0.00     0.117 A 
HETATM   15  F   UNK N   1      31.892  18.448   8.664  0.00  0.00    -0.206 F 
HETATM   16  C   UNK N   1      32.126  17.279   6.599  0.00  0.00     0.054 A 
HETATM   17  C   UNK N   1      32.807  16.330   5.835  0.00  0.00     0.003 A 
HETATM   18  C   UNK N   1      32.436  16.055   4.408  0.00  0.00     0.212 C 
HETATM   19  C   UNK N   1      33.888  15.619   6.374  0.00  0.00     0.088 A 
HETATM   20  O   UNK N   1      32.876  14.768   4.015  0.00  0.00    -0.362 OA
HETATM   21  C   UNK N   1      34.270  14.700   4.226  0.00  0.00     0.345 C 
HETATM   22  O   UNK N   1      34.542  14.736   5.583  0.00  0.00    -0.325 OA
ENDBRANCH  11  12
ENDBRANCH   4  11
BRANCH   1  23
HETATM   23  N   UNK N   1      36.776  14.057  12.829  0.00  0.00    -0.263 N 
ATOM     24  HN  UNK N   1      37.404  13.281  13.042  1.00  0.00     0.194 HD
BRANCH  23  25
HETATM   25  O   UNK N   1      36.690  15.061  13.675  0.00  0.00    -0.289 OA
HETATM   26  H   UNK N   1      37.386  15.684  13.735  0.00  0.00     0.244 HD
ENDBRANCH  23  25
ENDBRANCH   1  23
BRANCH   9  27
HETATM   27  C   UNK N   1      35.319  11.266  13.110  0.00  0.00     0.013 C 
HETATM   28  C   UNK N   1      34.366  11.111  14.029  0.00  0.00     0.012 C 
BRANCH  28  29
HETATM   29  C   UNK N   1      34.513  11.413  15.455  0.00  0.00    -0.036 A 
HETATM   30  C   UNK N   1      34.618  12.764  15.809  0.00  0.00     0.011 A 
HETATM   31  C   UNK N   1      35.000  13.129  17.101  0.00  0.00     0.001 A 
HETATM   32  C   UNK N   1      35.291  12.142  18.044  0.00  0.00     0.000 A 
HETATM   33  C   UNK N   1      35.189  10.789  17.696  0.00  0.00     0.001 A 
HETATM   34  C   UNK N   1      34.821  10.423  16.398  0.00  0.00     0.011 A 
ENDBRANCH  28  29
ENDBRANCH   9  27
TORSDOF 6
ENDMDL
MODEL 6
REMARK VINA RESULT:      -8.1      5.028     11.605
REMARK  6 active torsions:
REMARK  status: ('A' for Active; 'I' for Inactive)
REMARK    1  A    between atoms: N_2  and  O_1 
REMARK    2  A    between atoms: C_4  and  N_2 
REMARK    3  A    between atoms: C_8  and  N_7 
REMARK    4  A    between atoms: C_8  and  C_9 
REMARK    5  A    between atoms: C_24  and  C_25 
REMARK    6  A    between atoms: C_26  and  C_27 
ROOT
HETATM    1  C   UNK N   1      26.657  16.930   4.564  0.00  0.00     0.135 A 
HETATM    2  C   UNK N   1      27.664  16.283   5.376  0.00  0.00     0.278 A 
HETATM    3  O   UNK N   1      27.946  15.109   5.292  0.00  0.00    -0.265 OA
HETATM    4  N   UNK N   1      28.283  17.205   6.163  0.00  0.00    -0.307 N 
HETATM    5  C   UNK N   1      27.650  18.458   5.930  0.00  0.00     0.051 A 
HETATM    6  C   UNK N   1      27.964  19.693   6.501  0.00  0.00     0.031 A 
HETATM    7  C   UNK N   1      27.239  20.826   6.079  0.00  0.00     0.003 A 
HETATM    8  C   UNK N   1      26.230  20.716   5.095  0.00  0.00     0.012 A 
HETATM    9  C   UNK N   1      25.910  19.464   4.541  0.00  0.00    -0.021 A 
HETATM   10  C   UNK N   1      26.650  18.342   4.978  0.00  0.00     0.035 A 
ENDROOT
BRANCH   4  11
HETATM   11  C   UNK N   1      29.524  17.065   6.927  0.00  0.00     0.174 C 
BRANCH  11  12
HETATM   12  C   UNK N   1      30.859  17.112   6.213  0.00  0.00    -0.003 A 
HETATM   13  C   UNK N   1      30.972  17.386   4.842  0.00  0.00     0.054 A 
HETATM   14  C   UNK N   1      32.217  17.445   4.212  0.00  0.00     0.117 A 
HETATM   15  F   UNK N   1      32.288  17.645   2.874  0.00  0.00    -0.206 F 
HETATM   16  C   UNK N   1      33.382  17.292   4.963  0.00  0.00     0.054 A 
HETATM   17  C   UNK N   1      33.286  17.078   6.339  0.00  0.00     0.003 A 
HETATM   18  C   UNK N   1      34.506  16.965   7.205  0.00  0.00     0.212 C 
HETATM   19  C   UNK N   1      32.035  16.991   6.965  0.00  0.00     0.088 A 
HETATM   20  O   UNK N   1      34.209  16.264   8.399  0.00  0.00    -0.362 OA
HETATM   21  C   UNK N   1      33.154  16.940   9.050  0.00  0.00     0.345 C 
HETATM   22  O   UNK N   1      31.992  16.822   8.307  0.00  0.00    -0.325 OA
ENDBRANCH  11  12
ENDBRANCH   4  11
BRANCH   1  23
HETATM   23  N   UNK N   1      26.032  16.391   3.576  0.00  0.00    -0.263 N 
ATOM     24  HN  UNK N   1      25.017  16.483   3.521  1.00  0.00     0.194 HD
BRANCH  23  25
HETATM   25  O   UNK N   1      26.667  15.727   2.636  0.00  0.00    -0.289 OA
HETATM   26  H   UNK N   1      26.195  15.149   2.070  0.00  0.00     0.244 HD
ENDBRANCH  23  25
ENDBRANCH   1  23
BRANCH   9  27
HETATM   27  C   UNK N   1      24.892  19.338   3.475  0.00  0.00     0.013 C 
HETATM   28  C   UNK N   1      23.767  20.040   3.610  0.00  0.00     0.012 C 
BRANCH  28  29
HETATM   29  C   UNK N   1      22.441  19.603   3.168  0.00  0.00    -0.036 A 
HETATM   30  C   UNK N   1      21.697  20.508   2.400  0.00  0.00     0.011 A 
HETATM   31  C   UNK N   1      20.345  20.276   2.145  0.00  0.00     0.001 A 
HETATM   32  C   UNK N   1      19.726  19.139   2.666  0.00  0.00     0.000 A 
HETATM   33  C   UNK N   1      20.462  18.230   3.436  0.00  0.00     0.001 A 
HETATM   34  C   UNK N   1      21.813  18.471   3.705  0.00  0.00     0.011 A 
ENDBRANCH  28  29
ENDBRANCH   9  27
TORSDOF 6
ENDMDL
MODEL 7
REMARK VINA RESULT:      -8.1      3.786      9.800
REMARK  6 active torsions:
REMARK  status: ('A' for Active; 'I' for Inactive)
REMARK    1  A    between atoms: N_2  and  O_1 
REMARK    2  A    between atoms: C_4  and  N_2 
REMARK    3  A    between atoms: C_8  and  N_7 
REMARK    4  A    between atoms: C_8  and  C_9 
REMARK    5  A    between atoms: C_24  and  C_25 
REMARK    6  A    between atoms: C_26  and  C_27 
ROOT
HETATM    1  C   UNK N   1      31.080  17.361   4.947  0.00  0.00     0.135 A 
HETATM    2  C   UNK N   1      32.460  17.178   5.339  0.00  0.00     0.278 A 
HETATM    3  O   UNK N   1      33.372  17.046   4.553  0.00  0.00    -0.265 OA
HETATM    4  N   UNK N   1      32.570  17.264   6.693  0.00  0.00    -0.307 N 
HETATM    5  C   UNK N   1      31.259  17.440   7.217  0.00  0.00     0.051 A 
HETATM    6  C   UNK N   1      30.887  17.597   8.553  0.00  0.00     0.031 A 
HETATM    7  C   UNK N   1      29.526  17.817   8.844  0.00  0.00     0.003 A 
HETATM    8  C   UNK N   1      28.565  17.890   7.809  0.00  0.00     0.012 A 
HETATM    9  C   UNK N   1      28.949  17.713   6.469  0.00  0.00    -0.021 A 
HETATM   10  C   UNK N   1      30.319  17.493   6.199  0.00  0.00     0.035 A 
ENDROOT
BRANCH   4  11
HETATM   11  C   UNK N   1      33.782  17.415   7.501  0.00  0.00     0.174 C 
BRANCH  11  12
HETATM   12  C   UNK N   1      34.348  16.223   8.244  0.00  0.00    -0.003 A 
HETATM   13  C   UNK N   1      33.962  15.897   9.552  0.00  0.00     0.054 A 
HETATM   14  C   UNK N   1      34.483  14.780  10.208  0.00  0.00     0.117 A 
HETATM   15  F   UNK N   1      34.141  14.530  11.495  0.00  0.00    -0.206 F 
HETATM   16  C   UNK N   1      35.358  13.927   9.535  0.00  0.00     0.054 A 
HETATM   17  C   UNK N   1      35.704  14.207   8.213  0.00  0.00     0.003 A 
HETATM   18  C   UNK N   1      36.595  13.294   7.422  0.00  0.00     0.212 C 
HETATM   19  C   UNK N   1      35.202  15.344   7.566  0.00  0.00     0.088 A 
HETATM   20  O   UNK N   1      37.207  13.993   6.353  0.00  0.00    -0.362 OA
HETATM   21  C   UNK N   1      36.184  14.557   5.560  0.00  0.00     0.345 C 
HETATM   22  O   UNK N   1      35.535  15.554   6.271  0.00  0.00    -0.325 OA
ENDBRANCH  11  12
ENDBRANCH   4  11
BRANCH   1  23
HETATM   23  N   UNK N   1      30.660  17.537   3.743  0.00  0.00    -0.263 N 
ATOM     24  HN  UNK N   1      29.898  18.194   3.575  1.00  0.00     0.194 HD
BRANCH  23  25
HETATM   25  O   UNK N   1      31.189  16.895   2.725  0.00  0.00    -0.289 OA
HETATM   26  H   UNK N   1      30.835  16.071   2.455  0.00  0.00     0.244 HD
ENDBRANCH  23  25
ENDBRANCH   1  23
BRANCH   9  27
HETATM   27  C   UNK N   1      27.966  17.835   5.369  0.00  0.00     0.013 C 
HETATM   28  C   UNK N   1      27.741  19.053   4.876  0.00  0.00     0.012 C 
BRANCH  28  29
HETATM   29  C   UNK N   1      26.452  19.534   4.374  0.00  0.00    -0.036 A 
HETATM   30  C   UNK N   1      25.306  18.862   4.819  0.00  0.00     0.011 A 
HETATM   31  C   UNK N   1      24.071  19.092   4.211  0.00  0.00     0.001 A 
HETATM   32  C   UNK N   1      23.977  19.989   3.146  0.00  0.00     0.000 A 
HETATM   33  C   UNK N   1      25.118  20.663   2.695  0.00  0.00     0.001 A 
HETATM   34  C   UNK N   1      26.359  20.422   3.294  0.00  0.00     0.011 A 
ENDBRANCH  28  29
ENDBRANCH   9  27
TORSDOF 6
ENDMDL
MODEL 8
REMARK VINA RESULT:      -8.0      3.031      8.522
REMARK  6 active torsions:
REMARK  status: ('A' for Active; 'I' for Inactive)
REMARK    1  A    between atoms: N_2  and  O_1 
REMARK    2  A    between atoms: C_4  and  N_2 
REMARK    3  A    between atoms: C_8  and  N_7 
REMARK    4  A    between atoms: C_8  and  C_9 
REMARK    5  A    between atoms: C_24  and  C_25 
REMARK    6  A    between atoms: C_26  and  C_27 
ROOT
HETATM    1  C   UNK N   1      34.780  16.349   9.386  0.00  0.00     0.135 A 
HETATM    2  C   UNK N   1      35.855  15.762  10.155  0.00  0.00     0.278 A 
HETATM    3  O   UNK N   1      36.578  16.392  10.894  0.00  0.00    -0.265 OA
HETATM    4  N   UNK N   1      35.861  14.412   9.981  0.00  0.00    -0.307 N 
HETATM    5  C   UNK N   1      34.834  14.098   9.047  0.00  0.00     0.051 A 
HETATM    6  C   UNK N   1      34.460  12.836   8.582  0.00  0.00     0.031 A 
HETATM    7  C   UNK N   1      33.368  12.749   7.696  0.00  0.00     0.003 A 
HETATM    8  C   UNK N   1      32.662  13.909   7.298  0.00  0.00     0.012 A 
HETATM    9  C   UNK N   1      33.060  15.176   7.759  0.00  0.00    -0.021 A 
HETATM   10  C   UNK N   1      34.158  15.239   8.647  0.00  0.00     0.035 A 
ENDROOT
BRANCH   4  11
HETATM   11  C   UNK N   1      36.575  13.397  10.758  0.00  0.00     0.174 C 
BRANCH  11  12
HETATM   12  C   UNK N   1      36.145  13.093  12.179  0.00  0.00    -0.003 A 
HETATM   13  C   UNK N   1      36.476  13.924  13.260  0.00  0.00     0.054 A 
HETATM   14  C   UNK N   1      36.050  13.633  14.557  0.00  0.00     0.117 A 
HETATM   15  F   UNK N   1      36.441  14.418  15.590  0.00  0.00    -0.206 F 
HETATM   16  C   UNK N   1      35.226  12.531  14.786  0.00  0.00     0.054 A 
HETATM   17  C   UNK N   1      34.841  11.730  13.710  0.00  0.00     0.003 A 
HETATM   18  C   UNK N   1      33.911  10.566  13.888  0.00  0.00     0.212 C 
HETATM   19  C   UNK N   1      35.293  12.007  12.412  0.00  0.00     0.088 A 
HETATM   20  O   UNK N   1      34.066   9.634  12.834  0.00  0.00    -0.362 OA
HETATM   21  C   UNK N   1      33.845  10.312  11.616  0.00  0.00     0.345 C 
HETATM   22  O   UNK N   1      34.862  11.225  11.395  0.00  0.00    -0.325 OA
ENDBRANCH  11  12
ENDBRANCH   4  11
BRANCH   1  23
HETATM   23  N   UNK N   1      34.370  17.566   9.480  0.00  0.00    -0.263 N 
ATOM     24  HN  UNK N   1      33.642  17.793  10.158  1.00  0.00     0.194 HD
BRANCH  23  25
HETATM   25  O   UNK N   1      34.865  18.523   8.727  0.00  0.00    -0.289 OA
HETATM   26  H   UNK N   1      35.495  19.119   9.080  0.00  0.00     0.244 HD
ENDBRANCH  23  25
ENDBRANCH   1  23
BRANCH   9  27
HETATM   27  C   UNK N   1      32.305  16.394   7.393  0.00  0.00     0.013 C 
HETATM   28  C   UNK N   1      31.228  16.694   8.120  0.00  0.00     0.012 C 
BRANCH  28  29
HETATM   29  C   UNK N   1      30.011  17.325   7.605  0.00  0.00    -0.036 A 
HETATM   30  C   UNK N   1      29.804  17.269   6.221  0.00  0.00     0.011 A 
HETATM   31  C   UNK N   1      28.810  18.045   5.623  0.00  0.00     0.001 A 
HETATM   32  C   UNK N   1      28.024  18.891   6.406  0.00  0.00     0.000 A 
HETATM   33  C   UNK N   1      28.226  18.954   7.790  0.00  0.00     0.001 A 
HETATM   34  C   UNK N   1      29.232  18.188   8.388  0.00  0.00     0.011 A 
ENDBRANCH  28  29
ENDBRANCH   9  27
TORSDOF 6
ENDMDL
MODEL 9
REMARK VINA RESULT:      -8.0      3.333      8.763
REMARK  6 active torsions:
REMARK  status: ('A' for Active; 'I' for Inactive)
REMARK    1  A    between atoms: N_2  and  O_1 
REMARK    2  A    between atoms: C_4  and  N_2 
REMARK    3  A    between atoms: C_8  and  N_7 
REMARK    4  A    between atoms: C_8  and  C_9 
REMARK    5  A    between atoms: C_24  and  C_25 
REMARK    6  A    between atoms: C_26  and  C_27 
ROOT
HETATM    1  C   UNK N   1      34.776  16.015   9.489  0.00  0.00     0.135 A 
HETATM    2  C   UNK N   1      35.736  15.243  10.248  0.00  0.00     0.278 A 
HETATM    3  O   UNK N   1      36.432  15.704  11.124  0.00  0.00    -0.265 OA
HETATM    4  N   UNK N   1      35.664  13.933   9.882  0.00  0.00    -0.307 N 
HETATM    5  C   UNK N   1      34.705  13.835   8.836  0.00  0.00     0.051 A 
HETATM    6  C   UNK N   1      34.287  12.683   8.166  0.00  0.00     0.031 A 
HETATM    7  C   UNK N   1      33.275  12.808   7.194  0.00  0.00     0.003 A 
HETATM    8  C   UNK N   1      32.689  14.064   6.913  0.00  0.00     0.012 A 
HETATM    9  C   UNK N   1      33.131  15.220   7.582  0.00  0.00    -0.021 A 
HETATM   10  C   UNK N   1      34.147  15.071   8.553  0.00  0.00     0.035 A 
ENDROOT
BRANCH   4  11
HETATM   11  C   UNK N   1      36.234  12.766  10.558  0.00  0.00     0.174 C 
BRANCH  11  12
HETATM   12  C   UNK N   1      35.359  11.904  11.445  0.00  0.00    -0.003 A 
HETATM   13  C   UNK N   1      34.786  10.704  10.999  0.00  0.00     0.054 A 
HETATM   14  C   UNK N   1      34.000   9.917  11.843  0.00  0.00     0.117 A 
HETATM   15  F   UNK N   1      33.405   8.798  11.364  0.00  0.00    -0.206 F 
HETATM   16  C   UNK N   1      33.826  10.289  13.176  0.00  0.00     0.054 A 
HETATM   17  C   UNK N   1      34.439  11.450  13.647  0.00  0.00     0.003 A 
HETATM   18  C   UNK N   1      34.335  11.869  15.085  0.00  0.00     0.212 C 
HETATM   19  C   UNK N   1      35.205  12.254  12.792  0.00  0.00     0.088 A 
HETATM   20  O   UNK N   1      34.568  13.258  15.221  0.00  0.00    -0.362 OA
HETATM   21  C   UNK N   1      35.838  13.543  14.674  0.00  0.00     0.345 C 
HETATM   22  O   UNK N   1      35.813  13.350  13.303  0.00  0.00    -0.325 OA
ENDBRANCH  11  12
ENDBRANCH   4  11
BRANCH   1  23
HETATM   23  N   UNK N   1      34.444  17.236   9.726  0.00  0.00    -0.263 N 
ATOM     24  HN  UNK N   1      33.640  17.424  10.325  1.00  0.00     0.194 HD
BRANCH  23  25
HETATM   25  O   UNK N   1      35.115  18.246   9.217  0.00  0.00    -0.289 OA
HETATM   26  H   UNK N   1      35.579  18.832   9.781  0.00  0.00     0.244 HD
ENDBRANCH  23  25
ENDBRANCH   1  23
BRANCH   9  27
HETATM   27  C   UNK N   1      32.496  16.534   7.337  0.00  0.00     0.013 C 
HETATM   28  C   UNK N   1      31.349  16.791   7.965  0.00  0.00     0.012 C 
BRANCH  28  29
HETATM   29  C   UNK N   1      30.247  17.586   7.418  0.00  0.00    -0.036 A 
HETATM   30  C   UNK N   1      29.463  18.300   8.333  0.00  0.00     0.011 A 
HETATM   31  C   UNK N   1      28.260  18.881   7.931  0.00  0.00     0.001 A 
HETATM   32  C   UNK N   1      27.827  18.741   6.612  0.00  0.00     0.000 A 
HETATM   33  C   UNK N   1      28.605  18.028   5.692  0.00  0.00     0.001 A 
HETATM   34  C   UNK N   1      29.804  17.432   6.097  0.00  0.00     0.011 A 
ENDBRANCH  28  29
ENDBRANCH   9  27
TORSDOF 6
ENDMDL
