MODEL 1
REMARK VINA RESULT:      -7.4      0.000      0.000
REMARK  3 active torsions:
REMARK  status: ('A' for Active; 'I' for Inactive)
REMARK    1  A    between atoms: N_2  and  O_1 
REMARK    2  A    between atoms: C_8  and  N_7 
REMARK    3  A    between atoms: C_8  and  C_9 
ROOT
HETATM    1  N   UNK N   1      32.058  16.558   3.172  0.00  0.00    -0.263 N 
ATOM      2  HN  UNK N   1      31.522  16.309   2.341  1.00  0.00     0.194 HD
HETATM    3  C   UNK N   1      31.445  16.735   4.289  0.00  0.00     0.134 A 
HETATM    4  C   UNK N   1      30.000  16.668   4.506  0.00  0.00     0.278 A 
HETATM    5  O   UNK N   1      29.172  16.459   3.636  0.00  0.00    -0.265 OA
HETATM    6  N   UNK N   1      29.713  16.952   5.806  0.00  0.00    -0.307 N 
HETATM    7  C   UNK N   1      30.942  17.233   6.460  0.00  0.00     0.050 A 
HETATM    8  C   UNK N   1      31.136  17.643   7.780  0.00  0.00     0.034 A 
HETATM    9  C   UNK N   1      32.449  17.938   8.194  0.00  0.00     0.044 A 
HETATM   10  C   UNK N   1      33.532  17.829   7.291  0.00  0.00     0.117 A 
HETATM   11  F   UNK N   1      34.786  18.141   7.698  0.00  0.00    -0.206 F 
HETATM   12  C   UNK N   1      33.311  17.416   5.967  0.00  0.00     0.058 A 
HETATM   13  C   UNK N   1      32.006  17.123   5.582  0.00  0.00     0.028 A 
ENDROOT
BRANCH   6  14
HETATM   14  C   UNK N   1      28.400  17.180   6.404  0.00  0.00     0.174 C 
BRANCH  14  15
HETATM   15  C   UNK N   1      27.611  18.377   5.927  0.00  0.00    -0.003 A 
HETATM   16  C   UNK N   1      27.951  19.664   6.368  0.00  0.00     0.054 A 
HETATM   17  C   UNK N   1      27.180  20.776   6.020  0.00  0.00     0.117 A 
HETATM   18  F   UNK N   1      27.535  22.007   6.459  0.00  0.00    -0.206 F 
HETATM   19  C   UNK N   1      26.032  20.614   5.244  0.00  0.00     0.054 A 
HETATM   20  C   UNK N   1      25.671  19.339   4.813  0.00  0.00     0.003 A 
HETATM   21  C   UNK N   1      24.426  19.098   4.017  0.00  0.00     0.212 C 
HETATM   22  C   UNK N   1      26.446  18.219   5.147  0.00  0.00     0.088 A 
HETATM   23  O   UNK N   1      23.910  17.823   4.336  0.00  0.00    -0.362 OA
HETATM   24  C   UNK N   1      24.886  16.875   3.948  0.00  0.00     0.345 C 
HETATM   25  O   UNK N   1      26.022  16.997   4.739  0.00  0.00    -0.325 OA
ENDBRANCH  14  15
ENDBRANCH   6  14
BRANCH   1  26
HETATM   26  O   UNK N   1      33.364  16.692   3.084  0.00  0.00    -0.289 OA
HETATM   27  H   UNK N   1      33.881  16.143   2.530  0.00  0.00     0.244 HD
ENDBRANCH   1  26
TORSDOF 3
ENDMDL
MODEL 2
REMARK VINA RESULT:      -7.4      2.193      2.849
REMARK  3 active torsions:
REMARK  status: ('A' for Active; 'I' for Inactive)
REMARK    1  A    between atoms: N_2  and  O_1 
REMARK    2  A    between atoms: C_8  and  N_7 
REMARK    3  A    between atoms: C_8  and  C_9 
ROOT
HETATM    1  N   UNK N   1      32.740  17.253   9.055  0.00  0.00    -0.263 N 
ATOM      2  HN  UNK N   1      32.506  17.389  10.038  1.00  0.00     0.194 HD
HETATM    3  C   UNK N   1      31.808  17.311   8.170  0.00  0.00     0.134 A 
HETATM    4  C   UNK N   1      30.381  17.510   8.424  0.00  0.00     0.278 A 
HETATM    5  O   UNK N   1      29.878  17.620   9.529  0.00  0.00    -0.265 OA
HETATM    6  N   UNK N   1      29.692  17.474   7.252  0.00  0.00    -0.307 N 
HETATM    7  C   UNK N   1      30.632  17.229   6.214  0.00  0.00     0.050 A 
HETATM    8  C   UNK N   1      30.378  17.041   4.855  0.00  0.00     0.034 A 
HETATM    9  C   UNK N   1      31.467  16.736   4.016  0.00  0.00     0.044 A 
HETATM   10  C   UNK N   1      32.773  16.616   4.544  0.00  0.00     0.117 A 
HETATM   11  F   UNK N   1      33.806  16.297   3.727  0.00  0.00    -0.206 F 
HETATM   12  C   UNK N   1      33.003  16.808   5.916  0.00  0.00     0.058 A 
HETATM   13  C   UNK N   1      31.913  17.116   6.726  0.00  0.00     0.028 A 
ENDROOT
BRANCH   6  14
HETATM   14  C   UNK N   1      28.244  17.439   7.064  0.00  0.00     0.174 C 
BRANCH  14  15
HETATM   15  C   UNK N   1      27.614  18.557   6.264  0.00  0.00    -0.003 A 
HETATM   16  C   UNK N   1      27.807  19.890   6.649  0.00  0.00     0.054 A 
HETATM   17  C   UNK N   1      27.158  20.936   5.988  0.00  0.00     0.117 A 
HETATM   18  F   UNK N   1      27.368  22.215   6.381  0.00  0.00    -0.206 F 
HETATM   19  C   UNK N   1      26.278  20.661   4.942  0.00  0.00     0.054 A 
HETATM   20  C   UNK N   1      26.061  19.338   4.559  0.00  0.00     0.003 A 
HETATM   21  C   UNK N   1      25.094  18.978   3.476  0.00  0.00     0.212 C 
HETATM   22  C   UNK N   1      26.718  18.283   5.210  0.00  0.00     0.088 A 
HETATM   23  O   UNK N   1      24.516  17.723   3.765  0.00  0.00    -0.362 OA
HETATM   24  C   UNK N   1      25.568  16.777   3.765  0.00  0.00     0.345 C 
HETATM   25  O   UNK N   1      26.434  17.014   4.826  0.00  0.00    -0.325 OA
ENDBRANCH  14  15
ENDBRANCH   6  14
BRANCH   1  26
HETATM   26  O   UNK N   1      33.989  17.020   8.712  0.00  0.00    -0.289 OA
HETATM   27  H   UNK N   1      34.222  16.314   8.143  0.00  0.00     0.244 HD
ENDBRANCH   1  26
TORSDOF 3
ENDMDL
MODEL 3
REMARK VINA RESULT:      -7.3     11.085     12.143
REMARK  3 active torsions:
REMARK  status: ('A' for Active; 'I' for Inactive)
REMARK    1  A    between atoms: N_2  and  O_1 
REMARK    2  A    between atoms: C_8  and  N_7 
REMARK    3  A    between atoms: C_8  and  C_9 
ROOT
HETATM    1  N   UNK N   1      32.614  20.932  -2.603  0.00  0.00    -0.263 N 
ATOM      2  HN  UNK N   1      32.834  21.245  -1.658  1.00  0.00     0.194 HD
HETATM    3  C   UNK N   1      31.650  21.491  -3.246  0.00  0.00     0.134 A 
HETATM    4  C   UNK N   1      30.761  22.536  -2.740  0.00  0.00     0.278 A 
HETATM    5  O   UNK N   1      30.800  23.002  -1.614  0.00  0.00    -0.265 OA
HETATM    6  N   UNK N   1      29.834  22.854  -3.684  0.00  0.00    -0.307 N 
HETATM    7  C   UNK N   1      30.072  22.020  -4.810  0.00  0.00     0.050 A 
HETATM    8  C   UNK N   1      29.330  21.939  -5.989  0.00  0.00     0.034 A 
HETATM    9  C   UNK N   1      29.711  20.978  -6.945  0.00  0.00     0.044 A 
HETATM   10  C   UNK N   1      30.809  20.120  -6.707  0.00  0.00     0.117 A 
HETATM   11  F   UNK N   1      31.147  19.183  -7.626  0.00  0.00    -0.206 F 
HETATM   12  C   UNK N   1      31.540  20.219  -5.511  0.00  0.00     0.058 A 
HETATM   13  C   UNK N   1      31.149  21.180  -4.583  0.00  0.00     0.028 A 
ENDROOT
BRANCH   6  14
HETATM   14  C   UNK N   1      28.653  23.700  -3.533  0.00  0.00     0.174 C 
BRANCH  14  15
HETATM   15  C   UNK N   1      28.740  25.122  -4.036  0.00  0.00    -0.003 A 
HETATM   16  C   UNK N   1      29.883  25.891  -3.773  0.00  0.00     0.054 A 
HETATM   17  C   UNK N   1      29.950  27.237  -4.141  0.00  0.00     0.117 A 
HETATM   18  F   UNK N   1      31.068  27.954  -3.876  0.00  0.00    -0.206 F 
HETATM   19  C   UNK N   1      28.858  27.848  -4.758  0.00  0.00     0.054 A 
HETATM   20  C   UNK N   1      27.708  27.101  -5.010  0.00  0.00     0.003 A 
HETATM   21  C   UNK N   1      26.489  27.713  -5.626  0.00  0.00     0.212 C 
HETATM   22  C   UNK N   1      27.637  25.746  -4.654  0.00  0.00     0.088 A 
HETATM   23  O   UNK N   1      25.339  27.069  -5.119  0.00  0.00    -0.362 OA
HETATM   24  C   UNK N   1      25.416  25.714  -5.519  0.00  0.00     0.345 C 
HETATM   25  O   UNK N   1      26.477  25.080  -4.882  0.00  0.00    -0.325 OA
ENDBRANCH  14  15
ENDBRANCH   6  14
BRANCH   1  26
HETATM   26  O   UNK N   1      33.320  19.962  -3.145  0.00  0.00    -0.289 OA
HETATM   27  H   UNK N   1      32.915  19.246  -3.591  0.00  0.00     0.244 HD
ENDBRANCH   1  26
TORSDOF 3
ENDMDL
MODEL 4
REMARK VINA RESULT:      -7.3      8.200      9.915
REMARK  3 active torsions:
REMARK  status: ('A' for Active; 'I' for Inactive)
REMARK    1  A    between atoms: N_2  and  O_1 
REMARK    2  A    between atoms: C_8  and  N_7 
REMARK    3  A    between atoms: C_8  and  C_9 
ROOT
HETATM    1  N   UNK N   1      19.353  15.987   1.462  0.00  0.00    -0.263 N 
ATOM      2  HN  UNK N   1      19.095  15.003   1.540  1.00  0.00     0.194 HD
HETATM    3  C   UNK N   1      20.237  16.474   2.258  0.00  0.00     0.134 A 
HETATM    4  C   UNK N   1      20.912  15.765   3.345  0.00  0.00     0.278 A 
HETATM    5  O   UNK N   1      20.699  14.606   3.660  0.00  0.00    -0.265 OA
HETATM    6  N   UNK N   1      21.751  16.611   4.000  0.00  0.00    -0.307 N 
HETATM    7  C   UNK N   1      21.634  17.887   3.386  0.00  0.00     0.050 A 
HETATM    8  C   UNK N   1      22.250  19.080   3.763  0.00  0.00     0.034 A 
HETATM    9  C   UNK N   1      21.925  20.248   3.046  0.00  0.00     0.044 A 
HETATM   10  C   UNK N   1      20.994  20.205   1.982  0.00  0.00     0.117 A 
HETATM   11  F   UNK N   1      20.672  21.342   1.318  0.00  0.00    -0.206 F 
HETATM   12  C   UNK N   1      20.385  18.991   1.622  0.00  0.00     0.058 A 
HETATM   13  C   UNK N   1      20.726  17.849   2.340  0.00  0.00     0.028 A 
ENDROOT
BRANCH   6  14
HETATM   14  C   UNK N   1      22.468  16.373   5.250  0.00  0.00     0.174 C 
BRANCH  14  15
HETATM   15  C   UNK N   1      21.650  16.253   6.516  0.00  0.00    -0.003 A 
HETATM   16  C   UNK N   1      20.825  17.311   6.920  0.00  0.00     0.054 A 
HETATM   17  C   UNK N   1      20.134  17.267   8.134  0.00  0.00     0.117 A 
HETATM   18  F   UNK N   1      19.341  18.304   8.497  0.00  0.00    -0.206 F 
HETATM   19  C   UNK N   1      20.280  16.169   8.981  0.00  0.00     0.054 A 
HETATM   20  C   UNK N   1      21.112  15.117   8.601  0.00  0.00     0.003 A 
HETATM   21  C   UNK N   1      21.345  13.934   9.488  0.00  0.00     0.212 C 
HETATM   22  C   UNK N   1      21.800  15.148   7.379  0.00  0.00     0.088 A 
HETATM   23  O   UNK N   1      22.656  13.452   9.286  0.00  0.00    -0.362 OA
HETATM   24  C   UNK N   1      22.736  13.029   7.938  0.00  0.00     0.345 C 
HETATM   25  O   UNK N   1      22.631  14.118   7.081  0.00  0.00    -0.325 OA
ENDBRANCH  14  15
ENDBRANCH   6  14
BRANCH   1  26
HETATM   26  O   UNK N   1      18.774  16.736   0.547  0.00  0.00    -0.289 OA
HETATM   27  H   UNK N   1      18.548  17.630   0.711  0.00  0.00     0.244 HD
ENDBRANCH   1  26
TORSDOF 3
ENDMDL
MODEL 5
REMARK VINA RESULT:      -7.2      4.485      6.121
REMARK  3 active torsions:
REMARK  status: ('A' for Active; 'I' for Inactive)
REMARK    1  A    between atoms: N_2  and  O_1 
REMARK    2  A    between atoms: C_8  and  N_7 
REMARK    3  A    between atoms: C_8  and  C_9 
ROOT
HETATM    1  N   UNK N   1      36.171  16.061  11.282  0.00  0.00    -0.263 N 
ATOM      2  HN  UNK N   1      36.511  16.988  11.536  1.00  0.00     0.194 HD
HETATM    3  C   UNK N   1      35.485  15.914  10.204  0.00  0.00     0.134 A 
HETATM    4  C   UNK N   1      35.077  16.974   9.283  0.00  0.00     0.278 A 
HETATM    5  O   UNK N   1      35.313  18.161   9.436  0.00  0.00    -0.265 OA
HETATM    6  N   UNK N   1      34.328  16.450   8.276  0.00  0.00    -0.307 N 
HETATM    7  C   UNK N   1      34.206  15.056   8.518  0.00  0.00     0.050 A 
HETATM    8  C   UNK N   1      33.469  14.121   7.790  0.00  0.00     0.034 A 
HETATM    9  C   UNK N   1      33.434  12.794   8.263  0.00  0.00     0.044 A 
HETATM   10  C   UNK N   1      34.120  12.431   9.445  0.00  0.00     0.117 A 
HETATM   11  F   UNK N   1      34.056  11.157   9.900  0.00  0.00    -0.206 F 
HETATM   12  C   UNK N   1      34.854  13.392  10.162  0.00  0.00     0.058 A 
HETATM   13  C   UNK N   1      34.880  14.694   9.672  0.00  0.00     0.028 A 
ENDROOT
BRANCH   6  14
HETATM   14  C   UNK N   1      33.566  17.169   7.257  0.00  0.00     0.174 C 
BRANCH  14  15
HETATM   15  C   UNK N   1      32.107  17.445   7.538  0.00  0.00    -0.003 A 
HETATM   16  C   UNK N   1      31.735  18.157   8.687  0.00  0.00     0.054 A 
HETATM   17  C   UNK N   1      30.391  18.341   9.021  0.00  0.00     0.117 A 
HETATM   18  F   UNK N   1      30.063  19.036  10.137  0.00  0.00    -0.206 F 
HETATM   19  C   UNK N   1      29.391  17.789   8.221  0.00  0.00     0.054 A 
HETATM   20  C   UNK N   1      29.745  17.064   7.085  0.00  0.00     0.003 A 
HETATM   21  C   UNK N   1      28.718  16.409   6.214  0.00  0.00     0.212 C 
HETATM   22  C   UNK N   1      31.092  16.884   6.736  0.00  0.00     0.088 A 
HETATM   23  O   UNK N   1      29.260  15.227   5.664  0.00  0.00    -0.362 OA
HETATM   24  C   UNK N   1      30.357  15.614   4.858  0.00  0.00     0.345 C 
HETATM   25  O   UNK N   1      31.379  16.130   5.645  0.00  0.00    -0.325 OA
ENDBRANCH  14  15
ENDBRANCH   6  14
BRANCH   1  26
HETATM   26  O   UNK N   1      36.439  15.037  12.063  0.00  0.00    -0.289 OA
HETATM   27  H   UNK N   1      36.522  14.167  11.726  0.00  0.00     0.244 HD
ENDBRANCH   1  26
TORSDOF 3
ENDMDL
MODEL 6
REMARK VINA RESULT:      -7.2      2.454      6.891
REMARK  3 active torsions:
REMARK  status: ('A' for Active; 'I' for Inactive)
REMARK    1  A    between atoms: N_2  and  O_1 
REMARK    2  A    between atoms: C_8  and  N_7 
REMARK    3  A    between atoms: C_8  and  C_9 
ROOT
HETATM    1  N   UNK N   1      24.336  16.122   6.010  0.00  0.00    -0.263 N 
ATOM      2  HN  UNK N   1      24.379  15.226   6.495  1.00  0.00     0.194 HD
HETATM    3  C   UNK N   1      25.413  16.631   5.526  0.00  0.00     0.134 A 
HETATM    4  C   UNK N   1      26.761  16.076   5.635  0.00  0.00     0.278 A 
HETATM    5  O   UNK N   1      27.049  15.054   6.236  0.00  0.00    -0.265 OA
HETATM    6  N   UNK N   1      27.656  16.909   5.038  0.00  0.00    -0.307 N 
HETATM    7  C   UNK N   1      26.931  18.029   4.548  0.00  0.00     0.050 A 
HETATM    8  C   UNK N   1      27.437  19.172   3.927  0.00  0.00     0.034 A 
HETATM    9  C   UNK N   1      26.532  20.196   3.590  0.00  0.00     0.044 A 
HETATM   10  C   UNK N   1      25.154  20.067   3.884  0.00  0.00     0.117 A 
HETATM   11  F   UNK N   1      24.300  21.073   3.577  0.00  0.00    -0.206 F 
HETATM   12  C   UNK N   1      24.669  18.908   4.512  0.00  0.00     0.058 A 
HETATM   13  C   UNK N   1      25.581  17.905   4.830  0.00  0.00     0.028 A 
ENDROOT
BRANCH   6  14
HETATM   14  C   UNK N   1      29.114  16.837   5.079  0.00  0.00     0.174 C 
BRANCH  14  15
HETATM   15  C   UNK N   1      29.798  17.218   6.373  0.00  0.00    -0.003 A 
HETATM   16  C   UNK N   1      29.044  17.712   7.446  0.00  0.00     0.054 A 
HETATM   17  C   UNK N   1      29.659  18.162   8.617  0.00  0.00     0.117 A 
HETATM   18  F   UNK N   1      28.904  18.631   9.639  0.00  0.00    -0.206 F 
HETATM   19  C   UNK N   1      31.050  18.152   8.722  0.00  0.00     0.054 A 
HETATM   20  C   UNK N   1      31.814  17.681   7.656  0.00  0.00     0.003 A 
HETATM   21  C   UNK N   1      33.311  17.689   7.693  0.00  0.00     0.212 C 
HETATM   22  C   UNK N   1      31.203  17.216   6.482  0.00  0.00     0.088 A 
HETATM   23  O   UNK N   1      33.807  17.895   6.388  0.00  0.00    -0.362 OA
HETATM   24  C   UNK N   1      33.380  16.795   5.607  0.00  0.00     0.345 C 
HETATM   25  O   UNK N   1      31.998  16.812   5.459  0.00  0.00    -0.325 OA
ENDBRANCH  14  15
ENDBRANCH   6  14
BRANCH   1  26
HETATM   26  O   UNK N   1      23.179  16.738   5.892  0.00  0.00    -0.289 OA
HETATM   27  H   UNK N   1      22.491  16.399   5.354  0.00  0.00     0.244 HD
ENDBRANCH   1  26
TORSDOF 3
ENDMDL
MODEL 7
REMARK VINA RESULT:      -7.2      4.845      8.888
REMARK  3 active torsions:
REMARK  status: ('A' for Active; 'I' for Inactive)
REMARK    1  A    between atoms: N_2  and  O_1 
REMARK    2  A    between atoms: C_8  and  N_7 
REMARK    3  A    between atoms: C_8  and  C_9 
ROOT
HETATM    1  N   UNK N   1      19.226  17.880   1.579  0.00  0.00    -0.263 N 
ATOM      2  HN  UNK N   1      18.759  18.750   1.831  1.00  0.00     0.194 HD
HETATM    3  C   UNK N   1      20.196  17.449   2.306  0.00  0.00     0.134 A 
HETATM    4  C   UNK N   1      20.765  18.116   3.476  0.00  0.00     0.278 A 
HETATM    5  O   UNK N   1      20.407  19.200   3.906  0.00  0.00    -0.265 OA
HETATM    6  N   UNK N   1      21.805  17.387   3.965  0.00  0.00    -0.307 N 
HETATM    7  C   UNK N   1      21.958  16.251   3.126  0.00  0.00     0.050 A 
HETATM    8  C   UNK N   1      22.938  15.260   3.196  0.00  0.00     0.034 A 
HETATM    9  C   UNK N   1      22.939  14.260   2.204  0.00  0.00     0.044 A 
HETATM   10  C   UNK N   1      21.978  14.272   1.167  0.00  0.00     0.117 A 
HETATM   11  F   UNK N   1      22.008  13.318   0.206  0.00  0.00    -0.206 F 
HETATM   12  C   UNK N   1      21.002  15.282   1.117  0.00  0.00     0.058 A 
HETATM   13  C   UNK N   1      21.017  16.256   2.111  0.00  0.00     0.028 A 
ENDROOT
BRANCH   6  14
HETATM   14  C   UNK N   1      22.765  17.774   4.996  0.00  0.00     0.174 C 
BRANCH  14  15
HETATM   15  C   UNK N   1      24.084  18.357   4.542  0.00  0.00    -0.003 A 
HETATM   16  C   UNK N   1      24.103  19.487   3.713  0.00  0.00     0.054 A 
HETATM   17  C   UNK N   1      25.302  19.987   3.199  0.00  0.00     0.117 A 
HETATM   18  F   UNK N   1      25.290  21.083   2.403  0.00  0.00    -0.206 F 
HETATM   19  C   UNK N   1      26.507  19.345   3.486  0.00  0.00     0.054 A 
HETATM   20  C   UNK N   1      26.501  18.209   4.294  0.00  0.00     0.003 A 
HETATM   21  C   UNK N   1      27.756  17.450   4.598  0.00  0.00     0.212 C 
HETATM   22  C   UNK N   1      25.303  17.707   4.823  0.00  0.00     0.088 A 
HETATM   23  O   UNK N   1      27.447  16.081   4.742  0.00  0.00    -0.362 OA
HETATM   24  C   UNK N   1      26.573  15.970   5.849  0.00  0.00     0.345 C 
HETATM   25  O   UNK N   1      25.352  16.573   5.565  0.00  0.00    -0.325 OA
ENDBRANCH  14  15
ENDBRANCH   6  14
BRANCH   1  26
HETATM   26  O   UNK N   1      18.827  17.216   0.515  0.00  0.00    -0.289 OA
HETATM   27  H   UNK N   1      19.168  16.369   0.304  0.00  0.00     0.244 HD
ENDBRANCH   1  26
TORSDOF 3
ENDMDL
MODEL 8
REMARK VINA RESULT:      -7.1      2.896      7.092
REMARK  3 active torsions:
REMARK  status: ('A' for Active; 'I' for Inactive)
REMARK    1  A    between atoms: N_2  and  O_1 
REMARK    2  A    between atoms: C_8  and  N_7 
REMARK    3  A    between atoms: C_8  and  C_9 
ROOT
HETATM    1  N   UNK N   1      26.832  20.318   8.205  0.00  0.00    -0.263 N 
ATOM      2  HN  UNK N   1      27.155  20.242   9.169  1.00  0.00     0.194 HD
HETATM    3  C   UNK N   1      27.202  19.437   7.344  0.00  0.00     0.134 A 
HETATM    4  C   UNK N   1      28.112  18.318   7.584  0.00  0.00     0.278 A 
HETATM    5  O   UNK N   1      28.671  18.087   8.643  0.00  0.00    -0.265 OA
HETATM    6  N   UNK N   1      28.306  17.622   6.431  0.00  0.00    -0.307 N 
HETATM    7  C   UNK N   1      27.557  18.271   5.412  0.00  0.00     0.050 A 
HETATM    8  C   UNK N   1      27.506  17.957   4.054  0.00  0.00     0.034 A 
HETATM    9  C   UNK N   1      26.747  18.792   3.211  0.00  0.00     0.044 A 
HETATM   10  C   UNK N   1      26.068  19.917   3.731  0.00  0.00     0.117 A 
HETATM   11  F   UNK N   1      25.364  20.726   2.903  0.00  0.00    -0.206 F 
HETATM   12  C   UNK N   1      26.137  20.215   5.103  0.00  0.00     0.058 A 
HETATM   13  C   UNK N   1      26.887  19.372   5.918  0.00  0.00     0.028 A 
ENDROOT
BRANCH   6  14
HETATM   14  C   UNK N   1      29.275  16.559   6.177  0.00  0.00     0.174 C 
BRANCH  14  15
HETATM   15  C   UNK N   1      30.630  16.960   5.639  0.00  0.00    -0.003 A 
HETATM   16  C   UNK N   1      30.845  17.024   4.256  0.00  0.00     0.054 A 
HETATM   17  C   UNK N   1      32.111  17.296   3.732  0.00  0.00     0.117 A 
HETATM   18  F   UNK N   1      32.288  17.354   2.390  0.00  0.00    -0.206 F 
HETATM   19  C   UNK N   1      33.196  17.482   4.589  0.00  0.00     0.054 A 
HETATM   20  C   UNK N   1      33.001  17.404   5.967  0.00  0.00     0.003 A 
HETATM   21  C   UNK N   1      34.135  17.549   6.934  0.00  0.00     0.212 C 
HETATM   22  C   UNK N   1      31.731  17.143   6.501  0.00  0.00     0.088 A 
HETATM   23  O   UNK N   1      33.884  16.746   8.068  0.00  0.00    -0.362 OA
HETATM   24  C   UNK N   1      32.706  17.246   8.673  0.00  0.00     0.345 C 
HETATM   25  O   UNK N   1      31.608  17.032   7.848  0.00  0.00    -0.325 OA
ENDBRANCH  14  15
ENDBRANCH   6  14
BRANCH   1  26
HETATM   26  O   UNK N   1      26.043  21.314   7.863  0.00  0.00    -0.289 OA
HETATM   27  H   UNK N   1      25.987  22.098   8.372  0.00  0.00     0.244 HD
ENDBRANCH   1  26
TORSDOF 3
ENDMDL
MODEL 9
REMARK VINA RESULT:      -7.1      3.819      8.115
REMARK  3 active torsions:
REMARK  status: ('A' for Active; 'I' for Inactive)
REMARK    1  A    between atoms: N_2  and  O_1 
REMARK    2  A    between atoms: C_8  and  N_7 
REMARK    3  A    between atoms: C_8  and  C_9 
ROOT
HETATM    1  N   UNK N   1      20.582  20.273   2.826  0.00  0.00    -0.263 N 
ATOM      2  HN  UNK N   1      20.631  21.243   2.516  1.00  0.00     0.194 HD
HETATM    3  C   UNK N   1      21.663  19.661   3.159  0.00  0.00     0.134 A 
HETATM    4  C   UNK N   1      23.020  20.200   3.098  0.00  0.00     0.278 A 
HETATM    5  O   UNK N   1      23.313  21.310   2.687  0.00  0.00    -0.265 OA
HETATM    6  N   UNK N   1      23.914  19.252   3.490  0.00  0.00    -0.307 N 
HETATM    7  C   UNK N   1      23.179  18.074   3.792  0.00  0.00     0.050 A 
HETATM    8  C   UNK N   1      23.677  16.825   4.165  0.00  0.00     0.034 A 
HETATM    9  C   UNK N   1      22.757  15.774   4.343  0.00  0.00     0.044 A 
HETATM   10  C   UNK N   1      21.374  15.983   4.139  0.00  0.00     0.117 A 
HETATM   11  F   UNK N   1      20.505  14.955   4.289  0.00  0.00    -0.206 F 
HETATM   12  C   UNK N   1      20.897  17.249   3.761  0.00  0.00     0.058 A 
HETATM   13  C   UNK N   1      21.823  18.275   3.597  0.00  0.00     0.028 A 
ENDROOT
BRANCH   6  14
HETATM   14  C   UNK N   1      25.371  19.302   3.399  0.00  0.00     0.174 C 
BRANCH  14  15
HETATM   15  C   UNK N   1      26.148  19.462   4.686  0.00  0.00    -0.003 A 
HETATM   16  C   UNK N   1      26.099  20.673   5.389  0.00  0.00     0.054 A 
HETATM   17  C   UNK N   1      26.883  20.882   6.527  0.00  0.00     0.117 A 
HETATM   18  F   UNK N   1      26.812  22.063   7.187  0.00  0.00    -0.206 F 
HETATM   19  C   UNK N   1      27.754  19.886   6.967  0.00  0.00     0.054 A 
HETATM   20  C   UNK N   1      27.828  18.682   6.267  0.00  0.00     0.003 A 
HETATM   21  C   UNK N   1      28.777  17.595   6.664  0.00  0.00     0.212 C 
HETATM   22  C   UNK N   1      27.036  18.460   5.131  0.00  0.00     0.088 A 
HETATM   23  O   UNK N   1      29.197  16.901   5.509  0.00  0.00    -0.362 OA
HETATM   24  C   UNK N   1      28.044  16.309   4.942  0.00  0.00     0.345 C 
HETATM   25  O   UNK N   1      27.181  17.289   4.463  0.00  0.00    -0.325 OA
ENDBRANCH  14  15
ENDBRANCH   6  14
BRANCH   1  26
HETATM   26  O   UNK N   1      19.414  19.669   2.877  0.00  0.00    -0.289 OA
HETATM   27  H   UNK N   1      18.615  20.145   2.984  0.00  0.00     0.244 HD
ENDBRANCH   1  26
TORSDOF 3
ENDMDL
