MODEL 1
REMARK VINA RESULT:      -6.5      0.000      0.000
REMARK  8 active torsions:
REMARK  status: ('A' for Active; 'I' for Inactive)
REMARK    1  A    between atoms: C_5  and  N_10 
REMARK    2  A    between atoms: C_13  and  C_16 
REMARK    3  A    between atoms: C_16  and  C_17 
REMARK    4  A    between atoms: C_17  and  O_18 
REMARK    5  A    between atoms: O_18  and  C_19 
REMARK    6  A    between atoms: C_22  and  C_25 
REMARK    7  A    between atoms: C_25  and  O_27 
REMARK    8  A    between atoms: O_27  and  C_28 
ROOT
HETATM    1  N   UNK N   1      28.152  29.076  -4.085  0.00  0.00    -0.366 N 
HETATM    2  C   UNK N   1      28.103  28.920  -5.533  0.00  0.00     0.125 C 
HETATM    3  C   UNK N   1      27.173  27.771  -5.943  0.00  0.00     0.024 C 
HETATM    4  C   UNK N   1      25.837  27.957  -5.238  0.00  0.00    -0.009 C 
HETATM    5  C   UNK N   1      26.062  27.856  -3.740  0.00  0.00     0.024 C 
HETATM    6  C   UNK N   1      26.920  29.032  -3.320  0.00  0.00     0.125 C 
ENDROOT
BRANCH   4   7
HETATM    7  C   UNK N   1      24.766  26.978  -5.673  0.00  0.00     0.031 C 
BRANCH   7   8
HETATM    8  C   UNK N   1      25.496  25.801  -6.294  0.00  0.00     0.176 C 
BRANCH   8   9
HETATM    9  O   UNK N   1      25.467  24.688  -5.486  0.00  0.00    -0.351 OA
BRANCH   9  10
HETATM   10  C   UNK N   1      26.544  24.290  -4.765  0.00  0.00     0.068 A 
HETATM   11  C   UNK N   1      27.703  23.900  -5.441  0.00  0.00     0.038 A 
HETATM   12  C   UNK N   1      28.809  23.427  -4.730  0.00  0.00     0.020 A 
HETATM   13  C   UNK N   1      28.779  23.360  -3.331  0.00  0.00     0.039 A 
HETATM   14  C   UNK N   1      27.629  23.779  -2.646  0.00  0.00     0.020 A 
HETATM   15  C   UNK N   1      26.513  24.233  -3.359  0.00  0.00     0.038 A 
BRANCH  13  16
HETATM   16  C   UNK N   1      29.942  22.820  -2.599  0.00  0.00     0.293 C 
HETATM   17  O   UNK N   1      30.236  23.264  -1.497  0.00  0.00    -0.259 OA
BRANCH  16  18
HETATM   18  O   UNK N   1      30.655  21.802  -3.144  0.00  0.00    -0.318 OA
BRANCH  18  19
HETATM   19  C   UNK N   1      32.022  21.840  -3.281  0.00  0.00     0.174 C 
HETATM   20  C   UNK N   1      32.391  22.890  -4.309  0.00  0.00     0.034 C 
ENDBRANCH  18  19
ENDBRANCH  16  18
ENDBRANCH  13  16
ENDBRANCH   9  10
ENDBRANCH   8   9
ENDBRANCH   7   8
ENDBRANCH   4   7
BRANCH   1  21
HETATM   21  C   UNK N   1      29.319  29.596  -3.452  0.00  0.00     0.117 A 
HETATM   22  C   UNK N   1      29.620  29.288  -2.120  0.00  0.00     0.051 A 
HETATM   23  C   UNK N   1      30.802  29.770  -1.560  0.00  0.00     0.030 A 
HETATM   24  C   UNK N   1      31.653  30.548  -2.340  0.00  0.00     0.022 A 
HETATM   25  C   UNK N   1      32.928  31.062  -1.774  0.00  0.00     0.069 C 
HETATM   26  N   UNK N   1      31.318  30.832  -3.624  0.00  0.00    -0.304 N 
HETATM   27  N   UNK N   1      30.187  30.369  -4.163  0.00  0.00    -0.285 N 
ATOM     28  HN  UNK N   1      31.942  31.411  -4.187  1.00  0.00     0.186 HD
ATOM     29  HN  UNK N   1      29.969  30.599  -5.133  1.00  0.00     0.188 HD
ENDBRANCH   1  21
TORSDOF 8
ENDMDL
MODEL 2
REMARK VINA RESULT:      -6.5     12.219     15.278
REMARK  8 active torsions:
REMARK  status: ('A' for Active; 'I' for Inactive)
REMARK    1  A    between atoms: C_5  and  N_10 
REMARK    2  A    between atoms: C_13  and  C_16 
REMARK    3  A    between atoms: C_16  and  C_17 
REMARK    4  A    between atoms: C_17  and  O_18 
REMARK    5  A    between atoms: O_18  and  C_19 
REMARK    6  A    between atoms: C_22  and  C_25 
REMARK    7  A    between atoms: C_25  and  O_27 
REMARK    8  A    between atoms: O_27  and  C_28 
ROOT
HETATM    1  N   UNK N   1      32.545  16.788   7.916  0.00  0.00    -0.366 N 
HETATM    2  C   UNK N   1      33.159  17.307   6.700  0.00  0.00     0.125 C 
HETATM    3  C   UNK N   1      32.298  17.012   5.465  0.00  0.00     0.024 C 
HETATM    4  C   UNK N   1      30.875  17.467   5.750  0.00  0.00    -0.009 C 
HETATM    5  C   UNK N   1      30.325  16.646   6.903  0.00  0.00     0.024 C 
HETATM    6  C   UNK N   1      31.127  16.991   8.142  0.00  0.00     0.125 C 
ENDROOT
BRANCH   4   7
HETATM    7  C   UNK N   1      29.946  17.379   4.556  0.00  0.00     0.031 C 
BRANCH   7   8
HETATM    8  C   UNK N   1      28.748  18.251   4.885  0.00  0.00     0.176 C 
BRANCH   8   9
HETATM    9  O   UNK N   1      27.563  17.559   4.790  0.00  0.00    -0.351 OA
BRANCH   9  10
HETATM   10  C   UNK N   1      26.413  18.150   4.380  0.00  0.00     0.068 A 
HETATM   11  C   UNK N   1      26.485  19.357   3.680  0.00  0.00     0.038 A 
HETATM   12  C   UNK N   1      25.317  20.021   3.297  0.00  0.00     0.020 A 
HETATM   13  C   UNK N   1      24.061  19.475   3.589  0.00  0.00     0.039 A 
HETATM   14  C   UNK N   1      23.983  18.248   4.265  0.00  0.00     0.020 A 
HETATM   15  C   UNK N   1      25.153  17.593   4.667  0.00  0.00     0.038 A 
BRANCH  13  16
HETATM   16  C   UNK N   1      22.837  20.211   3.213  0.00  0.00     0.293 C 
HETATM   17  O   UNK N   1      22.916  21.351   2.773  0.00  0.00    -0.259 OA
BRANCH  16  18
HETATM   18  O   UNK N   1      21.632  19.597   3.324  0.00  0.00    -0.318 OA
BRANCH  18  19
HETATM   19  C   UNK N   1      20.893  19.205   2.233  0.00  0.00     0.174 C 
HETATM   20  C   UNK N   1      19.467  18.937   2.668  0.00  0.00     0.034 C 
ENDBRANCH  18  19
ENDBRANCH  16  18
ENDBRANCH  13  16
ENDBRANCH   9  10
ENDBRANCH   8   9
ENDBRANCH   7   8
ENDBRANCH   4   7
BRANCH   1  21
HETATM   21  C   UNK N   1      33.352  16.389   9.021  0.00  0.00     0.117 A 
HETATM   22  C   UNK N   1      33.355  15.066   9.478  0.00  0.00     0.051 A 
HETATM   23  C   UNK N   1      34.204  14.708  10.523  0.00  0.00     0.030 A 
HETATM   24  C   UNK N   1      35.028  15.677  11.089  0.00  0.00     0.022 A 
HETATM   25  C   UNK N   1      35.955  15.320  12.194  0.00  0.00     0.069 C 
HETATM   26  N   UNK N   1      34.987  16.951  10.623  0.00  0.00    -0.304 N 
HETATM   27  N   UNK N   1      34.176  17.295   9.619  0.00  0.00    -0.285 N 
ATOM     28  HN  UNK N   1      35.587  17.658  11.048  1.00  0.00     0.186 HD
ATOM     29  HN  UNK N   1      34.174  18.262   9.292  1.00  0.00     0.188 HD
ENDBRANCH   1  21
TORSDOF 8
ENDMDL
MODEL 3
REMARK VINA RESULT:      -6.5     18.634     21.955
REMARK  8 active torsions:
REMARK  status: ('A' for Active; 'I' for Inactive)
REMARK    1  A    between atoms: C_5  and  N_10 
REMARK    2  A    between atoms: C_13  and  C_16 
REMARK    3  A    between atoms: C_16  and  C_17 
REMARK    4  A    between atoms: C_17  and  O_18 
REMARK    5  A    between atoms: O_18  and  C_19 
REMARK    6  A    between atoms: C_22  and  C_25 
REMARK    7  A    between atoms: C_25  and  O_27 
REMARK    8  A    between atoms: O_27  and  C_28 
ROOT
HETATM    1  N   UNK N   1      36.042  12.921  14.861  0.00  0.00    -0.366 N 
HETATM    2  C   UNK N   1      35.853  11.981  13.763  0.00  0.00     0.125 C 
HETATM    3  C   UNK N   1      35.420  12.697  12.477  0.00  0.00     0.024 C 
HETATM    4  C   UNK N   1      36.380  13.850  12.222  0.00  0.00    -0.009 C 
HETATM    5  C   UNK N   1      36.260  14.842  13.365  0.00  0.00     0.024 C 
HETATM    6  C   UNK N   1      36.758  14.160  14.624  0.00  0.00     0.125 C 
ENDROOT
BRANCH   4   7
HETATM    7  C   UNK N   1      36.164  14.552  10.897  0.00  0.00     0.031 C 
BRANCH   7   8
HETATM    8  C   UNK N   1      35.657  15.943  11.231  0.00  0.00     0.176 C 
BRANCH   8   9
HETATM    9  O   UNK N   1      35.609  16.757  10.124  0.00  0.00    -0.351 OA
BRANCH   9  10
HETATM   10  C   UNK N   1      34.524  16.814   9.313  0.00  0.00     0.068 A 
HETATM   11  C   UNK N   1      34.413  17.869   8.404  0.00  0.00     0.038 A 
HETATM   12  C   UNK N   1      33.278  17.989   7.598  0.00  0.00     0.020 A 
HETATM   13  C   UNK N   1      32.249  17.043   7.673  0.00  0.00     0.039 A 
HETATM   14  C   UNK N   1      32.369  15.964   8.563  0.00  0.00     0.020 A 
HETATM   15  C   UNK N   1      33.496  15.855   9.385  0.00  0.00     0.038 A 
BRANCH  13  16
HETATM   16  C   UNK N   1      31.040  17.208   6.843  0.00  0.00     0.293 C 
HETATM   17  O   UNK N   1      31.138  17.313   5.627  0.00  0.00    -0.259 OA
BRANCH  16  18
HETATM   18  O   UNK N   1      29.820  17.206   7.438  0.00  0.00    -0.318 OA
BRANCH  18  19
HETATM   19  C   UNK N   1      29.378  18.234   8.235  0.00  0.00     0.174 C 
HETATM   20  C   UNK N   1      28.914  17.671   9.563  0.00  0.00     0.034 C 
ENDBRANCH  18  19
ENDBRANCH  16  18
ENDBRANCH  13  16
ENDBRANCH   9  10
ENDBRANCH   8   9
ENDBRANCH   7   8
ENDBRANCH   4   7
BRANCH   1  21
HETATM   21  C   UNK N   1      35.839  12.508  16.210  0.00  0.00     0.117 A 
HETATM   22  C   UNK N   1      35.307  13.383  17.164  0.00  0.00     0.051 A 
HETATM   23  C   UNK N   1      35.071  12.920  18.457  0.00  0.00     0.030 A 
HETATM   24  C   UNK N   1      35.371  11.596  18.768  0.00  0.00     0.022 A 
HETATM   25  C   UNK N   1      35.113  11.070  20.134  0.00  0.00     0.069 C 
HETATM   26  N   UNK N   1      35.894  10.784  17.815  0.00  0.00    -0.304 N 
HETATM   27  N   UNK N   1      36.119  11.226  16.575  0.00  0.00    -0.285 N 
ATOM     28  HN  UNK N   1      36.120   9.817  18.052  1.00  0.00     0.186 HD
ATOM     29  HN  UNK N   1      36.511  10.586  15.883  1.00  0.00     0.188 HD
ENDBRANCH   1  21
TORSDOF 8
ENDMDL
MODEL 4
REMARK VINA RESULT:      -6.3     16.431     19.781
REMARK  8 active torsions:
REMARK  status: ('A' for Active; 'I' for Inactive)
REMARK    1  A    between atoms: C_5  and  N_10 
REMARK    2  A    between atoms: C_13  and  C_16 
REMARK    3  A    between atoms: C_16  and  C_17 
REMARK    4  A    between atoms: C_17  and  O_18 
REMARK    5  A    between atoms: O_18  and  C_19 
REMARK    6  A    between atoms: C_22  and  C_25 
REMARK    7  A    between atoms: C_25  and  O_27 
REMARK    8  A    between atoms: O_27  and  C_28 
ROOT
HETATM    1  N   UNK N   1      35.148  13.521  11.990  0.00  0.00    -0.366 N 
HETATM    2  C   UNK N   1      35.383  12.536  10.940  0.00  0.00     0.125 C 
HETATM    3  C   UNK N   1      34.576  12.859   9.676  0.00  0.00     0.024 C 
HETATM    4  C   UNK N   1      34.824  14.314   9.305  0.00  0.00    -0.009 C 
HETATM    5  C   UNK N   1      34.298  15.195  10.424  0.00  0.00     0.024 C 
HETATM    6  C   UNK N   1      35.142  14.932  11.656  0.00  0.00     0.125 C 
ENDROOT
BRANCH   4   7
HETATM    7  C   UNK N   1      34.211  14.728   7.983  0.00  0.00     0.031 C 
BRANCH   7   8
HETATM    8  C   UNK N   1      34.609  16.176   7.766  0.00  0.00     0.176 C 
BRANCH   8   9
HETATM    9  O   UNK N   1      33.781  16.812   6.870  0.00  0.00    -0.351 OA
BRANCH   9  10
HETATM   10  C   UNK N   1      32.500  17.136   7.173  0.00  0.00     0.068 A 
HETATM   11  C   UNK N   1      32.247  17.887   8.324  0.00  0.00     0.038 A 
HETATM   12  C   UNK N   1      30.934  18.186   8.698  0.00  0.00     0.020 A 
HETATM   13  C   UNK N   1      29.857  17.757   7.912  0.00  0.00     0.039 A 
HETATM   14  C   UNK N   1      30.107  17.029   6.739  0.00  0.00     0.020 A 
HETATM   15  C   UNK N   1      31.421  16.711   6.376  0.00  0.00     0.038 A 
BRANCH  13  16
HETATM   16  C   UNK N   1      28.475  18.047   8.344  0.00  0.00     0.293 C 
HETATM   17  O   UNK N   1      27.837  17.209   8.969  0.00  0.00    -0.259 OA
BRANCH  16  18
HETATM   18  O   UNK N   1      27.936  19.262   8.074  0.00  0.00    -0.318 OA
BRANCH  18  19
HETATM   19  C   UNK N   1      27.704  19.707   6.794  0.00  0.00     0.174 C 
HETATM   20  C   UNK N   1      26.739  20.873   6.839  0.00  0.00     0.034 C 
ENDBRANCH  18  19
ENDBRANCH  16  18
ENDBRANCH  13  16
ENDBRANCH   9  10
ENDBRANCH   8   9
ENDBRANCH   7   8
ENDBRANCH   4   7
BRANCH   1  21
HETATM   21  C   UNK N   1      35.256  13.154  13.363  0.00  0.00     0.117 A 
HETATM   22  C   UNK N   1      36.113  13.841  14.231  0.00  0.00     0.051 A 
HETATM   23  C   UNK N   1      36.143  13.488  15.579  0.00  0.00     0.030 A 
HETATM   24  C   UNK N   1      35.320  12.459  16.028  0.00  0.00     0.022 A 
HETATM   25  C   UNK N   1      35.319  12.072  17.463  0.00  0.00     0.069 C 
HETATM   26  N   UNK N   1      34.511  11.812  15.151  0.00  0.00    -0.304 N 
HETATM   27  N   UNK N   1      34.479  12.151  13.860  0.00  0.00    -0.285 N 
ATOM     28  HN  UNK N   1      33.918  11.053  15.485  1.00  0.00     0.186 HD
ATOM     29  HN  UNK N   1      33.856  11.646  13.229  1.00  0.00     0.188 HD
ENDBRANCH   1  21
TORSDOF 8
ENDMDL
MODEL 5
REMARK VINA RESULT:      -6.3     18.371     21.713
REMARK  8 active torsions:
REMARK  status: ('A' for Active; 'I' for Inactive)
REMARK    1  A    between atoms: C_5  and  N_10 
REMARK    2  A    between atoms: C_13  and  C_16 
REMARK    3  A    between atoms: C_16  and  C_17 
REMARK    4  A    between atoms: C_17  and  O_18 
REMARK    5  A    between atoms: O_18  and  C_19 
REMARK    6  A    between atoms: C_22  and  C_25 
REMARK    7  A    between atoms: C_25  and  O_27 
REMARK    8  A    between atoms: O_27  and  C_28 
ROOT
HETATM    1  N   UNK N   1      36.248  12.922  14.700  0.00  0.00    -0.366 N 
HETATM    2  C   UNK N   1      36.453  11.968  13.616  0.00  0.00     0.125 C 
HETATM    3  C   UNK N   1      36.005  12.545  12.267  0.00  0.00     0.024 C 
HETATM    4  C   UNK N   1      36.647  13.914  12.092  0.00  0.00    -0.009 C 
HETATM    5  C   UNK N   1      36.128  14.836  13.182  0.00  0.00     0.024 C 
HETATM    6  C   UNK N   1      36.631  14.309  14.512  0.00  0.00     0.125 C 
ENDROOT
BRANCH   4   7
HETATM    7  C   UNK N   1      36.416  14.536  10.730  0.00  0.00     0.031 C 
BRANCH   7   8
HETATM    8  C   UNK N   1      35.688  15.844  10.978  0.00  0.00     0.176 C 
BRANCH   8   9
HETATM    9  O   UNK N   1      35.658  16.641   9.858  0.00  0.00    -0.351 OA
BRANCH   9  10
HETATM   10  C   UNK N   1      34.537  16.797   9.111  0.00  0.00     0.068 A 
HETATM   11  C   UNK N   1      33.513  15.852   9.224  0.00  0.00     0.038 A 
HETATM   12  C   UNK N   1      32.371  15.951   8.424  0.00  0.00     0.020 A 
HETATM   13  C   UNK N   1      32.228  17.008   7.518  0.00  0.00     0.039 A 
HETATM   14  C   UNK N   1      33.239  17.976   7.423  0.00  0.00     0.020 A 
HETATM   15  C   UNK N   1      34.392  17.866   8.208  0.00  0.00     0.038 A 
BRANCH  13  16
HETATM   16  C   UNK N   1      31.033  17.073   6.652  0.00  0.00     0.293 C 
HETATM   17  O   UNK N   1      29.942  16.721   7.082  0.00  0.00    -0.259 OA
BRANCH  16  18
HETATM   18  O   UNK N   1      31.152  17.562   5.392  0.00  0.00    -0.318 OA
BRANCH  18  19
HETATM   19  C   UNK N   1      31.443  16.767   4.309  0.00  0.00     0.174 C 
HETATM   20  C   UNK N   1      32.801  17.152   3.760  0.00  0.00     0.034 C 
ENDBRANCH  18  19
ENDBRANCH  16  18
ENDBRANCH  13  16
ENDBRANCH   9  10
ENDBRANCH   8   9
ENDBRANCH   7   8
ENDBRANCH   4   7
BRANCH   1  21
HETATM   21  C   UNK N   1      35.999  12.467  16.027  0.00  0.00     0.117 A 
HETATM   22  C   UNK N   1      35.412  13.304  16.983  0.00  0.00     0.051 A 
HETATM   23  C   UNK N   1      35.132  12.800  18.251  0.00  0.00     0.030 A 
HETATM   24  C   UNK N   1      35.445  11.473  18.537  0.00  0.00     0.022 A 
HETATM   25  C   UNK N   1      35.143  10.903  19.876  0.00  0.00     0.069 C 
HETATM   26  N   UNK N   1      36.022  10.698  17.584  0.00  0.00    -0.304 N 
HETATM   27  N   UNK N   1      36.289  11.180  16.368  0.00  0.00    -0.285 N 
ATOM     28  HN  UNK N   1      36.258   9.730  17.803  1.00  0.00     0.186 HD
ATOM     29  HN  UNK N   1      36.721  10.568  15.674  1.00  0.00     0.188 HD
ENDBRANCH   1  21
TORSDOF 8
ENDMDL
MODEL 6
REMARK VINA RESULT:      -6.3     20.273     23.399
REMARK  8 active torsions:
REMARK  status: ('A' for Active; 'I' for Inactive)
REMARK    1  A    between atoms: C_5  and  N_10 
REMARK    2  A    between atoms: C_13  and  C_16 
REMARK    3  A    between atoms: C_16  and  C_17 
REMARK    4  A    between atoms: C_17  and  O_18 
REMARK    5  A    between atoms: O_18  and  C_19 
REMARK    6  A    between atoms: C_22  and  C_25 
REMARK    7  A    between atoms: C_25  and  O_27 
REMARK    8  A    between atoms: O_27  and  C_28 
ROOT
HETATM    1  N   UNK N   1      35.402  15.111   9.667  0.00  0.00    -0.366 N 
HETATM    2  C   UNK N   1      36.040  15.887  10.724  0.00  0.00     0.125 C 
HETATM    3  C   UNK N   1      35.947  15.173  12.079  0.00  0.00     0.024 C 
HETATM    4  C   UNK N   1      36.433  13.742  11.904  0.00  0.00    -0.009 C 
HETATM    5  C   UNK N   1      35.500  13.028  10.942  0.00  0.00     0.024 C 
HETATM    6  C   UNK N   1      35.644  13.684   9.583  0.00  0.00     0.125 C 
ENDROOT
BRANCH   4   7
HETATM    7  C   UNK N   1      36.544  12.964  13.199  0.00  0.00     0.031 C 
BRANCH   7   8
HETATM    8  C   UNK N   1      35.975  13.861  14.283  0.00  0.00     0.176 C 
BRANCH   8   9
HETATM    9  O   UNK N   1      34.894  13.290  14.914  0.00  0.00    -0.351 OA
BRANCH   9  10
HETATM   10  C   UNK N   1      34.990  12.725  16.142  0.00  0.00     0.068 A 
HETATM   11  C   UNK N   1      34.994  13.552  17.268  0.00  0.00     0.038 A 
HETATM   12  C   UNK N   1      35.152  13.006  18.545  0.00  0.00     0.020 A 
HETATM   13  C   UNK N   1      35.285  11.622  18.713  0.00  0.00     0.039 A 
HETATM   14  C   UNK N   1      35.250  10.784  17.588  0.00  0.00     0.020 A 
HETATM   15  C   UNK N   1      35.113  11.333  16.309  0.00  0.00     0.038 A 
BRANCH  13  16
HETATM   16  C   UNK N   1      35.492  11.066  20.066  0.00  0.00     0.293 C 
HETATM   17  O   UNK N   1      34.547  10.601  20.691  0.00  0.00    -0.259 OA
BRANCH  16  18
HETATM   18  O   UNK N   1      36.743  11.043  20.590  0.00  0.00    -0.318 OA
BRANCH  18  19
HETATM   19  C   UNK N   1      37.334   9.893  21.056  0.00  0.00     0.174 C 
HETATM   20  C   UNK N   1      37.583   8.953  19.894  0.00  0.00     0.034 C 
ENDBRANCH  18  19
ENDBRANCH  16  18
ENDBRANCH  13  16
ENDBRANCH   9  10
ENDBRANCH   8   9
ENDBRANCH   7   8
ENDBRANCH   4   7
BRANCH   1  21
HETATM   21  C   UNK N   1      34.826  15.763   8.537  0.00  0.00     0.117 A 
HETATM   22  C   UNK N   1      34.200  17.009   8.660  0.00  0.00     0.051 A 
HETATM   23  C   UNK N   1      33.704  17.637   7.520  0.00  0.00     0.030 A 
HETATM   24  C   UNK N   1      33.843  17.009   6.285  0.00  0.00     0.022 A 
HETATM   25  C   UNK N   1      33.338  17.663   5.049  0.00  0.00     0.069 C 
HETATM   26  N   UNK N   1      34.449  15.797   6.212  0.00  0.00    -0.304 N 
HETATM   27  N   UNK N   1      34.927  15.194   7.303  0.00  0.00    -0.285 N 
ATOM     28  HN  UNK N   1      34.539  15.337   5.305  1.00  0.00     0.186 HD
ATOM     29  HN  UNK N   1      35.379  14.284   7.211  1.00  0.00     0.188 HD
ENDBRANCH   1  21
TORSDOF 8
ENDMDL
MODEL 7
REMARK VINA RESULT:      -6.3     13.144     15.397
REMARK  8 active torsions:
REMARK  status: ('A' for Active; 'I' for Inactive)
REMARK    1  A    between atoms: C_5  and  N_10 
REMARK    2  A    between atoms: C_13  and  C_16 
REMARK    3  A    between atoms: C_16  and  C_17 
REMARK    4  A    between atoms: C_17  and  O_18 
REMARK    5  A    between atoms: O_18  and  C_19 
REMARK    6  A    between atoms: C_22  and  C_25 
REMARK    7  A    between atoms: C_25  and  O_27 
REMARK    8  A    between atoms: O_27  and  C_28 
ROOT
HETATM    1  N   UNK N   1      27.536  18.175   4.562  0.00  0.00    -0.366 N 
HETATM    2  C   UNK N   1      26.771  17.215   3.775  0.00  0.00     0.125 C 
HETATM    3  C   UNK N   1      25.266  17.343   4.039  0.00  0.00     0.024 C 
HETATM    4  C   UNK N   1      24.873  18.806   3.888  0.00  0.00    -0.009 C 
HETATM    5  C   UNK N   1      25.598  19.615   4.949  0.00  0.00     0.024 C 
HETATM    6  C   UNK N   1      27.082  19.550   4.647  0.00  0.00     0.125 C 
ENDROOT
BRANCH   4   7
HETATM    7  C   UNK N   1      23.381  19.057   3.968  0.00  0.00     0.031 C 
BRANCH   7   8
HETATM    8  C   UNK N   1      22.760  17.765   4.464  0.00  0.00     0.176 C 
BRANCH   8   9
HETATM    9  O   UNK N   1      21.738  17.991   5.357  0.00  0.00    -0.351 OA
BRANCH   9  10
HETATM   10  C   UNK N   1      21.488  17.156   6.396  0.00  0.00     0.068 A 
HETATM   11  C   UNK N   1      22.128  15.915   6.435  0.00  0.00     0.038 A 
HETATM   12  C   UNK N   1      21.846  15.007   7.459  0.00  0.00     0.020 A 
HETATM   13  C   UNK N   1      20.938  15.339   8.472  0.00  0.00     0.039 A 
HETATM   14  C   UNK N   1      20.315  16.596   8.454  0.00  0.00     0.020 A 
HETATM   15  C   UNK N   1      20.581  17.497   7.417  0.00  0.00     0.038 A 
BRANCH  13  16
HETATM   16  C   UNK N   1      20.622  14.352   9.524  0.00  0.00     0.293 C 
HETATM   17  O   UNK N   1      19.456  14.086   9.788  0.00  0.00    -0.259 OA
BRANCH  16  18
HETATM   18  O   UNK N   1      21.635  13.718  10.166  0.00  0.00    -0.318 OA
BRANCH  18  19
HETATM   19  C   UNK N   1      21.578  12.391  10.521  0.00  0.00     0.174 C 
HETATM   20  C   UNK N   1      22.983  11.827  10.568  0.00  0.00     0.034 C 
ENDBRANCH  18  19
ENDBRANCH  16  18
ENDBRANCH  13  16
ENDBRANCH   9  10
ENDBRANCH   8   9
ENDBRANCH   7   8
ENDBRANCH   4   7
BRANCH   1  21
HETATM   21  C   UNK N   1      28.871  17.881   4.964  0.00  0.00     0.117 A 
HETATM   22  C   UNK N   1      29.174  17.553   6.291  0.00  0.00     0.051 A 
HETATM   23  C   UNK N   1      30.483  17.214   6.628  0.00  0.00     0.030 A 
HETATM   24  C   UNK N   1      31.459  17.212   5.635  0.00  0.00     0.022 A 
HETATM   25  C   UNK N   1      32.860  16.840   5.962  0.00  0.00     0.069 C 
HETATM   26  N   UNK N   1      31.125  17.546   4.363  0.00  0.00    -0.304 N 
HETATM   27  N   UNK N   1      29.871  17.868   4.038  0.00  0.00    -0.285 N 
ATOM     28  HN  UNK N   1      31.847  17.552   3.642  1.00  0.00     0.186 HD
ATOM     29  HN  UNK N   1      29.654  18.111   3.070  1.00  0.00     0.188 HD
ENDBRANCH   1  21
TORSDOF 8
ENDMDL
MODEL 8
REMARK VINA RESULT:      -6.2     16.516     19.927
REMARK  8 active torsions:
REMARK  status: ('A' for Active; 'I' for Inactive)
REMARK    1  A    between atoms: C_5  and  N_10 
REMARK    2  A    between atoms: C_13  and  C_16 
REMARK    3  A    between atoms: C_16  and  C_17 
REMARK    4  A    between atoms: C_17  and  O_18 
REMARK    5  A    between atoms: O_18  and  C_19 
REMARK    6  A    between atoms: C_22  and  C_25 
REMARK    7  A    between atoms: C_25  and  O_27 
REMARK    8  A    between atoms: O_27  and  C_28 
ROOT
HETATM    1  N   UNK N   1      35.340  13.601  12.661  0.00  0.00    -0.366 N 
HETATM    2  C   UNK N   1      35.101  12.768  11.489  0.00  0.00     0.125 C 
HETATM    3  C   UNK N   1      34.551  13.591  10.317  0.00  0.00     0.024 C 
HETATM    4  C   UNK N   1      35.452  14.801  10.114  0.00  0.00    -0.009 C 
HETATM    5  C   UNK N   1      35.386  15.669  11.358  0.00  0.00     0.024 C 
HETATM    6  C   UNK N   1      35.996  14.884  12.503  0.00  0.00     0.125 C 
ENDROOT
BRANCH   4   7
HETATM    7  C   UNK N   1      35.117  15.622   8.886  0.00  0.00     0.031 C 
BRANCH   7   8
HETATM    8  C   UNK N   1      34.738  17.003   9.389  0.00  0.00     0.176 C 
BRANCH   8   9
HETATM    9  O   UNK N   1      34.393  17.852   8.364  0.00  0.00    -0.351 OA
BRANCH   9  10
HETATM   10  C   UNK N   1      33.276  17.668   7.619  0.00  0.00     0.068 A 
HETATM   11  C   UNK N   1      32.036  17.612   8.262  0.00  0.00     0.038 A 
HETATM   12  C   UNK N   1      30.872  17.364   7.530  0.00  0.00     0.020 A 
HETATM   13  C   UNK N   1      30.929  17.192   6.141  0.00  0.00     0.039 A 
HETATM   14  C   UNK N   1      32.167  17.278   5.487  0.00  0.00     0.020 A 
HETATM   15  C   UNK N   1      33.336  17.505   6.222  0.00  0.00     0.038 A 
BRANCH  13  16
HETATM   16  C   UNK N   1      29.694  16.890   5.390  0.00  0.00     0.293 C 
HETATM   17  O   UNK N   1      29.089  15.846   5.595  0.00  0.00    -0.259 OA
BRANCH  16  18
HETATM   18  O   UNK N   1      29.220  17.798   4.500  0.00  0.00    -0.318 OA
BRANCH  18  19
HETATM   19  C   UNK N   1      27.951  18.321   4.574  0.00  0.00     0.174 C 
HETATM   20  C   UNK N   1      28.038  19.831   4.658  0.00  0.00     0.034 C 
ENDBRANCH  18  19
ENDBRANCH  16  18
ENDBRANCH  13  16
ENDBRANCH   9  10
ENDBRANCH   8   9
ENDBRANCH   7   8
ENDBRANCH   4   7
BRANCH   1  21
HETATM   21  C   UNK N   1      35.251  13.048  13.973  0.00  0.00     0.117 A 
HETATM   22  C   UNK N   1      34.540  11.868  14.215  0.00  0.00     0.051 A 
HETATM   23  C   UNK N   1      34.528  11.331  15.501  0.00  0.00     0.030 A 
HETATM   24  C   UNK N   1      35.226  11.984  16.514  0.00  0.00     0.022 A 
HETATM   25  C   UNK N   1      35.245  11.426  17.892  0.00  0.00     0.069 C 
HETATM   26  N   UNK N   1      35.895  13.132  16.238  0.00  0.00    -0.304 N 
HETATM   27  N   UNK N   1      35.909  13.646  15.005  0.00  0.00    -0.285 N 
ATOM     28  HN  UNK N   1      36.396  13.610  16.987  1.00  0.00     0.186 HD
ATOM     29  HN  UNK N   1      36.425  14.509  14.833  1.00  0.00     0.188 HD
ENDBRANCH   1  21
TORSDOF 8
ENDMDL
MODEL 9
REMARK VINA RESULT:      -6.2     15.497     18.952
REMARK  8 active torsions:
REMARK  status: ('A' for Active; 'I' for Inactive)
REMARK    1  A    between atoms: C_5  and  N_10 
REMARK    2  A    between atoms: C_13  and  C_16 
REMARK    3  A    between atoms: C_16  and  C_17 
REMARK    4  A    between atoms: C_17  and  O_18 
REMARK    5  A    between atoms: O_18  and  C_19 
REMARK    6  A    between atoms: C_22  and  C_25 
REMARK    7  A    between atoms: C_25  and  O_27 
REMARK    8  A    between atoms: O_27  and  C_28 
ROOT
HETATM    1  N   UNK N   1      35.019  14.104  11.696  0.00  0.00    -0.366 N 
HETATM    2  C   UNK N   1      34.444  13.717  10.413  0.00  0.00     0.125 C 
HETATM    3  C   UNK N   1      33.920  14.935   9.642  0.00  0.00     0.024 C 
HETATM    4  C   UNK N   1      35.018  15.987   9.600  0.00  0.00    -0.009 C 
HETATM    5  C   UNK N   1      35.315  16.435  11.020  0.00  0.00     0.024 C 
HETATM    6  C   UNK N   1      35.902  15.252  11.765  0.00  0.00     0.125 C 
ENDROOT
BRANCH   4   7
HETATM    7  C   UNK N   1      34.692  17.186   8.732  0.00  0.00     0.031 C 
BRANCH   7   8
HETATM    8  C   UNK N   1      34.644  16.675   7.304  0.00  0.00     0.176 C 
BRANCH   8   9
HETATM    9  O   UNK N   1      34.194  17.633   6.426  0.00  0.00    -0.351 OA
BRANCH   9  10
HETATM   10  C   UNK N   1      33.029  17.500   5.746  0.00  0.00     0.068 A 
HETATM   11  C   UNK N   1      31.859  17.220   6.457  0.00  0.00     0.038 A 
HETATM   12  C   UNK N   1      30.653  17.017   5.781  0.00  0.00     0.020 A 
HETATM   13  C   UNK N   1      30.597  17.115   4.385  0.00  0.00     0.039 A 
HETATM   14  C   UNK N   1      31.762  17.425   3.668  0.00  0.00     0.020 A 
HETATM   15  C   UNK N   1      32.974  17.608   4.344  0.00  0.00     0.038 A 
BRANCH  13  16
HETATM   16  C   UNK N   1      29.323  16.857   3.684  0.00  0.00     0.293 C 
HETATM   17  O   UNK N   1      29.311  16.205   2.648  0.00  0.00    -0.259 OA
BRANCH  16  18
HETATM   18  O   UNK N   1      28.164  17.317   4.221  0.00  0.00    -0.318 OA
BRANCH  18  19
HETATM   19  C   UNK N   1      27.797  18.640   4.177  0.00  0.00     0.174 C 
HETATM   20  C   UNK N   1      27.616  19.155   5.590  0.00  0.00     0.034 C 
ENDBRANCH  18  19
ENDBRANCH  16  18
ENDBRANCH  13  16
ENDBRANCH   9  10
ENDBRANCH   8   9
ENDBRANCH   7   8
ENDBRANCH   4   7
BRANCH   1  21
HETATM   21  C   UNK N   1      35.002  13.200  12.799  0.00  0.00     0.117 A 
HETATM   22  C   UNK N   1      35.519  13.569  14.046  0.00  0.00     0.051 A 
HETATM   23  C   UNK N   1      35.429  12.676  15.112  0.00  0.00     0.030 A 
HETATM   24  C   UNK N   1      34.826  11.437  14.909  0.00  0.00     0.022 A 
HETATM   25  C   UNK N   1      34.700  10.471  16.031  0.00  0.00     0.069 C 
HETATM   26  N   UNK N   1      34.346  11.116  13.681  0.00  0.00    -0.304 N 
HETATM   27  N   UNK N   1      34.430  11.972  12.659  0.00  0.00    -0.285 N 
ATOM     28  HN  UNK N   1      33.914  10.203  13.536  1.00  0.00     0.186 HD
ATOM     29  HN  UNK N   1      34.055  11.698  11.750  1.00  0.00     0.188 HD
ENDBRANCH   1  21
TORSDOF 8
ENDMDL
