MODEL 1
REMARK VINA RESULT:      -6.5      0.000      0.000
REMARK  9 active torsions:
REMARK  status: ('A' for Active; 'I' for Inactive)
REMARK    1  A    between atoms: C_5  and  N_10 
REMARK    2  A    between atoms: C_13  and  C_16 
REMARK    3  A    between atoms: C_16  and  C_17 
REMARK    4  A    between atoms: C_17  and  C_18 
REMARK    5  A    between atoms: C_18  and  O_19 
REMARK    6  A    between atoms: O_19  and  C_20 
REMARK    7  A    between atoms: C_23  and  C_26 
REMARK    8  A    between atoms: C_26  and  O_28 
REMARK    9  A    between atoms: O_28  and  C_29 
ROOT
HETATM    1  N   UNK N   1      28.523  16.229   4.517  0.00  0.00    -0.366 N 
HETATM    2  C   UNK N   1      28.811  15.265   5.549  0.00  0.00     0.125 C 
HETATM    3  C   UNK N   1      30.187  14.723   5.286  0.00  0.00     0.024 C 
HETATM    4  C   UNK N   1      30.091  14.012   3.947  0.00  0.00    -0.012 C 
HETATM    5  C   UNK N   1      29.872  15.037   2.835  0.00  0.00     0.024 C 
HETATM    6  C   UNK N   1      28.571  15.810   3.124  0.00  0.00     0.125 C 
ENDROOT
BRANCH   4   7
HETATM    7  C   UNK N   1      31.259  13.062   3.737  0.00  0.00     0.007 C 
BRANCH   7   8
HETATM    8  C   UNK N   1      31.812  13.160   2.307  0.00  0.00     0.027 C 
BRANCH   8   9
HETATM    9  C   UNK N   1      33.303  13.545   2.253  0.00  0.00     0.175 C 
BRANCH   9  10
HETATM   10  O   UNK N   1      33.447  14.912   2.269  0.00  0.00    -0.351 OA
BRANCH  10  11
HETATM   11  C   UNK N   1      33.604  15.591   3.425  0.00  0.00     0.068 A 
HETATM   12  C   UNK N   1      34.381  15.044   4.444  0.00  0.00     0.038 A 
HETATM   13  C   UNK N   1      34.480  15.704   5.671  0.00  0.00     0.020 A 
HETATM   14  C   UNK N   1      33.801  16.916   5.890  0.00  0.00     0.039 A 
HETATM   15  C   UNK N   1      33.048  17.469   4.849  0.00  0.00     0.020 A 
HETATM   16  C   UNK N   1      32.953  16.817   3.630  0.00  0.00     0.038 A 
BRANCH  14  17
HETATM   17  C   UNK N   1      33.826  17.625   7.200  0.00  0.00     0.293 C 
HETATM   18  O   UNK N   1      34.650  18.513   7.362  0.00  0.00    -0.259 OA
BRANCH  17  19
HETATM   19  O   UNK N   1      32.975  17.350   8.224  0.00  0.00    -0.318 OA
BRANCH  19  20
HETATM   20  C   UNK N   1      31.761  17.955   8.437  0.00  0.00     0.174 C 
HETATM   21  C   UNK N   1      30.703  16.898   8.650  0.00  0.00     0.034 C 
ENDBRANCH  19  20
ENDBRANCH  17  19
ENDBRANCH  14  17
ENDBRANCH  10  11
ENDBRANCH   9  10
ENDBRANCH   8   9
ENDBRANCH   7   8
ENDBRANCH   4   7
BRANCH   1  22
HETATM   22  C   UNK N   1      28.250  17.574   4.889  0.00  0.00     0.117 A 
HETATM   23  C   UNK N   1      28.023  17.894   6.232  0.00  0.00     0.051 A 
HETATM   24  C   UNK N   1      27.746  19.205   6.586  0.00  0.00     0.030 A 
HETATM   25  C   UNK N   1      27.699  20.170   5.589  0.00  0.00     0.022 A 
HETATM   26  C   UNK N   1      27.399  21.581   5.944  0.00  0.00     0.069 C 
HETATM   27  N   UNK N   1      27.928  19.822   4.295  0.00  0.00    -0.304 N 
HETATM   28  N   UNK N   1      28.195  18.556   3.951  0.00  0.00    -0.285 N 
ATOM     29  HN  UNK N   1      27.894  20.540   3.571  1.00  0.00     0.186 HD
ATOM     30  HN  UNK N   1      28.361  18.325   2.972  1.00  0.00     0.188 HD
ENDBRANCH   1  22
TORSDOF 9
ENDMDL
MODEL 2
REMARK VINA RESULT:      -6.4     12.589     15.696
REMARK  9 active torsions:
REMARK  status: ('A' for Active; 'I' for Inactive)
REMARK    1  A    between atoms: C_5  and  N_10 
REMARK    2  A    between atoms: C_13  and  C_16 
REMARK    3  A    between atoms: C_16  and  C_17 
REMARK    4  A    between atoms: C_17  and  C_18 
REMARK    5  A    between atoms: C_18  and  O_19 
REMARK    6  A    between atoms: O_19  and  C_20 
REMARK    7  A    between atoms: C_23  and  C_26 
REMARK    8  A    between atoms: C_26  and  O_28 
REMARK    9  A    between atoms: O_28  and  C_29 
ROOT
HETATM    1  N   UNK N   1      30.124  26.264  -5.530  0.00  0.00    -0.366 N 
HETATM    2  C   UNK N   1      30.641  27.334  -4.715  0.00  0.00     0.125 C 
HETATM    3  C   UNK N   1      29.492  28.245  -4.389  0.00  0.00     0.024 C 
HETATM    4  C   UNK N   1      29.033  28.808  -5.723  0.00  0.00    -0.012 C 
HETATM    5  C   UNK N   1      28.403  27.696  -6.561  0.00  0.00     0.024 C 
HETATM    6  C   UNK N   1      29.452  26.588  -6.780  0.00  0.00     0.125 C 
ENDROOT
BRANCH   4   7
HETATM    7  C   UNK N   1      28.176  30.049  -5.538  0.00  0.00     0.007 C 
BRANCH   7   8
HETATM    8  C   UNK N   1      27.713  30.199  -4.080  0.00  0.00     0.027 C 
BRANCH   8   9
HETATM    9  C   UNK N   1      26.196  30.003  -3.897  0.00  0.00     0.175 C 
BRANCH   9  10
HETATM   10  O   UNK N   1      25.941  28.834  -3.219  0.00  0.00    -0.351 OA
BRANCH  10  11
HETATM   11  C   UNK N   1      25.890  27.646  -3.858  0.00  0.00     0.068 A 
HETATM   12  C   UNK N   1      26.616  26.565  -3.362  0.00  0.00     0.038 A 
HETATM   13  C   UNK N   1      26.630  25.358  -4.064  0.00  0.00     0.020 A 
HETATM   14  C   UNK N   1      25.919  25.222  -5.271  0.00  0.00     0.039 A 
HETATM   15  C   UNK N   1      25.172  26.306  -5.742  0.00  0.00     0.020 A 
HETATM   16  C   UNK N   1      25.153  27.503  -5.044  0.00  0.00     0.038 A 
BRANCH  14  17
HETATM   17  C   UNK N   1      25.953  23.976  -6.087  0.00  0.00     0.293 C 
HETATM   18  O   UNK N   1      25.070  23.149  -5.918  0.00  0.00    -0.259 OA
BRANCH  17  19
HETATM   19  O   UNK N   1      26.906  23.710  -7.020  0.00  0.00    -0.318 OA
BRANCH  19  20
HETATM   20  C   UNK N   1      26.989  24.289  -8.263  0.00  0.00     0.174 C 
HETATM   21  C   UNK N   1      25.618  24.313  -8.897  0.00  0.00     0.034 C 
ENDBRANCH  19  20
ENDBRANCH  17  19
ENDBRANCH  14  17
ENDBRANCH  10  11
ENDBRANCH   9  10
ENDBRANCH   8   9
ENDBRANCH   7   8
ENDBRANCH   4   7
BRANCH   1  22
HETATM   22  C   UNK N   1      30.240  24.926  -5.064  0.00  0.00     0.117 A 
HETATM   23  C   UNK N   1      30.922  24.660  -3.871  0.00  0.00     0.051 A 
HETATM   24  C   UNK N   1      31.042  23.352  -3.429  0.00  0.00     0.030 A 
HETATM   25  C   UNK N   1      30.480  22.335  -4.189  0.00  0.00     0.022 A 
HETATM   26  C   UNK N   1      30.599  20.926  -3.738  0.00  0.00     0.069 C 
HETATM   27  N   UNK N   1      29.822  22.633  -5.341  0.00  0.00    -0.304 N 
HETATM   28  N   UNK N   1      29.706  23.896  -5.770  0.00  0.00    -0.285 N 
ATOM     29  HN  UNK N   1      29.410  21.878  -5.890  1.00  0.00     0.186 HD
ATOM     30  HN  UNK N   1      29.208  24.087  -6.639  1.00  0.00     0.188 HD
ENDBRANCH   1  22
TORSDOF 9
ENDMDL
MODEL 3
REMARK VINA RESULT:      -6.3     11.648     14.127
REMARK  9 active torsions:
REMARK  status: ('A' for Active; 'I' for Inactive)
REMARK    1  A    between atoms: C_5  and  N_10 
REMARK    2  A    between atoms: C_13  and  C_16 
REMARK    3  A    between atoms: C_16  and  C_17 
REMARK    4  A    between atoms: C_17  and  C_18 
REMARK    5  A    between atoms: C_18  and  O_19 
REMARK    6  A    between atoms: O_19  and  C_20 
REMARK    7  A    between atoms: C_23  and  C_26 
REMARK    8  A    between atoms: C_26  and  O_28 
REMARK    9  A    between atoms: O_28  and  C_29 
ROOT
HETATM    1  N   UNK N   1      28.747  29.099  -4.315  0.00  0.00    -0.366 N 
HETATM    2  C   UNK N   1      27.750  29.661  -5.190  0.00  0.00     0.125 C 
HETATM    3  C   UNK N   1      26.964  28.519  -5.769  0.00  0.00     0.024 C 
HETATM    4  C   UNK N   1      27.961  27.722  -6.591  0.00  0.00    -0.012 C 
HETATM    5  C   UNK N   1      28.973  27.049  -5.664  0.00  0.00     0.024 C 
HETATM    6  C   UNK N   1      29.700  28.139  -4.853  0.00  0.00     0.125 C 
ENDROOT
BRANCH   4   7
HETATM    7  C   UNK N   1      27.259  26.795  -7.571  0.00  0.00     0.007 C 
BRANCH   7   8
HETATM    8  C   UNK N   1      25.952  26.242  -6.981  0.00  0.00     0.027 C 
BRANCH   8   9
HETATM    9  C   UNK N   1      25.870  24.704  -7.010  0.00  0.00     0.175 C 
BRANCH   9  10
HETATM   10  O   UNK N   1      25.811  24.202  -5.731  0.00  0.00    -0.351 OA
BRANCH  10  11
HETATM   11  C   UNK N   1      26.930  23.985  -5.008  0.00  0.00     0.068 A 
HETATM   12  C   UNK N   1      28.067  23.479  -5.633  0.00  0.00     0.038 A 
HETATM   13  C   UNK N   1      29.200  23.176  -4.874  0.00  0.00     0.020 A 
HETATM   14  C   UNK N   1      29.204  23.375  -3.481  0.00  0.00     0.039 A 
HETATM   15  C   UNK N   1      28.066  23.911  -2.870  0.00  0.00     0.020 A 
HETATM   16  C   UNK N   1      26.943  24.216  -3.623  0.00  0.00     0.038 A 
BRANCH  14  17
HETATM   17  C   UNK N   1      30.364  23.011  -2.622  0.00  0.00     0.293 C 
HETATM   18  O   UNK N   1      30.227  23.066  -1.409  0.00  0.00    -0.259 OA
BRANCH  17  19
HETATM   19  O   UNK N   1      31.568  22.606  -3.109  0.00  0.00    -0.318 OA
BRANCH  19  20
HETATM   20  C   UNK N   1      31.947  21.303  -3.318  0.00  0.00     0.174 C 
HETATM   21  C   UNK N   1      33.414  21.148  -2.992  0.00  0.00     0.034 C 
ENDBRANCH  19  20
ENDBRANCH  17  19
ENDBRANCH  14  17
ENDBRANCH  10  11
ENDBRANCH   9  10
ENDBRANCH   8   9
ENDBRANCH   7   8
ENDBRANCH   4   7
BRANCH   1  22
HETATM   22  C   UNK N   1      28.738  29.460  -2.940  0.00  0.00     0.117 A 
HETATM   23  C   UNK N   1      29.948  29.644  -2.259  0.00  0.00     0.051 A 
HETATM   24  C   UNK N   1      29.931  29.985  -0.916  0.00  0.00     0.030 A 
HETATM   25  C   UNK N   1      28.707  30.132  -0.279  0.00  0.00     0.022 A 
HETATM   26  C   UNK N   1      28.664  30.492   1.161  0.00  0.00     0.069 C 
HETATM   27  N   UNK N   1      27.553  29.948  -0.974  0.00  0.00    -0.304 N 
HETATM   28  N   UNK N   1      27.566  29.618  -2.271  0.00  0.00    -0.285 N 
ATOM     29  HN  UNK N   1      26.659  30.061  -0.496  1.00  0.00     0.186 HD
ATOM     30  HN  UNK N   1      26.684  29.485  -2.766  1.00  0.00     0.188 HD
ENDBRANCH   1  22
TORSDOF 9
ENDMDL
MODEL 4
REMARK VINA RESULT:      -6.2     11.846     14.418
REMARK  9 active torsions:
REMARK  status: ('A' for Active; 'I' for Inactive)
REMARK    1  A    between atoms: C_5  and  N_10 
REMARK    2  A    between atoms: C_13  and  C_16 
REMARK    3  A    between atoms: C_16  and  C_17 
REMARK    4  A    between atoms: C_17  and  C_18 
REMARK    5  A    between atoms: C_18  and  O_19 
REMARK    6  A    between atoms: O_19  and  C_20 
REMARK    7  A    between atoms: C_23  and  C_26 
REMARK    8  A    between atoms: C_26  and  O_28 
REMARK    9  A    between atoms: O_28  and  C_29 
ROOT
HETATM    1  N   UNK N   1      28.146  29.468  -4.019  0.00  0.00    -0.366 N 
HETATM    2  C   UNK N   1      27.045  29.060  -3.182  0.00  0.00     0.125 C 
HETATM    3  C   UNK N   1      26.526  27.759  -3.726  0.00  0.00     0.024 C 
HETATM    4  C   UNK N   1      26.006  28.083  -5.116  0.00  0.00    -0.012 C 
HETATM    5  C   UNK N   1      27.177  28.432  -6.034  0.00  0.00     0.024 C 
HETATM    6  C   UNK N   1      27.922  29.646  -5.446  0.00  0.00     0.125 C 
ENDROOT
BRANCH   4   7
HETATM    7  C   UNK N   1      25.077  26.994  -5.629  0.00  0.00     0.007 C 
BRANCH   7   8
HETATM    8  C   UNK N   1      25.573  26.417  -6.964  0.00  0.00     0.027 C 
BRANCH   8   9
HETATM    9  C   UNK N   1      25.939  24.922  -6.885  0.00  0.00     0.175 C 
BRANCH   9  10
HETATM   10  O   UNK N   1      25.791  24.459  -5.599  0.00  0.00    -0.351 OA
BRANCH  10  11
HETATM   11  C   UNK N   1      26.854  24.066  -4.866  0.00  0.00     0.068 A 
HETATM   12  C   UNK N   1      26.799  24.144  -3.476  0.00  0.00     0.038 A 
HETATM   13  C   UNK N   1      27.924  23.815  -2.717  0.00  0.00     0.020 A 
HETATM   14  C   UNK N   1      29.116  23.406  -3.343  0.00  0.00     0.039 A 
HETATM   15  C   UNK N   1      29.149  23.304  -4.737  0.00  0.00     0.020 A 
HETATM   16  C   UNK N   1      28.031  23.625  -5.491  0.00  0.00     0.038 A 
BRANCH  14  17
HETATM   17  C   UNK N   1      30.360  23.104  -2.581  0.00  0.00     0.293 C 
HETATM   18  O   UNK N   1      30.305  23.099  -1.360  0.00  0.00    -0.259 OA
BRANCH  17  19
HETATM   19  O   UNK N   1      31.555  22.821  -3.166  0.00  0.00    -0.318 OA
BRANCH  19  20
HETATM   20  C   UNK N   1      32.074  21.563  -3.352  0.00  0.00     0.174 C 
HETATM   21  C   UNK N   1      33.286  21.648  -4.250  0.00  0.00     0.034 C 
ENDBRANCH  19  20
ENDBRANCH  17  19
ENDBRANCH  14  17
ENDBRANCH  10  11
ENDBRANCH   9  10
ENDBRANCH   8   9
ENDBRANCH   7   8
ENDBRANCH   4   7
BRANCH   1  22
HETATM   22  C   UNK N   1      29.431  29.633  -3.433  0.00  0.00     0.117 A 
HETATM   23  C   UNK N   1      30.098  28.529  -2.890  0.00  0.00     0.051 A 
HETATM   24  C   UNK N   1      31.344  28.701  -2.311  0.00  0.00     0.030 A 
HETATM   25  C   UNK N   1      31.900  29.972  -2.283  0.00  0.00     0.022 A 
HETATM   26  C   UNK N   1      33.232  30.181  -1.662  0.00  0.00     0.069 C 
HETATM   27  N   UNK N   1      31.223  31.021  -2.822  0.00  0.00    -0.304 N 
HETATM   28  N   UNK N   1      30.018  30.858  -3.383  0.00  0.00    -0.285 N 
ATOM     29  HN  UNK N   1      31.641  31.951  -2.799  1.00  0.00     0.186 HD
ATOM     30  HN  UNK N   1      29.534  31.664  -3.778  1.00  0.00     0.188 HD
ENDBRANCH   1  22
TORSDOF 9
ENDMDL
MODEL 5
REMARK VINA RESULT:      -6.2      1.540      4.504
REMARK  9 active torsions:
REMARK  status: ('A' for Active; 'I' for Inactive)
REMARK    1  A    between atoms: C_5  and  N_10 
REMARK    2  A    between atoms: C_13  and  C_16 
REMARK    3  A    between atoms: C_16  and  C_17 
REMARK    4  A    between atoms: C_17  and  C_18 
REMARK    5  A    between atoms: C_18  and  O_19 
REMARK    6  A    between atoms: O_19  and  C_20 
REMARK    7  A    between atoms: C_23  and  C_26 
REMARK    8  A    between atoms: C_26  and  O_28 
REMARK    9  A    between atoms: O_28  and  C_29 
ROOT
HETATM    1  N   UNK N   1      28.217  17.452   6.349  0.00  0.00    -0.366 N 
HETATM    2  C   UNK N   1      28.343  17.942   7.698  0.00  0.00     0.125 C 
HETATM    3  C   UNK N   1      29.807  18.145   7.968  0.00  0.00     0.024 C 
HETATM    4  C   UNK N   1      30.428  16.762   7.876  0.00  0.00    -0.012 C 
HETATM    5  C   UNK N   1      30.378  16.270   6.430  0.00  0.00     0.024 C 
HETATM    6  C   UNK N   1      28.907  16.226   5.974  0.00  0.00     0.125 C 
ENDROOT
BRANCH   4   7
HETATM    7  C   UNK N   1      31.800  16.725   8.530  0.00  0.00     0.007 C 
BRANCH   7   8
HETATM    8  C   UNK N   1      32.561  18.042   8.312  0.00  0.00     0.027 C 
BRANCH   8   9
HETATM    9  C   UNK N   1      34.054  17.840   7.986  0.00  0.00     0.175 C 
BRANCH   9  10
HETATM   10  O   UNK N   1      34.293  18.094   6.656  0.00  0.00    -0.351 OA
BRANCH  10  11
HETATM   11  C   UNK N   1      33.987  17.190   5.700  0.00  0.00     0.068 A 
HETATM   12  C   UNK N   1      33.208  17.577   4.612  0.00  0.00     0.038 A 
HETATM   13  C   UNK N   1      32.822  16.627   3.663  0.00  0.00     0.020 A 
HETATM   14  C   UNK N   1      33.211  15.281   3.797  0.00  0.00     0.039 A 
HETATM   15  C   UNK N   1      34.016  14.913   4.878  0.00  0.00     0.020 A 
HETATM   16  C   UNK N   1      34.404  15.855   5.818  0.00  0.00     0.038 A 
BRANCH  14  17
HETATM   17  C   UNK N   1      32.773  14.221   2.846  0.00  0.00     0.293 C 
HETATM   18  O   UNK N   1      33.437  14.038   1.836  0.00  0.00    -0.259 OA
BRANCH  17  19
HETATM   19  O   UNK N   1      31.682  13.434   3.042  0.00  0.00    -0.318 OA
BRANCH  19  20
HETATM   20  C   UNK N   1      30.376  13.859   3.014  0.00  0.00     0.174 C 
HETATM   21  C   UNK N   1      29.577  13.095   4.043  0.00  0.00     0.034 C 
ENDBRANCH  19  20
ENDBRANCH  17  19
ENDBRANCH  14  17
ENDBRANCH  10  11
ENDBRANCH   9  10
ENDBRANCH   8   9
ENDBRANCH   7   8
ENDBRANCH   4   7
BRANCH   1  22
HETATM   22  C   UNK N   1      27.464  18.208   5.409  0.00  0.00     0.117 A 
HETATM   23  C   UNK N   1      26.579  17.559   4.540  0.00  0.00     0.051 A 
HETATM   24  C   UNK N   1      25.858  18.302   3.620  0.00  0.00     0.030 A 
HETATM   25  C   UNK N   1      26.036  19.678   3.584  0.00  0.00     0.022 A 
HETATM   26  C   UNK N   1      25.277  20.494   2.602  0.00  0.00     0.069 C 
HETATM   27  N   UNK N   1      26.903  20.274   4.446  0.00  0.00    -0.304 N 
HETATM   28  N   UNK N   1      27.602  19.558   5.336  0.00  0.00    -0.285 N 
ATOM     29  HN  UNK N   1      27.024  21.286   4.413  1.00  0.00     0.186 HD
ATOM     30  HN  UNK N   1      28.245  20.032   5.969  1.00  0.00     0.188 HD
ENDBRANCH   1  22
TORSDOF 9
ENDMDL
MODEL 6
REMARK VINA RESULT:      -6.1      1.738      4.832
REMARK  9 active torsions:
REMARK  status: ('A' for Active; 'I' for Inactive)
REMARK    1  A    between atoms: C_5  and  N_10 
REMARK    2  A    between atoms: C_13  and  C_16 
REMARK    3  A    between atoms: C_16  and  C_17 
REMARK    4  A    between atoms: C_17  and  C_18 
REMARK    5  A    between atoms: C_18  and  O_19 
REMARK    6  A    between atoms: O_19  and  C_20 
REMARK    7  A    between atoms: C_23  and  C_26 
REMARK    8  A    between atoms: C_26  and  O_28 
REMARK    9  A    between atoms: O_28  and  C_29 
ROOT
HETATM    1  N   UNK N   1      28.186  17.451   6.353  0.00  0.00    -0.366 N 
HETATM    2  C   UNK N   1      28.263  17.901   7.720  0.00  0.00     0.125 C 
HETATM    3  C   UNK N   1      29.710  18.164   8.026  0.00  0.00     0.024 C 
HETATM    4  C   UNK N   1      30.399  16.816   7.901  0.00  0.00    -0.012 C 
HETATM    5  C   UNK N   1      30.399  16.371   6.439  0.00  0.00     0.024 C 
HETATM    6  C   UNK N   1      28.940  16.273   5.952  0.00  0.00     0.125 C 
ENDROOT
BRANCH   4   7
HETATM    7  C   UNK N   1      31.759  16.822   8.580  0.00  0.00     0.007 C 
BRANCH   7   8
HETATM    8  C   UNK N   1      32.515  18.132   8.310  0.00  0.00     0.027 C 
BRANCH   8   9
HETATM    9  C   UNK N   1      34.029  17.932   8.099  0.00  0.00     0.175 C 
BRANCH   9  10
HETATM   10  O   UNK N   1      34.352  18.084   6.771  0.00  0.00    -0.351 OA
BRANCH  10  11
HETATM   11  C   UNK N   1      33.987  17.169   5.848  0.00  0.00     0.068 A 
HETATM   12  C   UNK N   1      34.388  15.843   5.997  0.00  0.00     0.038 A 
HETATM   13  C   UNK N   1      34.082  14.911   5.004  0.00  0.00     0.020 A 
HETATM   14  C   UNK N   1      33.374  15.297   3.851  0.00  0.00     0.039 A 
HETATM   15  C   UNK N   1      32.953  16.624   3.728  0.00  0.00     0.020 A 
HETATM   16  C   UNK N   1      33.252  17.550   4.715  0.00  0.00     0.038 A 
BRANCH  14  17
HETATM   17  C   UNK N   1      33.078  14.353   2.737  0.00  0.00     0.293 C 
HETATM   18  O   UNK N   1      32.087  13.644   2.826  0.00  0.00    -0.259 OA
BRANCH  17  19
HETATM   19  O   UNK N   1      33.842  14.243   1.617  0.00  0.00    -0.318 OA
BRANCH  19  20
HETATM   20  C   UNK N   1      35.053  13.599   1.537  0.00  0.00     0.174 C 
HETATM   21  C   UNK N   1      35.934  14.309   0.536  0.00  0.00     0.034 C 
ENDBRANCH  19  20
ENDBRANCH  17  19
ENDBRANCH  14  17
ENDBRANCH  10  11
ENDBRANCH   9  10
ENDBRANCH   8   9
ENDBRANCH   7   8
ENDBRANCH   4   7
BRANCH   1  22
HETATM   22  C   UNK N   1      27.415  18.203   5.424  0.00  0.00     0.117 A 
HETATM   23  C   UNK N   1      26.565  17.544   4.528  0.00  0.00     0.051 A 
HETATM   24  C   UNK N   1      25.826  18.283   3.618  0.00  0.00     0.030 A 
HETATM   25  C   UNK N   1      25.952  19.665   3.620  0.00  0.00     0.022 A 
HETATM   26  C   UNK N   1      25.174  20.477   2.650  0.00  0.00     0.069 C 
HETATM   27  N   UNK N   1      26.786  20.270   4.507  0.00  0.00    -0.304 N 
HETATM   28  N   UNK N   1      27.501  19.558   5.387  0.00  0.00    -0.285 N 
ATOM     29  HN  UNK N   1      26.868  21.287   4.502  1.00  0.00     0.186 HD
ATOM     30  HN  UNK N   1      28.119  20.040   6.040  1.00  0.00     0.188 HD
ENDBRANCH   1  22
TORSDOF 9
ENDMDL
MODEL 7
REMARK VINA RESULT:      -6.1      5.117      6.812
REMARK  9 active torsions:
REMARK  status: ('A' for Active; 'I' for Inactive)
REMARK    1  A    between atoms: C_5  and  N_10 
REMARK    2  A    between atoms: C_13  and  C_16 
REMARK    3  A    between atoms: C_16  and  C_17 
REMARK    4  A    between atoms: C_17  and  C_18 
REMARK    5  A    between atoms: C_18  and  O_19 
REMARK    6  A    between atoms: O_19  and  C_20 
REMARK    7  A    between atoms: C_23  and  C_26 
REMARK    8  A    between atoms: C_26  and  O_28 
REMARK    9  A    between atoms: O_28  and  C_29 
ROOT
HETATM    1  N   UNK N   1      24.011  13.642   7.899  0.00  0.00    -0.366 N 
HETATM    2  C   UNK N   1      25.355  13.679   7.379  0.00  0.00     0.125 C 
HETATM    3  C   UNK N   1      25.671  15.111   7.052  0.00  0.00     0.024 C 
HETATM    4  C   UNK N   1      24.697  15.497   5.953  0.00  0.00    -0.012 C 
HETATM    5  C   UNK N   1      23.278  15.546   6.516  0.00  0.00     0.024 C 
HETATM    6  C   UNK N   1      22.922  14.157   7.081  0.00  0.00     0.125 C 
ENDROOT
BRANCH   4   7
HETATM    7  C   UNK N   1      25.152  16.751   5.223  0.00  0.00     0.007 C 
BRANCH   7   8
HETATM    8  C   UNK N   1      26.392  16.477   4.357  0.00  0.00     0.027 C 
BRANCH   8   9
HETATM    9  C   UNK N   1      27.130  17.759   3.924  0.00  0.00     0.175 C 
BRANCH   9  10
HETATM   10  O   UNK N   1      27.664  18.398   5.018  0.00  0.00    -0.351 OA
BRANCH  10  11
HETATM   11  C   UNK N   1      28.805  17.968   5.598  0.00  0.00     0.068 A 
HETATM   12  C   UNK N   1      29.881  17.587   4.799  0.00  0.00     0.038 A 
HETATM   13  C   UNK N   1      31.033  17.065   5.392  0.00  0.00     0.020 A 
HETATM   14  C   UNK N   1      31.118  16.918   6.788  0.00  0.00     0.039 A 
HETATM   15  C   UNK N   1      30.042  17.330   7.579  0.00  0.00     0.020 A 
HETATM   16  C   UNK N   1      28.900  17.853   6.993  0.00  0.00     0.038 A 
BRANCH  14  17
HETATM   17  C   UNK N   1      32.300  16.310   7.461  0.00  0.00     0.293 C 
HETATM   18  O   UNK N   1      32.907  15.424   6.878  0.00  0.00    -0.259 OA
BRANCH  17  19
HETATM   19  O   UNK N   1      32.753  16.694   8.685  0.00  0.00    -0.318 OA
BRANCH  19  20
HETATM   20  C   UNK N   1      34.022  17.139   8.962  0.00  0.00     0.174 C 
HETATM   21  C   UNK N   1      34.326  18.349   8.110  0.00  0.00     0.034 C 
ENDBRANCH  19  20
ENDBRANCH  17  19
ENDBRANCH  14  17
ENDBRANCH  10  11
ENDBRANCH   9  10
ENDBRANCH   8   9
ENDBRANCH   7   8
ENDBRANCH   4   7
BRANCH   1  22
HETATM   22  C   UNK N   1      23.796  13.151   9.215  0.00  0.00     0.117 A 
HETATM   23  C   UNK N   1      22.503  12.811   9.630  0.00  0.00     0.051 A 
HETATM   24  C   UNK N   1      22.299  12.344  10.919  0.00  0.00     0.030 A 
HETATM   25  C   UNK N   1      23.391  12.228  11.768  0.00  0.00     0.022 A 
HETATM   26  C   UNK N   1      23.196  11.735  13.155  0.00  0.00     0.069 C 
HETATM   27  N   UNK N   1      24.633  12.566  11.329  0.00  0.00    -0.304 N 
HETATM   28  N   UNK N   1      24.832  13.018  10.084  0.00  0.00    -0.285 N 
ATOM     29  HN  UNK N   1      25.428  12.474  11.960  1.00  0.00     0.186 HD
ATOM     30  HN  UNK N   1      25.774  13.264   9.784  1.00  0.00     0.188 HD
ENDBRANCH   1  22
TORSDOF 9
ENDMDL
MODEL 8
REMARK VINA RESULT:      -6.0     12.160     14.730
REMARK  9 active torsions:
REMARK  status: ('A' for Active; 'I' for Inactive)
REMARK    1  A    between atoms: C_5  and  N_10 
REMARK    2  A    between atoms: C_13  and  C_16 
REMARK    3  A    between atoms: C_16  and  C_17 
REMARK    4  A    between atoms: C_17  and  C_18 
REMARK    5  A    between atoms: C_18  and  O_19 
REMARK    6  A    between atoms: O_19  and  C_20 
REMARK    7  A    between atoms: C_23  and  C_26 
REMARK    8  A    between atoms: C_26  and  O_28 
REMARK    9  A    between atoms: O_28  and  C_29 
ROOT
HETATM    1  N   UNK N   1      25.773  25.329  -5.330  0.00  0.00    -0.366 N 
HETATM    2  C   UNK N   1      25.096  26.491  -5.846  0.00  0.00     0.125 C 
HETATM    3  C   UNK N   1      25.988  27.676  -5.603  0.00  0.00     0.024 C 
HETATM    4  C   UNK N   1      26.101  27.790  -4.093  0.00  0.00    -0.012 C 
HETATM    5  C   UNK N   1      26.895  26.605  -3.545  0.00  0.00     0.024 C 
HETATM    6  C   UNK N   1      26.165  25.302  -3.929  0.00  0.00     0.125 C 
ENDROOT
BRANCH   4   7
HETATM    7  C   UNK N   1      26.608  29.162  -3.676  0.00  0.00     0.007 C 
BRANCH   7   8
HETATM    8  C   UNK N   1      27.333  29.868  -4.832  0.00  0.00     0.027 C 
BRANCH   8   9
HETATM    9  C   UNK N   1      28.851  30.006  -4.609  0.00  0.00     0.175 C 
BRANCH   9  10
HETATM   10  O   UNK N   1      29.538  29.143  -5.431  0.00  0.00    -0.351 OA
BRANCH  10  11
HETATM   11  C   UNK N   1      29.922  27.921  -5.006  0.00  0.00     0.068 A 
HETATM   12  C   UNK N   1      29.655  26.803  -5.792  0.00  0.00     0.038 A 
HETATM   13  C   UNK N   1      29.978  25.529  -5.320  0.00  0.00     0.020 A 
HETATM   14  C   UNK N   1      30.570  25.362  -4.054  0.00  0.00     0.039 A 
HETATM   15  C   UNK N   1      30.859  26.495  -3.287  0.00  0.00     0.020 A 
HETATM   16  C   UNK N   1      30.543  27.760  -3.757  0.00  0.00     0.038 A 
BRANCH  14  17
HETATM   17  C   UNK N   1      30.876  24.022  -3.481  0.00  0.00     0.293 C 
HETATM   18  O   UNK N   1      30.726  23.857  -2.280  0.00  0.00    -0.259 OA
BRANCH  17  19
HETATM   19  O   UNK N   1      31.303  22.963  -4.221  0.00  0.00    -0.318 OA
BRANCH  19  20
HETATM   20  C   UNK N   1      30.963  21.650  -4.005  0.00  0.00     0.174 C 
HETATM   21  C   UNK N   1      30.505  21.030  -5.305  0.00  0.00     0.034 C 
ENDBRANCH  19  20
ENDBRANCH  17  19
ENDBRANCH  14  17
ENDBRANCH  10  11
ENDBRANCH   9  10
ENDBRANCH   8   9
ENDBRANCH   7   8
ENDBRANCH   4   7
BRANCH   1  22
HETATM   22  C   UNK N   1      26.084  24.263  -6.218  0.00  0.00     0.117 A 
HETATM   23  C   UNK N   1      27.241  23.502  -6.017  0.00  0.00     0.051 A 
HETATM   24  C   UNK N   1      27.543  22.472  -6.893  0.00  0.00     0.030 A 
HETATM   25  C   UNK N   1      26.684  22.224  -7.955  0.00  0.00     0.022 A 
HETATM   26  C   UNK N   1      26.990  21.129  -8.910  0.00  0.00     0.069 C 
HETATM   27  N   UNK N   1      25.567  22.983  -8.117  0.00  0.00    -0.304 N 
HETATM   28  N   UNK N   1      25.274  23.979  -7.271  0.00  0.00    -0.285 N 
ATOM     29  HN  UNK N   1      24.942  22.790  -8.899  1.00  0.00     0.186 HD
ATOM     30  HN  UNK N   1      24.430  24.531  -7.419  1.00  0.00     0.188 HD
ENDBRANCH   1  22
TORSDOF 9
ENDMDL
MODEL 9
REMARK VINA RESULT:      -5.8     11.601     13.529
REMARK  9 active torsions:
REMARK  status: ('A' for Active; 'I' for Inactive)
REMARK    1  A    between atoms: C_5  and  N_10 
REMARK    2  A    between atoms: C_13  and  C_16 
REMARK    3  A    between atoms: C_16  and  C_17 
REMARK    4  A    between atoms: C_17  and  C_18 
REMARK    5  A    between atoms: C_18  and  O_19 
REMARK    6  A    between atoms: O_19  and  C_20 
REMARK    7  A    between atoms: C_23  and  C_26 
REMARK    8  A    between atoms: C_26  and  O_28 
REMARK    9  A    between atoms: O_28  and  C_29 
ROOT
HETATM    1  N   UNK N   1      29.352  24.095  -3.275  0.00  0.00    -0.366 N 
HETATM    2  C   UNK N   1      30.679  24.655  -3.321  0.00  0.00     0.125 C 
HETATM    3  C   UNK N   1      31.571  23.644  -3.985  0.00  0.00     0.024 C 
HETATM    4  C   UNK N   1      31.567  22.438  -3.062  0.00  0.00    -0.012 C 
HETATM    5  C   UNK N   1      30.186  21.785  -3.074  0.00  0.00     0.024 C 
HETATM    6  C   UNK N   1      29.146  22.820  -2.604  0.00  0.00     0.125 C 
ENDROOT
BRANCH   4   7
HETATM    7  C   UNK N   1      32.731  21.506  -3.361  0.00  0.00     0.007 C 
BRANCH   7   8
HETATM    8  C   UNK N   1      33.333  21.787  -4.747  0.00  0.00     0.027 C 
BRANCH   8   9
HETATM    9  C   UNK N   1      33.068  20.662  -5.767  0.00  0.00     0.175 C 
BRANCH   9  10
HETATM   10  O   UNK N   1      32.624  21.189  -6.957  0.00  0.00    -0.351 OA
BRANCH  10  11
HETATM   11  C   UNK N   1      31.368  21.664  -7.092  0.00  0.00     0.068 A 
HETATM   12  C   UNK N   1      31.169  22.997  -7.443  0.00  0.00     0.038 A 
HETATM   13  C   UNK N   1      29.873  23.513  -7.505  0.00  0.00     0.020 A 
HETATM   14  C   UNK N   1      28.763  22.699  -7.214  0.00  0.00     0.039 A 
HETATM   15  C   UNK N   1      28.974  21.355  -6.891  0.00  0.00     0.020 A 
HETATM   16  C   UNK N   1      30.260  20.841  -6.834  0.00  0.00     0.038 A 
BRANCH  14  17
HETATM   17  C   UNK N   1      27.366  23.218  -7.206  0.00  0.00     0.293 C 
HETATM   18  O   UNK N   1      26.609  22.829  -6.330  0.00  0.00    -0.259 OA
BRANCH  17  19
HETATM   19  O   UNK N   1      26.888  24.112  -8.112  0.00  0.00    -0.318 OA
BRANCH  19  20
HETATM   20  C   UNK N   1      25.571  24.252  -8.476  0.00  0.00     0.174 C 
HETATM   21  C   UNK N   1      25.463  25.264  -9.593  0.00  0.00     0.034 C 
ENDBRANCH  19  20
ENDBRANCH  17  19
ENDBRANCH  14  17
ENDBRANCH  10  11
ENDBRANCH   9  10
ENDBRANCH   8   9
ENDBRANCH   7   8
ENDBRANCH   4   7
BRANCH   1  22
HETATM   22  C   UNK N   1      28.293  24.780  -3.930  0.00  0.00     0.117 A 
HETATM   23  C   UNK N   1      28.579  25.842  -4.796  0.00  0.00     0.051 A 
HETATM   24  C   UNK N   1      27.541  26.512  -5.422  0.00  0.00     0.030 A 
HETATM   25  C   UNK N   1      26.236  26.109  -5.170  0.00  0.00     0.022 A 
HETATM   26  C   UNK N   1      25.107  26.816  -5.827  0.00  0.00     0.069 C 
HETATM   27  N   UNK N   1      25.997  25.071  -4.326  0.00  0.00    -0.304 N 
HETATM   28  N   UNK N   1      26.999  24.422  -3.719  0.00  0.00    -0.285 N 
ATOM     29  HN  UNK N   1      25.035  24.781  -4.150  1.00  0.00     0.186 HD
ATOM     30  HN  UNK N   1      26.789  23.648  -3.090  1.00  0.00     0.188 HD
ENDBRANCH   1  22
TORSDOF 9
ENDMDL
