REMARK  9 active torsions:
REMARK  status: ('A' for Active; 'I' for Inactive)
REMARK    1  A    between atoms: C_5  and  N_10 
REMARK    2  A    between atoms: C_13  and  C_16 
REMARK    3  A    between atoms: C_16  and  C_17 
REMARK    4  A    between atoms: C_17  and  C_18 
REMARK    5  A    between atoms: C_18  and  O_19 
REMARK    6  A    between atoms: O_19  and  C_20 
REMARK    7  A    between atoms: C_23  and  C_26 
REMARK    8  A    between atoms: C_26  and  O_28 
REMARK    9  A    between atoms: O_28  and  C_29 
ROOT
HETATM    1  N   UNK N   1      -4.019   0.873   0.473  0.00  0.00    -0.366 N 
HETATM    2  C   UNK N   1      -2.710   1.467   0.368  0.00  0.00     0.125 C 
HETATM    3  C   UNK N   1      -1.978   0.750  -0.731  0.00  0.00     0.024 C 
HETATM    4  C   UNK N   1      -1.841  -0.685  -0.253  0.00  0.00    -0.012 C 
HETATM    5  C   UNK N   1      -3.216  -1.351  -0.222  0.00  0.00     0.024 C 
HETATM    6  C   UNK N   1      -4.129  -0.555   0.731  0.00  0.00     0.125 C 
ENDROOT
BRANCH   4   7
HETATM    7  C   UNK N   1      -0.773  -1.432  -1.036  0.00  0.00     0.007 C 
BRANCH   7   8
HETATM    8  C   UNK N   1       0.527  -0.618  -1.129  0.00  0.00     0.027 C 
BRANCH   8   9
HETATM    9  C   UNK N   1       0.812   0.225   0.129  0.00  0.00     0.175 C 
BRANCH   9  10
HETATM   10  O   UNK N   1       2.106   0.690   0.112  0.00  0.00    -0.351 OA
BRANCH  10  11
HETATM   11  C   UNK N   1       3.158  -0.152   0.193  0.00  0.00     0.068 A 
HETATM   12  C   UNK N   1       4.445   0.330  -0.036  0.00  0.00     0.038 A 
HETATM   13  C   UNK N   1       5.527  -0.553  -0.033  0.00  0.00     0.020 A 
HETATM   14  C   UNK N   1       5.331  -1.927   0.197  0.00  0.00     0.039 A 
HETATM   15  C   UNK N   1       4.038  -2.393   0.454  0.00  0.00     0.020 A 
HETATM   16  C   UNK N   1       2.964  -1.517   0.456  0.00  0.00     0.038 A 
BRANCH  14  17
HETATM   17  C   UNK N   1       6.444  -2.916   0.149  0.00  0.00     0.293 C 
HETATM   18  O   UNK N   1       6.170  -4.102   0.256  0.00  0.00    -0.259 OA
BRANCH  17  19
HETATM   19  O   UNK N   1       7.750  -2.576  -0.020  0.00  0.00    -0.318 OA
BRANCH  19  20
HETATM   20  C   UNK N   1       8.241  -1.294  -0.065  0.00  0.00     0.174 C 
HETATM   21  C   UNK N   1       9.744  -1.337  -0.213  0.00  0.00     0.034 C 
ENDBRANCH  19  20
ENDBRANCH  17  19
ENDBRANCH  14  17
ENDBRANCH  10  11
ENDBRANCH   9  10
ENDBRANCH   8   9
ENDBRANCH   7   8
ENDBRANCH   4   7
BRANCH   1  22
HETATM   22  C   UNK N   1      -5.164   1.691   0.270  0.00  0.00     0.117 A 
HETATM   23  C   UNK N   1      -5.008   3.058   0.013  0.00  0.00     0.051 A 
HETATM   24  C   UNK N   1      -6.129   3.851  -0.172  0.00  0.00     0.030 A 
HETATM   25  C   UNK N   1      -7.384   3.263  -0.095  0.00  0.00     0.022 A 
HETATM   26  C   UNK N   1      -8.600   4.094  -0.285  0.00  0.00     0.069 C 
HETATM   27  N   UNK N   1      -7.496   1.931   0.154  0.00  0.00    -0.304 N 
HETATM   28  N   UNK N   1      -6.414   1.163   0.334  0.00  0.00    -0.285 N 
ATOM     29  HN  UNK N   1      -8.423   1.509   0.206  1.00  0.00     0.186 HD
ATOM     30  HN  UNK N   1      -6.530   0.167   0.520  1.00  0.00     0.188 HD
ENDBRANCH   1  22
TORSDOF 9
