MODEL 1
REMARK VINA RESULT:      -6.3      0.000      0.000
REMARK  10 active torsions:
REMARK  status: ('A' for Active; 'I' for Inactive)
REMARK    1  A    between atoms: C_5  and  N_10 
REMARK    2  A    between atoms: C_13  and  C_16 
REMARK    3  A    between atoms: C_16  and  C_17 
REMARK    4  A    between atoms: C_17  and  C_18 
REMARK    5  A    between atoms: C_18  and  C_19 
REMARK    6  A    between atoms: C_19  and  O_20 
REMARK    7  A    between atoms: O_20  and  C_21 
REMARK    8  A    between atoms: C_24  and  C_27 
REMARK    9  A    between atoms: C_27  and  O_29 
REMARK   10  A    between atoms: O_29  and  C_30 
ROOT
HETATM    1  C   UNK N   1      25.354  27.088  -5.644  0.00  0.00     0.005 C 
ENDROOT
BRANCH   1   2
HETATM    2  C   UNK N   1      25.537  25.796  -6.406  0.00  0.00    -0.012 C 
HETATM    3  C   UNK N   1      25.659  24.622  -5.448  0.00  0.00     0.024 C 
HETATM    4  C   UNK N   1      25.685  23.345  -6.276  0.00  0.00     0.125 C 
HETATM    5  N   UNK N   1      26.765  23.406  -7.243  0.00  0.00    -0.366 N 
HETATM    6  C   UNK N   1      26.849  24.556  -8.124  0.00  0.00     0.125 C 
HETATM    7  C   UNK N   1      26.766  25.852  -7.312  0.00  0.00     0.024 C 
BRANCH   5   8
HETATM    8  C   UNK N   1      27.636  22.291  -7.415  0.00  0.00     0.117 A 
HETATM    9  C   UNK N   1      28.804  22.178  -6.652  0.00  0.00     0.051 A 
HETATM   10  C   UNK N   1      29.604  21.049  -6.788  0.00  0.00     0.030 A 
HETATM   11  C   UNK N   1      29.219  20.053  -7.679  0.00  0.00     0.022 A 
HETATM   12  C   UNK N   1      30.044  18.826  -7.823  0.00  0.00     0.069 C 
HETATM   13  N   UNK N   1      28.083  20.203  -8.409  0.00  0.00    -0.304 N 
HETATM   14  N   UNK N   1      27.312  21.290  -8.281  0.00  0.00    -0.285 N 
ATOM     15  HN  UNK N   1      27.812  19.473  -9.067  1.00  0.00     0.186 HD
ATOM     16  HN  UNK N   1      26.466  21.372  -8.845  1.00  0.00     0.188 HD
ENDBRANCH   5   8
ENDBRANCH   1   2
BRANCH   1  17
HETATM   17  C   UNK N   1      26.587  27.944  -5.859  0.00  0.00     0.002 C 
BRANCH  17  18
HETATM   18  C   UNK N   1      26.982  28.650  -4.580  0.00  0.00     0.027 C 
BRANCH  18  19
HETATM   19  C   UNK N   1      27.777  27.713  -3.691  0.00  0.00     0.175 C 
BRANCH  19  20
HETATM   20  O   UNK N   1      28.712  27.062  -4.458  0.00  0.00    -0.351 OA
BRANCH  20  21
HETATM   21  C   UNK N   1      29.258  25.873  -4.121  0.00  0.00     0.068 A 
HETATM   22  C   UNK N   1      28.413  24.848  -3.696  0.00  0.00     0.038 A 
HETATM   23  C   UNK N   1      28.937  23.609  -3.336  0.00  0.00     0.020 A 
HETATM   24  C   UNK N   1      30.316  23.364  -3.393  0.00  0.00     0.039 A 
HETATM   25  C   UNK N   1      31.167  24.398  -3.819  0.00  0.00     0.020 A 
HETATM   26  C   UNK N   1      30.644  25.645  -4.180  0.00  0.00     0.038 A 
BRANCH  24  27
HETATM   27  C   UNK N   1      30.897  22.039  -3.012  0.00  0.00     0.293 C 
HETATM   28  O   UNK N   1      30.278  21.027  -3.307  0.00  0.00    -0.259 OA
BRANCH  27  29
HETATM   29  O   UNK N   1      32.080  21.892  -2.350  0.00  0.00    -0.318 OA
BRANCH  29  30
HETATM   30  C   UNK N   1      33.129  21.094  -2.746  0.00  0.00     0.174 C 
HETATM   31  C   UNK N   1      33.569  21.478  -4.142  0.00  0.00     0.034 C 
ENDBRANCH  29  30
ENDBRANCH  27  29
ENDBRANCH  24  27
ENDBRANCH  20  21
ENDBRANCH  19  20
ENDBRANCH  18  19
ENDBRANCH  17  18
ENDBRANCH   1  17
TORSDOF 10
ENDMDL
MODEL 2
REMARK VINA RESULT:      -6.3      2.626      7.065
REMARK  10 active torsions:
REMARK  status: ('A' for Active; 'I' for Inactive)
REMARK    1  A    between atoms: C_5  and  N_10 
REMARK    2  A    between atoms: C_13  and  C_16 
REMARK    3  A    between atoms: C_16  and  C_17 
REMARK    4  A    between atoms: C_17  and  C_18 
REMARK    5  A    between atoms: C_18  and  C_19 
REMARK    6  A    between atoms: C_19  and  O_20 
REMARK    7  A    between atoms: O_20  and  C_21 
REMARK    8  A    between atoms: C_24  and  C_27 
REMARK    9  A    between atoms: C_27  and  O_29 
REMARK   10  A    between atoms: O_29  and  C_30 
ROOT
HETATM    1  C   UNK N   1      32.377  21.380  -3.374  0.00  0.00     0.005 C 
ENDROOT
BRANCH   1   2
HETATM    2  C   UNK N   1      31.414  22.497  -3.046  0.00  0.00    -0.012 C 
HETATM    3  C   UNK N   1      29.980  21.995  -3.074  0.00  0.00     0.024 C 
HETATM    4  C   UNK N   1      29.081  23.123  -2.588  0.00  0.00     0.125 C 
HETATM    5  N   UNK N   1      29.286  24.304  -3.404  0.00  0.00    -0.366 N 
HETATM    6  C   UNK N   1      30.637  24.804  -3.581  0.00  0.00     0.125 C 
HETATM    7  C   UNK N   1      31.569  23.669  -4.015  0.00  0.00     0.024 C 
BRANCH   5   8
HETATM    8  C   UNK N   1      28.168  25.036  -3.901  0.00  0.00     0.117 A 
HETATM    9  C   UNK N   1      28.355  26.250  -4.572  0.00  0.00     0.051 A 
HETATM   10  C   UNK N   1      27.256  26.912  -5.108  0.00  0.00     0.030 A 
HETATM   11  C   UNK N   1      25.994  26.347  -4.967  0.00  0.00     0.022 A 
HETATM   12  C   UNK N   1      24.807  27.023  -5.553  0.00  0.00     0.069 C 
HETATM   13  N   UNK N   1      25.851  25.171  -4.301  0.00  0.00    -0.304 N 
HETATM   14  N   UNK N   1      26.908  24.533  -3.783  0.00  0.00    -0.285 N 
ATOM     15  HN  UNK N   1      24.921  24.767  -4.193  1.00  0.00     0.186 HD
ATOM     16  HN  UNK N   1      26.765  23.652  -3.288  1.00  0.00     0.188 HD
ENDBRANCH   5   8
ENDBRANCH   1   2
BRANCH   1  17
HETATM   17  C   UNK N   1      31.705  20.452  -4.367  0.00  0.00     0.002 C 
BRANCH  17  18
HETATM   18  C   UNK N   1      32.529  20.330  -5.632  0.00  0.00     0.027 C 
BRANCH  18  19
HETATM   19  C   UNK N   1      31.963  21.231  -6.711  0.00  0.00     0.175 C 
BRANCH  19  20
HETATM   20  O   UNK N   1      30.834  20.647  -7.230  0.00  0.00    -0.351 OA
BRANCH  20  21
HETATM   21  C   UNK N   1      29.617  21.233  -7.221  0.00  0.00     0.068 A 
HETATM   22  C   UNK N   1      28.568  20.603  -7.887  0.00  0.00     0.038 A 
HETATM   23  C   UNK N   1      27.299  21.177  -7.904  0.00  0.00     0.020 A 
HETATM   24  C   UNK N   1      27.049  22.394  -7.255  0.00  0.00     0.039 A 
HETATM   25  C   UNK N   1      28.108  23.030  -6.584  0.00  0.00     0.020 A 
HETATM   26  C   UNK N   1      29.384  22.456  -6.566  0.00  0.00     0.038 A 
BRANCH  24  27
HETATM   27  C   UNK N   1      25.692  23.025  -7.260  0.00  0.00     0.293 C 
HETATM   28  O   UNK N   1      24.922  22.755  -6.350  0.00  0.00    -0.259 OA
BRANCH  27  29
HETATM   29  O   UNK N   1      25.261  23.886  -8.226  0.00  0.00    -0.318 OA
BRANCH  29  30
HETATM   30  C   UNK N   1      26.047  24.466  -9.195  0.00  0.00     0.174 C 
HETATM   31  C   UNK N   1      26.462  25.853  -8.758  0.00  0.00     0.034 C 
ENDBRANCH  29  30
ENDBRANCH  27  29
ENDBRANCH  24  27
ENDBRANCH  20  21
ENDBRANCH  19  20
ENDBRANCH  18  19
ENDBRANCH  17  18
ENDBRANCH   1  17
TORSDOF 10
ENDMDL
MODEL 3
REMARK VINA RESULT:      -6.1      3.084      5.479
REMARK  10 active torsions:
REMARK  status: ('A' for Active; 'I' for Inactive)
REMARK    1  A    between atoms: C_5  and  N_10 
REMARK    2  A    between atoms: C_13  and  C_16 
REMARK    3  A    between atoms: C_16  and  C_17 
REMARK    4  A    between atoms: C_17  and  C_18 
REMARK    5  A    between atoms: C_18  and  C_19 
REMARK    6  A    between atoms: C_19  and  O_20 
REMARK    7  A    between atoms: O_20  and  C_21 
REMARK    8  A    between atoms: C_24  and  C_27 
REMARK    9  A    between atoms: C_27  and  O_29 
REMARK   10  A    between atoms: O_29  and  C_30 
ROOT
HETATM    1  C   UNK N   1      29.286  27.413  -4.969  0.00  0.00     0.005 C 
ENDROOT
BRANCH   1   2
HETATM    2  C   UNK N   1      29.409  25.947  -4.622  0.00  0.00    -0.012 C 
HETATM    3  C   UNK N   1      30.532  25.725  -3.621  0.00  0.00     0.024 C 
HETATM    4  C   UNK N   1      30.501  24.263  -3.201  0.00  0.00     0.125 C 
HETATM    5  N   UNK N   1      30.604  23.411  -4.370  0.00  0.00    -0.366 N 
HETATM    6  C   UNK N   1      29.679  23.619  -5.469  0.00  0.00     0.125 C 
HETATM    7  C   UNK N   1      29.654  25.097  -5.868  0.00  0.00     0.024 C 
BRANCH   5   8
HETATM    8  C   UNK N   1      31.502  22.304  -4.374  0.00  0.00     0.117 A 
HETATM    9  C   UNK N   1      32.874  22.504  -4.569  0.00  0.00     0.051 A 
HETATM   10  C   UNK N   1      33.740  21.418  -4.501  0.00  0.00     0.030 A 
HETATM   11  C   UNK N   1      33.220  20.157  -4.235  0.00  0.00     0.022 A 
HETATM   12  C   UNK N   1      34.128  18.985  -4.132  0.00  0.00     0.069 C 
HETATM   13  N   UNK N   1      31.881  20.002  -4.060  0.00  0.00    -0.304 N 
HETATM   14  N   UNK N   1      31.045  21.045  -4.127  0.00  0.00    -0.285 N 
ATOM     15  HN  UNK N   1      31.506  19.072  -3.874  1.00  0.00     0.186 HD
ATOM     16  HN  UNK N   1      30.046  20.894  -3.991  1.00  0.00     0.188 HD
ENDBRANCH   5   8
ENDBRANCH   1   2
BRANCH   1  17
HETATM   17  C   UNK N   1      28.984  28.177  -3.694  0.00  0.00     0.002 C 
BRANCH  17  18
HETATM   18  C   UNK N   1      27.672  28.923  -3.812  0.00  0.00     0.027 C 
BRANCH  18  19
HETATM   19  C   UNK N   1      26.611  28.248  -2.966  0.00  0.00     0.175 C 
BRANCH  19  20
HETATM   20  O   UNK N   1      25.582  27.848  -3.782  0.00  0.00    -0.351 OA
BRANCH  20  21
HETATM   21  C   UNK N   1      25.691  26.853  -4.691  0.00  0.00     0.068 A 
HETATM   22  C   UNK N   1      25.574  27.170  -6.043  0.00  0.00     0.038 A 
HETATM   23  C   UNK N   1      25.677  26.174  -7.011  0.00  0.00     0.020 A 
HETATM   24  C   UNK N   1      25.900  24.838  -6.649  0.00  0.00     0.039 A 
HETATM   25  C   UNK N   1      26.017  24.519  -5.286  0.00  0.00     0.020 A 
HETATM   26  C   UNK N   1      25.913  25.518  -4.311  0.00  0.00     0.038 A 
BRANCH  24  27
HETATM   27  C   UNK N   1      26.016  23.754  -7.674  0.00  0.00     0.293 C 
HETATM   28  O   UNK N   1      27.125  23.486  -8.114  0.00  0.00    -0.259 OA
BRANCH  27  29
HETATM   29  O   UNK N   1      24.953  23.045  -8.151  0.00  0.00    -0.318 OA
BRANCH  29  30
HETATM   30  C   UNK N   1      24.821  21.676  -8.120  0.00  0.00     0.174 C 
HETATM   31  C   UNK N   1      24.400  21.232  -6.736  0.00  0.00     0.034 C 
ENDBRANCH  29  30
ENDBRANCH  27  29
ENDBRANCH  24  27
ENDBRANCH  20  21
ENDBRANCH  19  20
ENDBRANCH  18  19
ENDBRANCH  17  18
ENDBRANCH   1  17
TORSDOF 10
ENDMDL
MODEL 4
REMARK VINA RESULT:      -6.1     13.771     16.898
REMARK  10 active torsions:
REMARK  status: ('A' for Active; 'I' for Inactive)
REMARK    1  A    between atoms: C_5  and  N_10 
REMARK    2  A    between atoms: C_13  and  C_16 
REMARK    3  A    between atoms: C_16  and  C_17 
REMARK    4  A    between atoms: C_17  and  C_18 
REMARK    5  A    between atoms: C_18  and  C_19 
REMARK    6  A    between atoms: C_19  and  O_20 
REMARK    7  A    between atoms: O_20  and  C_21 
REMARK    8  A    between atoms: C_24  and  C_27 
REMARK    9  A    between atoms: C_27  and  O_29 
REMARK   10  A    between atoms: O_29  and  C_30 
ROOT
HETATM    1  C   UNK N   1      31.781  16.815   8.213  0.00  0.00     0.005 C 
ENDROOT
BRANCH   1   2
HETATM    2  C   UNK N   1      30.336  16.942   7.789  0.00  0.00    -0.012 C 
HETATM    3  C   UNK N   1      30.196  16.724   6.291  0.00  0.00     0.024 C 
HETATM    4  C   UNK N   1      28.711  16.711   5.958  0.00  0.00     0.125 C 
HETATM    5  N   UNK N   1      28.092  17.941   6.415  0.00  0.00    -0.366 N 
HETATM    6  C   UNK N   1      28.275  18.343   7.797  0.00  0.00     0.125 C 
HETATM    7  C   UNK N   1      29.761  18.306   8.168  0.00  0.00     0.024 C 
BRANCH   5   8
HETATM    8  C   UNK N   1      27.208  18.661   5.558  0.00  0.00     0.117 A 
HETATM    9  C   UNK N   1      27.714  19.526   4.582  0.00  0.00     0.051 A 
HETATM   10  C   UNK N   1      26.836  20.165   3.713  0.00  0.00     0.030 A 
HETATM   11  C   UNK N   1      25.473  19.922   3.833  0.00  0.00     0.022 A 
HETATM   12  C   UNK N   1      24.517  20.573   2.900  0.00  0.00     0.069 C 
HETATM   13  N   UNK N   1      25.019  19.082   4.799  0.00  0.00    -0.304 N 
HETATM   14  N   UNK N   1      25.862  18.467   5.638  0.00  0.00    -0.285 N 
ATOM     15  HN  UNK N   1      24.017  18.916   4.888  1.00  0.00     0.186 HD
ATOM     16  HN  UNK N   1      25.489  17.842   6.353  1.00  0.00     0.188 HD
ENDBRANCH   5   8
ENDBRANCH   1   2
BRANCH   1  17
HETATM   17  C   UNK N   1      32.651  16.959   6.980  0.00  0.00     0.002 C 
BRANCH  17  18
HETATM   18  C   UNK N   1      33.879  17.792   7.282  0.00  0.00     0.027 C 
BRANCH  18  19
HETATM   19  C   UNK N   1      34.217  17.705   8.757  0.00  0.00     0.175 C 
BRANCH  19  20
HETATM   20  O   UNK N   1      35.265  16.833   8.921  0.00  0.00    -0.351 OA
BRANCH  20  21
HETATM   21  C   UNK N   1      35.319  15.906   9.903  0.00  0.00     0.068 A 
HETATM   22  C   UNK N   1      34.632  14.706   9.724  0.00  0.00     0.038 A 
HETATM   23  C   UNK N   1      34.659  13.726  10.714  0.00  0.00     0.020 A 
HETATM   24  C   UNK N   1      35.373  13.922  11.904  0.00  0.00     0.039 A 
HETATM   25  C   UNK N   1      36.064  15.133  12.084  0.00  0.00     0.020 A 
HETATM   26  C   UNK N   1      36.037  16.120  11.092  0.00  0.00     0.038 A 
BRANCH  24  27
HETATM   27  C   UNK N   1      35.416  12.881  12.978  0.00  0.00     0.293 C 
HETATM   28  O   UNK N   1      36.465  12.282  13.165  0.00  0.00    -0.259 OA
BRANCH  27  29
HETATM   29  O   UNK N   1      34.347  12.555  13.760  0.00  0.00    -0.318 OA
BRANCH  29  30
HETATM   30  C   UNK N   1      34.409  11.930  14.985  0.00  0.00     0.174 C 
HETATM   31  C   UNK N   1      34.580  12.960  16.080  0.00  0.00     0.034 C 
ENDBRANCH  29  30
ENDBRANCH  27  29
ENDBRANCH  24  27
ENDBRANCH  20  21
ENDBRANCH  19  20
ENDBRANCH  18  19
ENDBRANCH  17  18
ENDBRANCH   1  17
TORSDOF 10
ENDMDL
MODEL 5
REMARK VINA RESULT:      -6.1     15.611     19.620
REMARK  10 active torsions:
REMARK  status: ('A' for Active; 'I' for Inactive)
REMARK    1  A    between atoms: C_5  and  N_10 
REMARK    2  A    between atoms: C_13  and  C_16 
REMARK    3  A    between atoms: C_16  and  C_17 
REMARK    4  A    between atoms: C_17  and  C_18 
REMARK    5  A    between atoms: C_18  and  C_19 
REMARK    6  A    between atoms: C_19  and  O_20 
REMARK    7  A    between atoms: O_20  and  C_21 
REMARK    8  A    between atoms: C_24  and  C_27 
REMARK    9  A    between atoms: C_27  and  O_29 
REMARK   10  A    between atoms: O_29  and  C_30 
ROOT
HETATM    1  C   UNK N   1      33.561  13.810   8.238  0.00  0.00     0.005 C 
ENDROOT
BRANCH   1   2
HETATM    2  C   UNK N   1      34.481  13.782   9.436  0.00  0.00    -0.012 C 
HETATM    3  C   UNK N   1      34.541  12.386  10.033  0.00  0.00     0.024 C 
HETATM    4  C   UNK N   1      35.595  12.393  11.131  0.00  0.00     0.125 C 
HETATM    5  N   UNK N   1      35.283  13.417  12.109  0.00  0.00    -0.366 N 
HETATM    6  C   UNK N   1      35.053  14.774  11.649  0.00  0.00     0.125 C 
HETATM    7  C   UNK N   1      34.037  14.781  10.504  0.00  0.00     0.024 C 
BRANCH   5   8
HETATM    8  C   UNK N   1      35.341  13.120  13.502  0.00  0.00     0.117 A 
HETATM    9  C   UNK N   1      36.199  13.835  14.346  0.00  0.00     0.051 A 
HETATM   10  C   UNK N   1      36.189  13.575  15.711  0.00  0.00     0.030 A 
HETATM   11  C   UNK N   1      35.320  12.611  16.208  0.00  0.00     0.022 A 
HETATM   12  C   UNK N   1      35.274  12.333  17.667  0.00  0.00     0.069 C 
HETATM   13  N   UNK N   1      34.508  11.931  15.357  0.00  0.00    -0.304 N 
HETATM   14  N   UNK N   1      34.517  12.178  14.041  0.00  0.00    -0.285 N 
ATOM     15  HN  UNK N   1      33.880  11.218  15.727  1.00  0.00     0.186 HD
ATOM     16  HN  UNK N   1      33.894  11.650  13.429  1.00  0.00     0.188 HD
ENDBRANCH   5   8
ENDBRANCH   1   2
BRANCH   1  17
HETATM   17  C   UNK N   1      34.383  13.499   7.002  0.00  0.00     0.002 C 
BRANCH  17  18
HETATM   18  C   UNK N   1      35.370  14.611   6.718  0.00  0.00     0.027 C 
BRANCH  18  19
HETATM   19  C   UNK N   1      34.866  15.478   5.582  0.00  0.00     0.175 C 
BRANCH  19  20
HETATM   20  O   UNK N   1      34.622  16.741   6.063  0.00  0.00    -0.351 OA
BRANCH  20  21
HETATM   21  C   UNK N   1      33.470  17.099   6.672  0.00  0.00     0.068 A 
HETATM   22  C   UNK N   1      33.542  17.844   7.847  0.00  0.00     0.038 A 
HETATM   23  C   UNK N   1      32.377  18.230   8.508  0.00  0.00     0.020 A 
HETATM   24  C   UNK N   1      31.115  17.880   8.009  0.00  0.00     0.039 A 
HETATM   25  C   UNK N   1      31.044  17.127   6.824  0.00  0.00     0.020 A 
HETATM   26  C   UNK N   1      32.212  16.737   6.159  0.00  0.00     0.038 A 
BRANCH  24  27
HETATM   27  C   UNK N   1      29.853  18.286   8.703  0.00  0.00     0.293 C 
HETATM   28  O   UNK N   1      29.926  18.680   9.858  0.00  0.00    -0.259 OA
BRANCH  27  29
HETATM   29  O   UNK N   1      28.620  18.241   8.121  0.00  0.00    -0.318 OA
BRANCH  29  30
HETATM   30  C   UNK N   1      27.987  19.291   7.495  0.00  0.00     0.174 C 
HETATM   31  C   UNK N   1      27.910  19.031   6.007  0.00  0.00     0.034 C 
ENDBRANCH  29  30
ENDBRANCH  27  29
ENDBRANCH  24  27
ENDBRANCH  20  21
ENDBRANCH  19  20
ENDBRANCH  18  19
ENDBRANCH  17  18
ENDBRANCH   1  17
TORSDOF 10
ENDMDL
MODEL 6
REMARK VINA RESULT:      -6.0     12.862     14.808
REMARK  10 active torsions:
REMARK  status: ('A' for Active; 'I' for Inactive)
REMARK    1  A    between atoms: C_5  and  N_10 
REMARK    2  A    between atoms: C_13  and  C_16 
REMARK    3  A    between atoms: C_16  and  C_17 
REMARK    4  A    between atoms: C_17  and  C_18 
REMARK    5  A    between atoms: C_18  and  C_19 
REMARK    6  A    between atoms: C_19  and  O_20 
REMARK    7  A    between atoms: O_20  and  C_21 
REMARK    8  A    between atoms: C_24  and  C_27 
REMARK    9  A    between atoms: C_27  and  O_29 
REMARK   10  A    between atoms: O_29  and  C_30 
ROOT
HETATM    1  C   UNK N   1      25.389  20.544   2.687  0.00  0.00     0.005 C 
ENDROOT
BRANCH   1   2
HETATM    2  C   UNK N   1      26.508  20.351   3.684  0.00  0.00    -0.012 C 
HETATM    3  C   UNK N   1      26.930  18.892   3.741  0.00  0.00     0.024 C 
HETATM    4  C   UNK N   1      28.153  18.794   4.641  0.00  0.00     0.125 C 
HETATM    5  N   UNK N   1      27.850  19.350   5.946  0.00  0.00    -0.366 N 
HETATM    6  C   UNK N   1      27.298  20.690   6.024  0.00  0.00     0.125 C 
HETATM    7  C   UNK N   1      26.100  20.824   5.079  0.00  0.00     0.024 C 
BRANCH   5   8
HETATM    8  C   UNK N   1      28.222  18.647   7.130  0.00  0.00     0.117 A 
HETATM    9  C   UNK N   1      29.349  17.816   7.138  0.00  0.00     0.051 A 
HETATM   10  C   UNK N   1      29.732  17.194   8.320  0.00  0.00     0.030 A 
HETATM   11  C   UNK N   1      28.986  17.418   9.472  0.00  0.00     0.022 A 
HETATM   12  C   UNK N   1      29.391  16.784  10.754  0.00  0.00     0.069 C 
HETATM   13  N   UNK N   1      27.894  18.225   9.423  0.00  0.00    -0.304 N 
HETATM   14  N   UNK N   1      27.522  18.823   8.285  0.00  0.00    -0.285 N 
ATOM     15  HN  UNK N   1      27.347  18.377  10.270  1.00  0.00     0.186 HD
ATOM     16  HN  UNK N   1      26.697  19.423   8.283  1.00  0.00     0.188 HD
ENDBRANCH   5   8
ENDBRANCH   1   2
BRANCH   1  17
HETATM   17  C   UNK N   1      24.199  19.725   3.147  0.00  0.00     0.002 C 
BRANCH  17  18
HETATM   18  C   UNK N   1      22.901  20.446   2.847  0.00  0.00     0.027 C 
BRANCH  18  19
HETATM   19  C   UNK N   1      21.722  19.542   3.145  0.00  0.00     0.175 C 
BRANCH  19  20
HETATM   20  O   UNK N   1      21.609  19.394   4.506  0.00  0.00    -0.351 OA
BRANCH  20  21
HETATM   21  C   UNK N   1      21.518  18.196   5.123  0.00  0.00     0.068 A 
HETATM   22  C   UNK N   1      21.163  18.165   6.470  0.00  0.00     0.038 A 
HETATM   23  C   UNK N   1      21.062  16.950   7.144  0.00  0.00     0.020 A 
HETATM   24  C   UNK N   1      21.314  15.737   6.486  0.00  0.00     0.039 A 
HETATM   25  C   UNK N   1      21.674  15.770   5.128  0.00  0.00     0.020 A 
HETATM   26  C   UNK N   1      21.777  16.989   4.450  0.00  0.00     0.038 A 
BRANCH  24  27
HETATM   27  C   UNK N   1      21.209  14.422   7.192  0.00  0.00     0.293 C 
HETATM   28  O   UNK N   1      20.201  13.751   7.022  0.00  0.00    -0.259 OA
BRANCH  27  29
HETATM   29  O   UNK N   1      22.173  13.928   8.020  0.00  0.00    -0.318 OA
BRANCH  29  30
HETATM   30  C   UNK N   1      23.511  13.815   7.719  0.00  0.00     0.174 C 
HETATM   31  C   UNK N   1      24.143  12.744   8.581  0.00  0.00     0.034 C 
ENDBRANCH  29  30
ENDBRANCH  27  29
ENDBRANCH  24  27
ENDBRANCH  20  21
ENDBRANCH  19  20
ENDBRANCH  18  19
ENDBRANCH  17  18
ENDBRANCH   1  17
TORSDOF 10
ENDMDL
MODEL 7
REMARK VINA RESULT:      -6.0      2.961      5.076
REMARK  10 active torsions:
REMARK  status: ('A' for Active; 'I' for Inactive)
REMARK    1  A    between atoms: C_5  and  N_10 
REMARK    2  A    between atoms: C_13  and  C_16 
REMARK    3  A    between atoms: C_16  and  C_17 
REMARK    4  A    between atoms: C_17  and  C_18 
REMARK    5  A    between atoms: C_18  and  C_19 
REMARK    6  A    between atoms: C_19  and  O_20 
REMARK    7  A    between atoms: O_20  and  C_21 
REMARK    8  A    between atoms: C_24  and  C_27 
REMARK    9  A    between atoms: C_27  and  O_29 
REMARK   10  A    between atoms: O_29  and  C_30 
ROOT
HETATM    1  C   UNK N   1      29.226  28.813  -5.734  0.00  0.00     0.005 C 
ENDROOT
BRANCH   1   2
HETATM    2  C   UNK N   1      29.281  27.379  -5.263  0.00  0.00    -0.012 C 
HETATM    3  C   UNK N   1      30.132  27.259  -4.008  0.00  0.00     0.024 C 
HETATM    4  C   UNK N   1      30.019  25.828  -3.503  0.00  0.00     0.125 C 
HETATM    5  N   UNK N   1      30.413  24.903  -4.548  0.00  0.00    -0.366 N 
HETATM    6  C   UNK N   1      29.779  25.008  -5.849  0.00  0.00     0.125 C 
HETATM    7  C   UNK N   1      29.832  26.455  -6.348  0.00  0.00     0.024 C 
BRANCH   5   8
HETATM    8  C   UNK N   1      31.301  23.826  -4.256  0.00  0.00     0.117 A 
HETATM    9  C   UNK N   1      31.091  23.017  -3.134  0.00  0.00     0.051 A 
HETATM   10  C   UNK N   1      31.929  21.931  -2.906  0.00  0.00     0.030 A 
HETATM   11  C   UNK N   1      32.956  21.672  -3.805  0.00  0.00     0.022 A 
HETATM   12  C   UNK N   1      33.849  20.503  -3.597  0.00  0.00     0.069 C 
HETATM   13  N   UNK N   1      33.134  22.486  -4.879  0.00  0.00    -0.304 N 
HETATM   14  N   UNK N   1      32.330  23.533  -5.100  0.00  0.00    -0.285 N 
ATOM     15  HN  UNK N   1      33.896  22.295  -5.530  1.00  0.00     0.186 HD
ATOM     16  HN  UNK N   1      32.491  24.124  -5.915  1.00  0.00     0.188 HD
ENDBRANCH   5   8
ENDBRANCH   1   2
BRANCH   1  17
HETATM   17  C   UNK N   1      28.850  29.686  -4.553  0.00  0.00     0.002 C 
BRANCH  17  18
HETATM   18  C   UNK N   1      27.347  29.847  -4.459  0.00  0.00     0.027 C 
BRANCH  18  19
HETATM   19  C   UNK N   1      26.850  29.335  -3.122  0.00  0.00     0.175 C 
BRANCH  19  20
HETATM   20  O   UNK N   1      25.762  28.524  -3.335  0.00  0.00    -0.351 OA
BRANCH  20  21
HETATM   21  C   UNK N   1      25.801  27.405  -4.091  0.00  0.00     0.068 A 
HETATM   22  C   UNK N   1      26.364  26.252  -3.547  0.00  0.00     0.038 A 
HETATM   23  C   UNK N   1      26.426  25.078  -4.296  0.00  0.00     0.020 A 
HETATM   24  C   UNK N   1      25.928  25.031  -5.605  0.00  0.00     0.039 A 
HETATM   25  C   UNK N   1      25.362  26.195  -6.153  0.00  0.00     0.020 A 
HETATM   26  C   UNK N   1      25.299  27.375  -5.404  0.00  0.00     0.038 A 
BRANCH  24  27
HETATM   27  C   UNK N   1      25.984  23.780  -6.424  0.00  0.00     0.293 C 
HETATM   28  O   UNK N   1      25.202  22.878  -6.161  0.00  0.00    -0.259 OA
BRANCH  27  29
HETATM   29  O   UNK N   1      26.861  23.585  -7.450  0.00  0.00    -0.318 OA
BRANCH  29  30
HETATM   30  C   UNK N   1      27.364  22.370  -7.857  0.00  0.00     0.174 C 
HETATM   31  C   UNK N   1      28.461  21.926  -6.913  0.00  0.00     0.034 C 
ENDBRANCH  29  30
ENDBRANCH  27  29
ENDBRANCH  24  27
ENDBRANCH  20  21
ENDBRANCH  19  20
ENDBRANCH  18  19
ENDBRANCH  17  18
ENDBRANCH   1  17
TORSDOF 10
ENDMDL
MODEL 8
REMARK VINA RESULT:      -6.0     18.896     22.448
REMARK  10 active torsions:
REMARK  status: ('A' for Active; 'I' for Inactive)
REMARK    1  A    between atoms: C_5  and  N_10 
REMARK    2  A    between atoms: C_13  and  C_16 
REMARK    3  A    between atoms: C_16  and  C_17 
REMARK    4  A    between atoms: C_17  and  C_18 
REMARK    5  A    between atoms: C_18  and  C_19 
REMARK    6  A    between atoms: C_19  and  O_20 
REMARK    7  A    between atoms: O_20  and  C_21 
REMARK    8  A    between atoms: C_24  and  C_27 
REMARK    9  A    between atoms: C_27  and  O_29 
REMARK   10  A    between atoms: O_29  and  C_30 
ROOT
HETATM    1  C   UNK N   1      36.106  15.048  11.786  0.00  0.00     0.005 C 
ENDROOT
BRANCH   1   2
HETATM    2  C   UNK N   1      35.309  15.314  10.530  0.00  0.00    -0.012 C 
HETATM    3  C   UNK N   1      35.073  16.804  10.349  0.00  0.00     0.024 C 
HETATM    4  C   UNK N   1      34.405  17.011   8.998  0.00  0.00     0.125 C 
HETATM    5  N   UNK N   1      33.186  16.229   8.925  0.00  0.00    -0.366 N 
HETATM    6  C   UNK N   1      33.247  14.810   9.223  0.00  0.00     0.125 C 
HETATM    7  C   UNK N   1      33.969  14.579  10.554  0.00  0.00     0.024 C 
BRANCH   5   8
HETATM    8  C   UNK N   1      31.984  16.818   8.434  0.00  0.00     0.117 A 
HETATM    9  C   UNK N   1      31.361  16.311   7.287  0.00  0.00     0.051 A 
HETATM   10  C   UNK N   1      30.155  16.857   6.865  0.00  0.00     0.030 A 
HETATM   11  C   UNK N   1      29.591  17.894   7.599  0.00  0.00     0.022 A 
HETATM   12  C   UNK N   1      28.289  18.477   7.183  0.00  0.00     0.069 C 
HETATM   13  N   UNK N   1      30.229  18.365   8.702  0.00  0.00    -0.304 N 
HETATM   14  N   UNK N   1      31.392  17.842   9.109  0.00  0.00    -0.285 N 
ATOM     15  HN  UNK N   1      29.814  19.133   9.230  1.00  0.00     0.186 HD
ATOM     16  HN  UNK N   1      31.845  18.220   9.942  1.00  0.00     0.188 HD
ENDBRANCH   5   8
ENDBRANCH   1   2
BRANCH   1  17
HETATM   17  C   UNK N   1      36.655  13.637  11.709  0.00  0.00     0.002 C 
BRANCH  17  18
HETATM   18  C   UNK N   1      36.537  12.940  13.048  0.00  0.00     0.027 C 
BRANCH  18  19
HETATM   19  C   UNK N   1      35.095  12.549  13.307  0.00  0.00     0.175 C 
BRANCH  19  20
HETATM   20  O   UNK N   1      34.691  13.105  14.495  0.00  0.00    -0.351 OA
BRANCH  20  21
HETATM   21  C   UNK N   1      34.853  12.505  15.695  0.00  0.00     0.068 A 
HETATM   22  C   UNK N   1      35.006  13.306  16.825  0.00  0.00     0.038 A 
HETATM   23  C   UNK N   1      35.180  12.727  18.080  0.00  0.00     0.020 A 
HETATM   24  C   UNK N   1      35.205  11.333  18.234  0.00  0.00     0.039 A 
HETATM   25  C   UNK N   1      35.053  10.527  17.093  0.00  0.00     0.020 A 
HETATM   26  C   UNK N   1      34.879  11.106  15.831  0.00  0.00     0.038 A 
BRANCH  24  27
HETATM   27  C   UNK N   1      35.388  10.692  19.573  0.00  0.00     0.293 C 
HETATM   28  O   UNK N   1      36.301   9.892  19.714  0.00  0.00    -0.259 OA
BRANCH  27  29
HETATM   29  O   UNK N   1      34.591  10.947  20.651  0.00  0.00    -0.318 OA
BRANCH  29  30
HETATM   30  C   UNK N   1      34.115  10.008  21.538  0.00  0.00     0.174 C 
HETATM   31  C   UNK N   1      32.770  10.445  22.075  0.00  0.00     0.034 C 
ENDBRANCH  29  30
ENDBRANCH  27  29
ENDBRANCH  24  27
ENDBRANCH  20  21
ENDBRANCH  19  20
ENDBRANCH  18  19
ENDBRANCH  17  18
ENDBRANCH   1  17
TORSDOF 10
ENDMDL
MODEL 9
REMARK VINA RESULT:      -6.0     12.177     13.861
REMARK  10 active torsions:
REMARK  status: ('A' for Active; 'I' for Inactive)
REMARK    1  A    between atoms: C_5  and  N_10 
REMARK    2  A    between atoms: C_13  and  C_16 
REMARK    3  A    between atoms: C_16  and  C_17 
REMARK    4  A    between atoms: C_17  and  C_18 
REMARK    5  A    between atoms: C_18  and  C_19 
REMARK    6  A    between atoms: C_19  and  O_20 
REMARK    7  A    between atoms: O_20  and  C_21 
REMARK    8  A    between atoms: C_24  and  C_27 
REMARK    9  A    between atoms: C_27  and  O_29 
REMARK   10  A    between atoms: O_29  and  C_30 
ROOT
HETATM    1  C   UNK N   1      31.261  16.335   7.650  0.00  0.00     0.005 C 
ENDROOT
BRANCH   1   2
HETATM    2  C   UNK N   1      30.307  17.158   6.817  0.00  0.00    -0.012 C 
HETATM    3  C   UNK N   1      29.098  17.574   7.639  0.00  0.00     0.024 C 
HETATM    4  C   UNK N   1      28.262  18.522   6.792  0.00  0.00     0.125 C 
HETATM    5  N   UNK N   1      27.905  17.881   5.541  0.00  0.00    -0.366 N 
HETATM    6  C   UNK N   1      28.959  17.306   4.726  0.00  0.00     0.125 C 
HETATM    7  C   UNK N   1      29.848  16.393   5.576  0.00  0.00     0.024 C 
BRANCH   5   8
HETATM    8  C   UNK N   1      26.565  17.943   5.059  0.00  0.00     0.117 A 
HETATM    9  C   UNK N   1      26.130  17.073   4.053  0.00  0.00     0.051 A 
HETATM   10  C   UNK N   1      24.801  17.105   3.647  0.00  0.00     0.030 A 
HETATM   11  C   UNK N   1      23.931  18.002   4.257  0.00  0.00     0.022 A 
HETATM   12  C   UNK N   1      22.500  18.037   3.859  0.00  0.00     0.069 C 
HETATM   13  N   UNK N   1      24.392  18.837   5.225  0.00  0.00    -0.304 N 
HETATM   14  N   UNK N   1      25.672  18.809   5.616  0.00  0.00    -0.285 N 
ATOM     15  HN  UNK N   1      23.751  19.499   5.661  1.00  0.00     0.186 HD
ATOM     16  HN  UNK N   1      25.986  19.450   6.345  1.00  0.00     0.188 HD
ENDBRANCH   5   8
ENDBRANCH   1   2
BRANCH   1  17
HETATM   17  C   UNK N   1      31.763  17.201   8.790  0.00  0.00     0.002 C 
BRANCH  17  18
HETATM   18  C   UNK N   1      32.604  18.345   8.266  0.00  0.00     0.027 C 
BRANCH  18  19
HETATM   19  C   UNK N   1      34.014  17.868   7.979  0.00  0.00     0.175 C 
BRANCH  19  20
HETATM   20  O   UNK N   1      34.282  18.054   6.645  0.00  0.00    -0.351 OA
BRANCH  20  21
HETATM   21  C   UNK N   1      34.012  17.134   5.692  0.00  0.00     0.068 A 
HETATM   22  C   UNK N   1      33.237  17.516   4.598  0.00  0.00     0.038 A 
HETATM   23  C   UNK N   1      32.932  16.597   3.597  0.00  0.00     0.020 A 
HETATM   24  C   UNK N   1      33.395  15.275   3.666  0.00  0.00     0.039 A 
HETATM   25  C   UNK N   1      34.175  14.891   4.771  0.00  0.00     0.020 A 
HETATM   26  C   UNK N   1      34.481  15.812   5.779  0.00  0.00     0.038 A 
BRANCH  24  27
HETATM   27  C   UNK N   1      33.081  14.274   2.600  0.00  0.00     0.293 C 
HETATM   28  O   UNK N   1      32.027  13.658   2.673  0.00  0.00    -0.259 OA
BRANCH  27  29
HETATM   29  O   UNK N   1      33.905  14.004   1.547  0.00  0.00    -0.318 OA
BRANCH  29  30
HETATM   30  C   UNK N   1      35.142  13.405   1.628  0.00  0.00     0.174 C 
HETATM   31  C   UNK N   1      34.983  11.942   1.979  0.00  0.00     0.034 C 
ENDBRANCH  29  30
ENDBRANCH  27  29
ENDBRANCH  24  27
ENDBRANCH  20  21
ENDBRANCH  19  20
ENDBRANCH  18  19
ENDBRANCH  17  18
ENDBRANCH   1  17
TORSDOF 10
ENDMDL
