REMARK  10 active torsions:
REMARK  status: ('A' for Active; 'I' for Inactive)
REMARK    1  A    between atoms: C_5  and  N_10 
REMARK    2  A    between atoms: C_13  and  C_16 
REMARK    3  A    between atoms: C_16  and  C_17 
REMARK    4  A    between atoms: C_17  and  C_18 
REMARK    5  A    between atoms: C_18  and  C_19 
REMARK    6  A    between atoms: C_19  and  O_20 
REMARK    7  A    between atoms: O_20  and  C_21 
REMARK    8  A    between atoms: C_24  and  C_27 
REMARK    9  A    between atoms: C_27  and  O_29 
REMARK   10  A    between atoms: O_29  and  C_30 
ROOT
HETATM    1  C   UNK N   1      -1.490   3.115   0.601  0.00  0.00     0.005 C 
ENDROOT
BRANCH   1   2
HETATM    2  C   UNK N   1      -2.326   2.062  -0.088  0.00  0.00    -0.012 C 
HETATM    3  C   UNK N   1      -3.803   2.275   0.202  0.00  0.00     0.024 C 
HETATM    4  C   UNK N   1      -4.592   1.283  -0.640  0.00  0.00     0.125 C 
HETATM    5  N   UNK N   1      -4.146  -0.068  -0.358  0.00  0.00    -0.366 N 
HETATM    6  C   UNK N   1      -2.730  -0.370  -0.454  0.00  0.00     0.125 C 
HETATM    7  C   UNK N   1      -1.915   0.654   0.341  0.00  0.00     0.024 C 
BRANCH   5   8
HETATM    8  C   UNK N   1      -5.098  -1.105  -0.131  0.00  0.00     0.117 A 
HETATM    9  C   UNK N   1      -6.468  -0.820  -0.113  0.00  0.00     0.051 A 
HETATM   10  C   UNK N   1      -7.381  -1.857   0.042  0.00  0.00     0.030 A 
HETATM   11  C   UNK N   1      -6.908  -3.158   0.170  0.00  0.00     0.022 A 
HETATM   12  C   UNK N   1      -7.865  -4.286   0.311  0.00  0.00     0.069 C 
HETATM   13  N   UNK N   1      -5.570  -3.394   0.156  0.00  0.00    -0.304 N 
HETATM   14  N   UNK N   1      -4.689  -2.397   0.009  0.00  0.00    -0.285 N 
ATOM     15  HN  UNK N   1      -5.230  -4.350   0.260  1.00  0.00     0.186 HD
ATOM     16  HN  UNK N   1      -3.691  -2.609   0.003  1.00  0.00     0.188 HD
ENDBRANCH   5   8
ENDBRANCH   1   2
BRANCH   1  17
HETATM   17  C   UNK N   1      -0.578   3.747  -0.433  0.00  0.00     0.002 C 
BRANCH  17  18
HETATM   18  C   UNK N   1       0.854   3.775   0.058  0.00  0.00     0.027 C 
BRANCH  18  19
HETATM   19  C   UNK N   1       1.425   2.371   0.080  0.00  0.00     0.175 C 
BRANCH  19  20
HETATM   20  O   UNK N   1       2.796   2.450   0.077  0.00  0.00    -0.351 OA
BRANCH  20  21
HETATM   21  C   UNK N   1       3.607   1.369   0.063  0.00  0.00     0.068 A 
HETATM   22  C   UNK N   1       4.984   1.570  -0.011  0.00  0.00     0.038 A 
HETATM   23  C   UNK N   1       5.854   0.482  -0.032  0.00  0.00     0.020 A 
HETATM   24  C   UNK N   1       5.367  -0.832   0.021  0.00  0.00     0.039 A 
HETATM   25  C   UNK N   1       3.978  -1.033   0.094  0.00  0.00     0.020 A 
HETATM   26  C   UNK N   1       3.102   0.058   0.114  0.00  0.00     0.038 A 
BRANCH  24  27
HETATM   27  C   UNK N   1       6.285  -2.013   0.002  0.00  0.00     0.293 C 
HETATM   28  O   UNK N   1       5.793  -3.132   0.022  0.00  0.00    -0.259 OA
BRANCH  27  29
HETATM   29  O   UNK N   1       7.645  -1.915  -0.033  0.00  0.00    -0.318 OA
BRANCH  29  30
HETATM   30  C   UNK N   1       8.367  -0.743  -0.021  0.00  0.00     0.174 C 
HETATM   31  C   UNK N   1       9.848  -1.052  -0.048  0.00  0.00     0.034 C 
ENDBRANCH  29  30
ENDBRANCH  27  29
ENDBRANCH  24  27
ENDBRANCH  20  21
ENDBRANCH  19  20
ENDBRANCH  18  19
ENDBRANCH  17  18
ENDBRANCH   1  17
TORSDOF 10
