MODEL 1
REMARK VINA RESULT:      -8.6      0.000      0.000
REMARK  4 active torsions:
REMARK  status: ('A' for Active; 'I' for Inactive)
REMARK    1  A    between atoms: O_1  and  N_2 
REMARK    2  A    between atoms: N_7  and  C_8 
REMARK    3  A    between atoms: C_8  and  C_9 
REMARK    4  A    between atoms: C_24  and  C_26 
ROOT
HETATM    1  N   UNK N   1      34.577  17.955   7.811  0.00  0.00    -0.263 N 
ATOM      2  HN  UNK N   1      34.216  17.938   6.857  1.00  0.00     0.194 HD
HETATM    3  C   UNK N   1      34.451  16.910   8.550  0.00  0.00     0.135 A 
HETATM    4  C   UNK N   1      34.945  16.748   9.915  0.00  0.00     0.278 A 
HETATM    5  O   UNK N   1      35.536  17.606  10.548  0.00  0.00    -0.265 OA
HETATM    6  N   UNK N   1      34.665  15.496  10.361  0.00  0.00    -0.307 N 
HETATM    7  C   UNK N   1      34.039  14.794   9.301  0.00  0.00     0.051 A 
HETATM    8  C   UNK N   1      33.654  13.455   9.306  0.00  0.00     0.031 A 
HETATM    9  C   UNK N   1      33.080  12.927   8.143  0.00  0.00     0.003 A 
HETATM   10  C   UNK N   1      32.870  13.743   7.015  0.00  0.00     0.013 A 
HETATM   11  C   UNK N   1      33.232  15.109   7.015  0.00  0.00    -0.011 A 
HETATM   12  C   UNK N   1      33.856  15.610   8.187  0.00  0.00     0.036 A 
ENDROOT
BRANCH   6  13
HETATM   13  C   UNK N   1      34.916  14.910  11.678  0.00  0.00     0.174 C 
BRANCH  13  14
HETATM   14  C   UNK N   1      35.914  13.783  11.716  0.00  0.00    -0.003 A 
HETATM   15  C   UNK N   1      37.100  13.851  10.965  0.00  0.00     0.054 A 
HETATM   16  C   UNK N   1      38.004  12.781  10.970  0.00  0.00     0.117 A 
HETATM   17  F   UNK N   1      39.118  12.835  10.203  0.00  0.00    -0.206 F 
HETATM   18  C   UNK N   1      37.747  11.651  11.752  0.00  0.00     0.054 A 
HETATM   19  C   UNK N   1      36.589  11.601  12.528  0.00  0.00     0.003 A 
HETATM   20  C   UNK N   1      36.269  10.435  13.408  0.00  0.00     0.212 C 
HETATM   21  C   UNK N   1      35.672  12.657  12.513  0.00  0.00     0.088 A 
HETATM   22  O   UNK N   1      35.545  10.887  14.533  0.00  0.00    -0.362 OA
HETATM   23  C   UNK N   1      34.329  11.427  14.054  0.00  0.00     0.345 C 
HETATM   24  O   UNK N   1      34.566  12.566  13.294  0.00  0.00    -0.325 OA
ENDBRANCH  13  14
ENDBRANCH   6  13
BRANCH   1  25
HETATM   25  O   UNK N   1      35.161  19.045   8.261  0.00  0.00    -0.289 OA
HETATM   26  H   UNK N   1      35.568  19.109   9.102  0.00  0.00     0.244 HD
ENDBRANCH   1  25
BRANCH  11  27
HETATM   27  C   UNK N   1      32.906  15.933   5.814  0.00  0.00    -0.025 A 
HETATM   28  C   UNK N   1      33.625  15.757   4.619  0.00  0.00     0.012 A 
HETATM   29  C   UNK N   1      33.299  16.496   3.476  0.00  0.00     0.001 A 
HETATM   30  C   UNK N   1      32.231  17.397   3.505  0.00  0.00     0.000 A 
HETATM   31  C   UNK N   1      31.493  17.561   4.676  0.00  0.00     0.001 A 
HETATM   32  C   UNK N   1      31.832  16.833   5.817  0.00  0.00     0.012 A 
ENDBRANCH  11  27
TORSDOF 4
ENDMDL
MODEL 2
REMARK VINA RESULT:      -8.5      4.810      7.099
REMARK  4 active torsions:
REMARK  status: ('A' for Active; 'I' for Inactive)
REMARK    1  A    between atoms: O_1  and  N_2 
REMARK    2  A    between atoms: N_7  and  C_8 
REMARK    3  A    between atoms: C_8  and  C_9 
REMARK    4  A    between atoms: C_24  and  C_26 
ROOT
HETATM    1  N   UNK N   1      27.029  19.724   7.111  0.00  0.00    -0.263 N 
ATOM      2  HN  UNK N   1      26.534  20.003   6.264  1.00  0.00     0.194 HD
HETATM    3  C   UNK N   1      27.868  18.751   7.059  0.00  0.00     0.135 A 
HETATM    4  C   UNK N   1      28.688  18.253   8.161  0.00  0.00     0.278 A 
HETATM    5  O   UNK N   1      28.670  18.693   9.297  0.00  0.00    -0.265 OA
HETATM    6  N   UNK N   1      29.485  17.244   7.722  0.00  0.00    -0.307 N 
HETATM    7  C   UNK N   1      29.254  17.089   6.332  0.00  0.00     0.051 A 
HETATM    8  C   UNK N   1      29.917  16.217   5.473  0.00  0.00     0.031 A 
HETATM    9  C   UNK N   1      29.574  16.236   4.115  0.00  0.00     0.003 A 
HETATM   10  C   UNK N   1      28.560  17.092   3.646  0.00  0.00     0.013 A 
HETATM   11  C   UNK N   1      27.863  17.958   4.518  0.00  0.00    -0.011 A 
HETATM   12  C   UNK N   1      28.262  17.957   5.880  0.00  0.00     0.036 A 
ENDROOT
BRANCH   6  13
HETATM   13  C   UNK N   1      30.420  16.413   8.480  0.00  0.00     0.174 C 
BRANCH  13  14
HETATM   14  C   UNK N   1      31.881  16.643   8.197  0.00  0.00    -0.003 A 
HETATM   15  C   UNK N   1      32.459  17.908   8.399  0.00  0.00     0.054 A 
HETATM   16  C   UNK N   1      33.808  18.127   8.092  0.00  0.00     0.117 A 
HETATM   17  F   UNK N   1      34.342  19.363   8.241  0.00  0.00    -0.206 F 
HETATM   18  C   UNK N   1      34.597  17.077   7.615  0.00  0.00     0.054 A 
HETATM   19  C   UNK N   1      34.033  15.812   7.452  0.00  0.00     0.003 A 
HETATM   20  C   UNK N   1      34.829  14.640   6.973  0.00  0.00     0.212 C 
HETATM   21  C   UNK N   1      32.682  15.589   7.737  0.00  0.00     0.088 A 
HETATM   22  O   UNK N   1      34.313  13.460   7.554  0.00  0.00    -0.362 OA
HETATM   23  C   UNK N   1      32.986  13.314   7.088  0.00  0.00     0.345 C 
HETATM   24  O   UNK N   1      32.182  14.339   7.574  0.00  0.00    -0.325 OA
ENDBRANCH  13  14
ENDBRANCH   6  13
BRANCH   1  25
HETATM   25  O   UNK N   1      26.795  20.367   8.235  0.00  0.00    -0.289 OA
HETATM   26  H   UNK N   1      27.187  21.190   8.457  0.00  0.00     0.244 HD
ENDBRANCH   1  25
BRANCH  11  27
HETATM   27  C   UNK N   1      26.745  18.779   3.966  0.00  0.00    -0.025 A 
HETATM   28  C   UNK N   1      25.416  18.340   4.093  0.00  0.00     0.012 A 
HETATM   29  C   UNK N   1      24.359  19.124   3.616  0.00  0.00     0.001 A 
HETATM   30  C   UNK N   1      24.616  20.368   3.035  0.00  0.00     0.000 A 
HETATM   31  C   UNK N   1      25.928  20.826   2.928  0.00  0.00     0.001 A 
HETATM   32  C   UNK N   1      26.979  20.035   3.391  0.00  0.00     0.012 A 
ENDBRANCH  11  27
TORSDOF 4
ENDMDL
MODEL 3
REMARK VINA RESULT:      -8.2      5.593      8.265
REMARK  4 active torsions:
REMARK  status: ('A' for Active; 'I' for Inactive)
REMARK    1  A    between atoms: O_1  and  N_2 
REMARK    2  A    between atoms: N_7  and  C_8 
REMARK    3  A    between atoms: C_8  and  C_9 
REMARK    4  A    between atoms: C_24  and  C_26 
ROOT
HETATM    1  N   UNK N   1      26.486  19.779   6.285  0.00  0.00    -0.263 N 
ATOM      2  HN  UNK N   1      25.747  20.048   5.636  1.00  0.00     0.194 HD
HETATM    3  C   UNK N   1      27.131  18.685   6.086  0.00  0.00     0.135 A 
HETATM    4  C   UNK N   1      28.240  18.173   6.887  0.00  0.00     0.278 A 
HETATM    5  O   UNK N   1      28.695  18.720   7.877  0.00  0.00    -0.265 OA
HETATM    6  N   UNK N   1      28.699  17.012   6.351  0.00  0.00    -0.307 N 
HETATM    7  C   UNK N   1      27.953  16.760   5.173  0.00  0.00     0.051 A 
HETATM    8  C   UNK N   1      28.147  15.713   4.275  0.00  0.00     0.031 A 
HETATM    9  C   UNK N   1      27.328  15.652   3.141  0.00  0.00     0.003 A 
HETATM   10  C   UNK N   1      26.315  16.608   2.938  0.00  0.00     0.013 A 
HETATM   11  C   UNK N   1      26.094  17.656   3.860  0.00  0.00    -0.011 A 
HETATM   12  C   UNK N   1      26.967  17.726   4.977  0.00  0.00     0.036 A 
ENDROOT
BRANCH   6  13
HETATM   13  C   UNK N   1      29.749  16.122   6.844  0.00  0.00     0.174 C 
BRANCH  13  14
HETATM   14  C   UNK N   1      31.161  16.522   6.507  0.00  0.00    -0.003 A 
HETATM   15  C   UNK N   1      31.449  17.189   5.304  0.00  0.00     0.054 A 
HETATM   16  C   UNK N   1      32.770  17.520   4.976  0.00  0.00     0.117 A 
HETATM   17  F   UNK N   1      33.042  18.116   3.790  0.00  0.00    -0.206 F 
HETATM   18  C   UNK N   1      33.808  17.219   5.862  0.00  0.00     0.054 A 
HETATM   19  C   UNK N   1      33.517  16.592   7.073  0.00  0.00     0.003 A 
HETATM   20  C   UNK N   1      34.577  16.268   8.077  0.00  0.00     0.212 C 
HETATM   21  C   UNK N   1      32.203  16.241   7.400  0.00  0.00     0.088 A 
HETATM   22  O   UNK N   1      34.024  16.339   9.375  0.00  0.00    -0.362 OA
HETATM   23  C   UNK N   1      33.021  15.345   9.454  0.00  0.00     0.345 C 
HETATM   24  O   UNK N   1      31.970  15.643   8.595  0.00  0.00    -0.325 OA
ENDBRANCH  13  14
ENDBRANCH   6  13
BRANCH   1  25
HETATM   25  O   UNK N   1      26.760  20.558   7.309  0.00  0.00    -0.289 OA
HETATM   26  H   UNK N   1      27.153  20.256   8.104  0.00  0.00     0.244 HD
ENDBRANCH   1  25
BRANCH  11  27
HETATM   27  C   UNK N   1      24.951  18.586   3.623  0.00  0.00    -0.025 A 
HETATM   28  C   UNK N   1      25.163  19.820   2.984  0.00  0.00     0.012 A 
HETATM   29  C   UNK N   1      24.091  20.679   2.720  0.00  0.00     0.001 A 
HETATM   30  C   UNK N   1      22.790  20.303   3.064  0.00  0.00     0.000 A 
HETATM   31  C   UNK N   1      22.563  19.070   3.674  0.00  0.00     0.001 A 
HETATM   32  C   UNK N   1      23.637  18.223   3.949  0.00  0.00     0.012 A 
ENDBRANCH  11  27
TORSDOF 4
ENDMDL
MODEL 4
REMARK VINA RESULT:      -8.2      3.120      8.364
REMARK  4 active torsions:
REMARK  status: ('A' for Active; 'I' for Inactive)
REMARK    1  A    between atoms: O_1  and  N_2 
REMARK    2  A    between atoms: N_7  and  C_8 
REMARK    3  A    between atoms: C_8  and  C_9 
REMARK    4  A    between atoms: C_24  and  C_26 
ROOT
HETATM    1  N   UNK N   1      33.208  11.499  10.086  0.00  0.00    -0.263 N 
ATOM      2  HN  UNK N   1      33.378  11.148  11.029  1.00  0.00     0.194 HD
HETATM    3  C   UNK N   1      34.119  12.191   9.499  0.00  0.00     0.135 A 
HETATM    4  C   UNK N   1      34.060  12.730   8.143  0.00  0.00     0.278 A 
HETATM    5  O   UNK N   1      33.115  12.605   7.384  0.00  0.00    -0.265 OA
HETATM    6  N   UNK N   1      35.223  13.371   7.850  0.00  0.00    -0.307 N 
HETATM    7  C   UNK N   1      36.084  13.226   8.967  0.00  0.00     0.051 A 
HETATM    8  C   UNK N   1      37.401  13.666   9.061  0.00  0.00     0.031 A 
HETATM    9  C   UNK N   1      38.108  13.396  10.239  0.00  0.00     0.003 A 
HETATM   10  C   UNK N   1      37.484  12.726  11.309  0.00  0.00     0.013 A 
HETATM   11  C   UNK N   1      36.138  12.303  11.231  0.00  0.00    -0.011 A 
HETATM   12  C   UNK N   1      35.458  12.545  10.009  0.00  0.00     0.036 A 
ENDROOT
BRANCH   6  13
HETATM   13  C   UNK N   1      35.589  14.107   6.641  0.00  0.00     0.174 C 
BRANCH  13  14
HETATM   14  C   UNK N   1      34.757  15.324   6.335  0.00  0.00    -0.003 A 
HETATM   15  C   UNK N   1      34.601  16.344   7.289  0.00  0.00     0.054 A 
HETATM   16  C   UNK N   1      33.790  17.452   7.015  0.00  0.00     0.117 A 
HETATM   17  F   UNK N   1      33.604  18.403   7.961  0.00  0.00    -0.206 F 
HETATM   18  C   UNK N   1      33.158  17.568   5.774  0.00  0.00     0.054 A 
HETATM   19  C   UNK N   1      33.345  16.575   4.812  0.00  0.00     0.003 A 
HETATM   20  C   UNK N   1      32.722  16.651   3.455  0.00  0.00     0.212 C 
HETATM   21  C   UNK N   1      34.138  15.455   5.085  0.00  0.00     0.088 A 
HETATM   22  O   UNK N   1      33.568  16.017   2.519  0.00  0.00    -0.362 OA
HETATM   23  C   UNK N   1      33.651  14.655   2.891  0.00  0.00     0.345 C 
HETATM   24  O   UNK N   1      34.299  14.522   4.113  0.00  0.00    -0.325 OA
ENDBRANCH  13  14
ENDBRANCH   6  13
BRANCH   1  25
HETATM   25  O   UNK N   1      32.064  11.233   9.495  0.00  0.00    -0.289 OA
HETATM   26  H   UNK N   1      31.437  11.888   9.253  0.00  0.00     0.244 HD
ENDBRANCH   1  25
BRANCH  11  27
HETATM   27  C   UNK N   1      35.517  11.672  12.432  0.00  0.00    -0.025 A 
HETATM   28  C   UNK N   1      34.885  12.468  13.403  0.00  0.00     0.012 A 
HETATM   29  C   UNK N   1      34.263  11.881  14.511  0.00  0.00     0.001 A 
HETATM   30  C   UNK N   1      34.240  10.490  14.646  0.00  0.00     0.000 A 
HETATM   31  C   UNK N   1      34.841   9.689  13.677  0.00  0.00     0.001 A 
HETATM   32  C   UNK N   1      35.472  10.279  12.582  0.00  0.00     0.012 A 
ENDBRANCH  11  27
TORSDOF 4
ENDMDL
MODEL 5
REMARK VINA RESULT:      -8.2     11.585     13.375
REMARK  4 active torsions:
REMARK  status: ('A' for Active; 'I' for Inactive)
REMARK    1  A    between atoms: O_1  and  N_2 
REMARK    2  A    between atoms: N_7  and  C_8 
REMARK    3  A    between atoms: C_8  and  C_9 
REMARK    4  A    between atoms: C_24  and  C_26 
ROOT
HETATM    1  N   UNK N   1      20.940  18.523   6.549  0.00  0.00    -0.263 N 
ATOM      2  HN  UNK N   1      21.060  19.108   5.722  1.00  0.00     0.194 HD
HETATM    3  C   UNK N   1      20.969  17.243   6.424  0.00  0.00     0.135 A 
HETATM    4  C   UNK N   1      20.857  16.264   7.502  0.00  0.00     0.278 A 
HETATM    5  O   UNK N   1      20.703  16.538   8.680  0.00  0.00    -0.265 OA
HETATM    6  N   UNK N   1      20.972  15.007   6.997  0.00  0.00    -0.307 N 
HETATM    7  C   UNK N   1      21.213  15.126   5.605  0.00  0.00     0.051 A 
HETATM    8  C   UNK N   1      21.467  14.085   4.716  0.00  0.00     0.031 A 
HETATM    9  C   UNK N   1      21.719  14.406   3.376  0.00  0.00     0.003 A 
HETATM   10  C   UNK N   1      21.682  15.744   2.942  0.00  0.00     0.013 A 
HETATM   11  C   UNK N   1      21.396  16.802   3.834  0.00  0.00    -0.011 A 
HETATM   12  C   UNK N   1      21.192  16.458   5.196  0.00  0.00     0.036 A 
ENDROOT
BRANCH   6  13
HETATM   13  C   UNK N   1      20.866  13.723   7.689  0.00  0.00     0.174 C 
BRANCH  13  14
HETATM   14  C   UNK N   1      22.102  13.264   8.416  0.00  0.00    -0.003 A 
HETATM   15  C   UNK N   1      23.372  13.410   7.832  0.00  0.00     0.054 A 
HETATM   16  C   UNK N   1      24.514  12.941   8.494  0.00  0.00     0.117 A 
HETATM   17  F   UNK N   1      25.727  13.039   7.900  0.00  0.00    -0.206 F 
HETATM   18  C   UNK N   1      24.400  12.355   9.758  0.00  0.00     0.054 A 
HETATM   19  C   UNK N   1      23.143  12.246  10.354  0.00  0.00     0.003 A 
HETATM   20  C   UNK N   1      22.955  11.656  11.715  0.00  0.00     0.212 C 
HETATM   21  C   UNK N   1      21.996  12.694   9.692  0.00  0.00     0.088 A 
HETATM   22  O   UNK N   1      21.855  12.280  12.344  0.00  0.00    -0.362 OA
HETATM   23  C   UNK N   1      20.710  11.980  11.570  0.00  0.00     0.345 C 
HETATM   24  O   UNK N   1      20.798  12.577  10.317  0.00  0.00    -0.325 OA
ENDBRANCH  13  14
ENDBRANCH   6  13
BRANCH   1  25
HETATM   25  O   UNK N   1      20.760  19.092   7.722  0.00  0.00    -0.289 OA
HETATM   26  H   UNK N   1      19.976  19.543   7.967  0.00  0.00     0.244 HD
ENDBRANCH   1  25
BRANCH  11  27
HETATM   27  C   UNK N   1      21.294  18.187   3.289  0.00  0.00    -0.025 A 
HETATM   28  C   UNK N   1      20.065  18.668   2.804  0.00  0.00     0.012 A 
HETATM   29  C   UNK N   1      19.951  19.980   2.330  0.00  0.00     0.001 A 
HETATM   30  C   UNK N   1      21.054  20.836   2.364  0.00  0.00     0.000 A 
HETATM   31  C   UNK N   1      22.271  20.380   2.868  0.00  0.00     0.001 A 
HETATM   32  C   UNK N   1      22.385  19.067   3.326  0.00  0.00     0.012 A 
ENDBRANCH  11  27
TORSDOF 4
ENDMDL
MODEL 6
REMARK VINA RESULT:      -8.2     15.323     19.303
REMARK  4 active torsions:
REMARK  status: ('A' for Active; 'I' for Inactive)
REMARK    1  A    between atoms: O_1  and  N_2 
REMARK    2  A    between atoms: N_7  and  C_8 
REMARK    3  A    between atoms: C_8  and  C_9 
REMARK    4  A    between atoms: C_24  and  C_26 
ROOT
HETATM    1  N   UNK N   1      30.705  22.582  -2.628  0.00  0.00    -0.263 N 
ATOM      2  HN  UNK N   1      31.567  22.055  -2.769  1.00  0.00     0.194 HD
HETATM    3  C   UNK N   1      29.903  22.752  -3.618  0.00  0.00     0.135 A 
HETATM    4  C   UNK N   1      28.614  23.439  -3.582  0.00  0.00     0.278 A 
HETATM    5  O   UNK N   1      28.133  23.965  -2.593  0.00  0.00    -0.265 OA
HETATM    6  N   UNK N   1      28.028  23.385  -4.806  0.00  0.00    -0.307 N 
HETATM    7  C   UNK N   1      28.875  22.627  -5.653  0.00  0.00     0.051 A 
HETATM    8  C   UNK N   1      28.619  22.263  -6.972  0.00  0.00     0.031 A 
HETATM    9  C   UNK N   1      29.566  21.475  -7.638  0.00  0.00     0.003 A 
HETATM   10  C   UNK N   1      30.758  21.093  -6.994  0.00  0.00     0.013 A 
HETATM   11  C   UNK N   1      31.037  21.484  -5.665  0.00  0.00    -0.011 A 
HETATM   12  C   UNK N   1      30.041  22.241  -4.995  0.00  0.00     0.036 A 
ENDROOT
BRANCH   6  13
HETATM   13  C   UNK N   1      26.770  23.983  -5.253  0.00  0.00     0.174 C 
BRANCH  13  14
HETATM   14  C   UNK N   1      26.854  25.404  -5.741  0.00  0.00    -0.003 A 
HETATM   15  C   UNK N   1      27.133  25.683  -7.090  0.00  0.00     0.054 A 
HETATM   16  C   UNK N   1      27.254  27.007  -7.530  0.00  0.00     0.117 A 
HETATM   17  F   UNK N   1      27.574  27.264  -8.820  0.00  0.00    -0.206 F 
HETATM   18  C   UNK N   1      27.062  28.062  -6.633  0.00  0.00     0.054 A 
HETATM   19  C   UNK N   1      26.747  27.786  -5.303  0.00  0.00     0.003 A 
HETATM   20  C   UNK N   1      26.502  28.868  -4.300  0.00  0.00     0.212 C 
HETATM   21  C   UNK N   1      26.644  26.466  -4.852  0.00  0.00     0.088 A 
HETATM   22  O   UNK N   1      25.563  28.415  -3.348  0.00  0.00    -0.362 OA
HETATM   23  C   UNK N   1      26.149  27.316  -2.678  0.00  0.00     0.345 C 
HETATM   24  O   UNK N   1      26.323  26.248  -3.552  0.00  0.00    -0.325 OA
ENDBRANCH  13  14
ENDBRANCH   6  13
BRANCH   1  25
HETATM   25  O   UNK N   1      30.438  23.073  -1.438  0.00  0.00    -0.289 OA
HETATM   26  H   UNK N   1      30.896  23.797  -1.057  0.00  0.00     0.244 HD
ENDBRANCH   1  25
BRANCH  11  27
HETATM   27  C   UNK N   1      32.356  21.112  -5.074  0.00  0.00    -0.025 A 
HETATM   28  C   UNK N   1      32.569  19.812  -4.583  0.00  0.00     0.012 A 
HETATM   29  C   UNK N   1      33.816  19.443  -4.065  0.00  0.00     0.001 A 
HETATM   30  C   UNK N   1      34.872  20.358  -4.060  0.00  0.00     0.000 A 
HETATM   31  C   UNK N   1      34.680  21.641  -4.569  0.00  0.00     0.001 A 
HETATM   32  C   UNK N   1      33.432  22.010  -5.070  0.00  0.00     0.012 A 
ENDBRANCH  11  27
TORSDOF 4
ENDMDL
MODEL 7
REMARK VINA RESULT:      -8.2      6.661     10.853
REMARK  4 active torsions:
REMARK  status: ('A' for Active; 'I' for Inactive)
REMARK    1  A    between atoms: O_1  and  N_2 
REMARK    2  A    between atoms: N_7  and  C_8 
REMARK    3  A    between atoms: C_8  and  C_9 
REMARK    4  A    between atoms: C_24  and  C_26 
ROOT
HETATM    1  N   UNK N   1      31.351  15.900   5.449  0.00  0.00    -0.263 N 
ATOM      2  HN  UNK N   1      32.185  16.118   5.994  1.00  0.00     0.194 HD
HETATM    3  C   UNK N   1      30.197  16.244   5.901  0.00  0.00     0.135 A 
HETATM    4  C   UNK N   1      28.912  16.049   5.235  0.00  0.00     0.278 A 
HETATM    5  O   UNK N   1      28.763  15.511   4.151  0.00  0.00    -0.265 OA
HETATM    6  N   UNK N   1      27.915  16.576   5.993  0.00  0.00    -0.307 N 
HETATM    7  C   UNK N   1      28.513  17.169   7.134  0.00  0.00     0.051 A 
HETATM    8  C   UNK N   1      27.861  17.887   8.133  0.00  0.00     0.031 A 
HETATM    9  C   UNK N   1      28.632  18.432   9.167  0.00  0.00     0.003 A 
HETATM   10  C   UNK N   1      30.024  18.226   9.206  0.00  0.00     0.013 A 
HETATM   11  C   UNK N   1      30.687  17.474   8.210  0.00  0.00    -0.011 A 
HETATM   12  C   UNK N   1      29.892  16.973   7.146  0.00  0.00     0.036 A 
ENDROOT
BRANCH   6  13
HETATM   13  C   UNK N   1      26.472  16.563   5.756  0.00  0.00     0.174 C 
BRANCH  13  14
HETATM   14  C   UNK N   1      25.932  17.696   4.925  0.00  0.00    -0.003 A 
HETATM   15  C   UNK N   1      26.802  18.618   4.319  0.00  0.00     0.054 A 
HETATM   16  C   UNK N   1      26.293  19.696   3.583  0.00  0.00     0.117 A 
HETATM   17  F   UNK N   1      27.139  20.608   3.047  0.00  0.00    -0.206 F 
HETATM   18  C   UNK N   1      24.913  19.840   3.418  0.00  0.00     0.054 A 
HETATM   19  C   UNK N   1      24.050  18.903   3.987  0.00  0.00     0.003 A 
HETATM   20  C   UNK N   1      22.566  18.983   3.824  0.00  0.00     0.212 C 
HETATM   21  C   UNK N   1      24.550  17.835   4.739  0.00  0.00     0.088 A 
HETATM   22  O   UNK N   1      22.027  17.677   3.824  0.00  0.00    -0.362 OA
HETATM   23  C   UNK N   1      22.304  17.115   5.092  0.00  0.00     0.345 C 
HETATM   24  O   UNK N   1      23.672  16.943   5.262  0.00  0.00    -0.325 OA
ENDBRANCH  13  14
ENDBRANCH   6  13
BRANCH   1  25
HETATM   25  O   UNK N   1      31.477  15.274   4.299  0.00  0.00    -0.289 OA
HETATM   26  H   UNK N   1      30.831  15.296   3.620  0.00  0.00     0.244 HD
ENDBRANCH   1  25
BRANCH  11  27
HETATM   27  C   UNK N   1      32.152  17.228   8.358  0.00  0.00    -0.025 A 
HETATM   28  C   UNK N   1      33.073  18.247   8.060  0.00  0.00     0.012 A 
HETATM   29  C   UNK N   1      34.446  18.039   8.236  0.00  0.00     0.001 A 
HETATM   30  C   UNK N   1      34.911  16.822   8.740  0.00  0.00     0.000 A 
HETATM   31  C   UNK N   1      34.005  15.814   9.065  0.00  0.00     0.001 A 
HETATM   32  C   UNK N   1      32.639  16.020   8.874  0.00  0.00     0.012 A 
ENDBRANCH  11  27
TORSDOF 4
ENDMDL
MODEL 8
REMARK VINA RESULT:      -8.1      3.515      5.505
REMARK  4 active torsions:
REMARK  status: ('A' for Active; 'I' for Inactive)
REMARK    1  A    between atoms: O_1  and  N_2 
REMARK    2  A    between atoms: N_7  and  C_8 
REMARK    3  A    between atoms: C_8  and  C_9 
REMARK    4  A    between atoms: C_24  and  C_26 
ROOT
HETATM    1  N   UNK N   1      30.515  17.338   3.551  0.00  0.00    -0.263 N 
ATOM      2  HN  UNK N   1      29.527  17.575   3.464  1.00  0.00     0.194 HD
HETATM    3  C   UNK N   1      31.052  17.293   4.718  0.00  0.00     0.135 A 
HETATM    4  C   UNK N   1      32.434  16.932   5.025  0.00  0.00     0.278 A 
HETATM    5  O   UNK N   1      33.277  16.636   4.196  0.00  0.00    -0.265 OA
HETATM    6  N   UNK N   1      32.629  16.955   6.369  0.00  0.00    -0.307 N 
HETATM    7  C   UNK N   1      31.388  17.274   6.977  0.00  0.00     0.051 A 
HETATM    8  C   UNK N   1      31.123  17.328   8.342  0.00  0.00     0.031 A 
HETATM    9  C   UNK N   1      29.818  17.626   8.752  0.00  0.00     0.003 A 
HETATM   10  C   UNK N   1      28.814  17.896   7.802  0.00  0.00     0.013 A 
HETATM   11  C   UNK N   1      29.084  17.871   6.416  0.00  0.00    -0.011 A 
HETATM   12  C   UNK N   1      30.402  17.519   6.023  0.00  0.00     0.036 A 
ENDROOT
BRANCH   6  13
HETATM   13  C   UNK N   1      33.859  16.721   7.126  0.00  0.00     0.174 C 
BRANCH  13  14
HETATM   14  C   UNK N   1      33.931  15.418   7.876  0.00  0.00    -0.003 A 
HETATM   15  C   UNK N   1      33.504  14.221   7.277  0.00  0.00     0.054 A 
HETATM   16  C   UNK N   1      33.533  13.019   7.996  0.00  0.00     0.117 A 
HETATM   17  F   UNK N   1      33.071  11.881   7.426  0.00  0.00    -0.206 F 
HETATM   18  C   UNK N   1      34.020  12.998   9.305  0.00  0.00     0.054 A 
HETATM   19  C   UNK N   1      34.480  14.180   9.887  0.00  0.00     0.003 A 
HETATM   20  C   UNK N   1      35.040  14.221  11.273  0.00  0.00     0.212 C 
HETATM   21  C   UNK N   1      34.437  15.388   9.183  0.00  0.00     0.088 A 
HETATM   22  O   UNK N   1      36.025  15.230  11.346  0.00  0.00    -0.362 OA
HETATM   23  C   UNK N   1      35.376  16.462  11.094  0.00  0.00     0.345 C 
HETATM   24  O   UNK N   1      34.907  16.508   9.787  0.00  0.00    -0.325 OA
ENDBRANCH  13  14
ENDBRANCH   6  13
BRANCH   1  25
HETATM   25  O   UNK N   1      31.215  17.083   2.466  0.00  0.00    -0.289 OA
HETATM   26  H   UNK N   1      30.995  17.409   1.615  0.00  0.00     0.244 HD
ENDBRANCH   1  25
BRANCH  11  27
HETATM   27  C   UNK N   1      27.993  18.246   5.469  0.00  0.00    -0.025 A 
HETATM   28  C   UNK N   1      27.995  19.510   4.853  0.00  0.00     0.012 A 
HETATM   29  C   UNK N   1      26.999  19.854   3.932  0.00  0.00     0.001 A 
HETATM   30  C   UNK N   1      26.008  18.929   3.593  0.00  0.00     0.000 A 
HETATM   31  C   UNK N   1      26.012  17.663   4.176  0.00  0.00     0.001 A 
HETATM   32  C   UNK N   1      26.997  17.330   5.105  0.00  0.00     0.012 A 
ENDBRANCH  11  27
TORSDOF 4
ENDMDL
MODEL 9
REMARK VINA RESULT:      -8.1      3.785      8.387
REMARK  4 active torsions:
REMARK  status: ('A' for Active; 'I' for Inactive)
REMARK    1  A    between atoms: O_1  and  N_2 
REMARK    2  A    between atoms: N_7  and  C_8 
REMARK    3  A    between atoms: C_8  and  C_9 
REMARK    4  A    between atoms: C_24  and  C_26 
ROOT
HETATM    1  N   UNK N   1      33.443  12.170   9.416  0.00  0.00    -0.263 N 
ATOM      2  HN  UNK N   1      34.008  11.792  10.177  1.00  0.00     0.194 HD
HETATM    3  C   UNK N   1      33.472  13.433   9.179  0.00  0.00     0.135 A 
HETATM    4  C   UNK N   1      32.763  14.131   8.109  0.00  0.00     0.278 A 
HETATM    5  O   UNK N   1      32.025  13.597   7.298  0.00  0.00    -0.265 OA
HETATM    6  N   UNK N   1      33.066  15.455   8.142  0.00  0.00    -0.307 N 
HETATM    7  C   UNK N   1      34.009  15.652   9.182  0.00  0.00     0.051 A 
HETATM    8  C   UNK N   1      34.642  16.847   9.511  0.00  0.00     0.031 A 
HETATM    9  C   UNK N   1      35.577  16.836  10.554  0.00  0.00     0.003 A 
HETATM   10  C   UNK N   1      35.839  15.651  11.267  0.00  0.00     0.013 A 
HETATM   11  C   UNK N   1      35.177  14.442  10.956  0.00  0.00    -0.011 A 
HETATM   12  C   UNK N   1      34.271  14.466   9.865  0.00  0.00     0.036 A 
ENDROOT
BRANCH   6  13
HETATM   13  C   UNK N   1      32.550  16.539   7.307  0.00  0.00     0.174 C 
BRANCH  13  14
HETATM   14  C   UNK N   1      31.222  17.113   7.723  0.00  0.00    -0.003 A 
HETATM   15  C   UNK N   1      31.128  17.971   8.832  0.00  0.00     0.054 A 
HETATM   16  C   UNK N   1      29.884  18.468   9.241  0.00  0.00     0.117 A 
HETATM   17  F   UNK N   1      29.798  19.251  10.342  0.00  0.00    -0.206 F 
HETATM   18  C   UNK N   1      28.730  18.139   8.525  0.00  0.00     0.054 A 
HETATM   19  C   UNK N   1      28.828  17.319   7.401  0.00  0.00     0.003 A 
HETATM   20  C   UNK N   1      27.637  16.953   6.574  0.00  0.00     0.212 C 
HETATM   21  C   UNK N   1      30.064  16.804   6.997  0.00  0.00     0.088 A 
HETATM   22  O   UNK N   1      28.038  16.784   5.230  0.00  0.00    -0.362 OA
HETATM   23  C   UNK N   1      28.946  15.700   5.202  0.00  0.00     0.345 C 
HETATM   24  O   UNK N   1      30.110  16.021   5.890  0.00  0.00    -0.325 OA
ENDBRANCH  13  14
ENDBRANCH   6  13
BRANCH   1  25
HETATM   25  O   UNK N   1      32.700  11.355   8.699  0.00  0.00    -0.289 OA
HETATM   26  H   UNK N   1      31.863  11.586   8.347  0.00  0.00     0.244 HD
ENDBRANCH   1  25
BRANCH  11  27
HETATM   27  C   UNK N   1      35.443  13.244  11.806  0.00  0.00    -0.025 A 
HETATM   28  C   UNK N   1      36.314  12.236  11.355  0.00  0.00     0.012 A 
HETATM   29  C   UNK N   1      36.602  11.130  12.163  0.00  0.00     0.001 A 
HETATM   30  C   UNK N   1      36.048  11.033  13.442  0.00  0.00     0.000 A 
HETATM   31  C   UNK N   1      35.205  12.039  13.911  0.00  0.00     0.001 A 
HETATM   32  C   UNK N   1      34.909  13.132  13.097  0.00  0.00     0.012 A 
ENDBRANCH  11  27
TORSDOF 4
ENDMDL
