REMARK  4 active torsions:
REMARK  status: ('A' for Active; 'I' for Inactive)
REMARK    1  A    between atoms: O_1  and  N_2 
REMARK    2  A    between atoms: N_7  and  C_8 
REMARK    3  A    between atoms: C_8  and  C_9 
REMARK    4  A    between atoms: C_24  and  C_26 
ROOT
HETATM    1  N   UNK N   1      -0.045  -2.835  -0.830  0.00  0.00    -0.263 N 
ATOM      2  HN  UNK N   1       0.623  -3.597  -0.948  1.00  0.00     0.194 HD
HETATM    3  C   UNK N   1       0.333  -1.751  -0.251  0.00  0.00     0.135 A 
HETATM    4  C   UNK N   1      -0.476  -0.553  -0.039  0.00  0.00     0.278 A 
HETATM    5  O   UNK N   1      -1.641  -0.431  -0.375  0.00  0.00    -0.265 OA
HETATM    6  N   UNK N   1       0.271   0.406   0.568  0.00  0.00    -0.307 N 
HETATM    7  C   UNK N   1       1.584  -0.106   0.720  0.00  0.00     0.051 A 
HETATM    8  C   UNK N   1       2.687   0.576   1.227  0.00  0.00     0.031 A 
HETATM    9  C   UNK N   1       3.918  -0.090   1.264  0.00  0.00     0.003 A 
HETATM   10  C   UNK N   1       4.022  -1.425   0.830  0.00  0.00     0.013 A 
HETATM   11  C   UNK N   1       2.900  -2.132   0.342  0.00  0.00    -0.011 A 
HETATM   12  C   UNK N   1       1.674  -1.421   0.268  0.00  0.00     0.036 A 
ENDROOT
BRANCH   6  13
HETATM   13  C   UNK N   1      -0.132   1.736   1.024  0.00  0.00     0.174 C 
BRANCH  13  14
HETATM   14  C   UNK N   1      -1.574   2.101   0.792  0.00  0.00    -0.003 A 
HETATM   15  C   UNK N   1      -2.607   1.346   1.373  0.00  0.00     0.054 A 
HETATM   16  C   UNK N   1      -3.947   1.664   1.118  0.00  0.00     0.117 A 
HETATM   17  F   UNK N   1      -4.934   0.898   1.641  0.00  0.00    -0.206 F 
HETATM   18  C   UNK N   1      -4.265   2.759   0.310  0.00  0.00     0.054 A 
HETATM   19  C   UNK N   1      -3.240   3.532  -0.235  0.00  0.00     0.003 A 
HETATM   20  C   UNK N   1      -3.512   4.733  -1.084  0.00  0.00     0.212 C 
HETATM   21  C   UNK N   1      -1.899   3.210  -0.001  0.00  0.00     0.088 A 
HETATM   22  O   UNK N   1      -2.478   5.677  -0.898  0.00  0.00    -0.362 OA
HETATM   23  C   UNK N   1      -1.281   5.076  -1.352  0.00  0.00     0.345 C 
HETATM   24  O   UNK N   1      -0.938   3.999  -0.543  0.00  0.00    -0.325 OA
ENDBRANCH  13  14
ENDBRANCH   6  13
BRANCH   1  25
HETATM   25  O   UNK N   1      -1.275  -2.981  -1.273  0.00  0.00    -0.289 OA
HETATM   26  H   UNK N   1      -1.803  -2.274  -1.589  0.00  0.00     0.244 HD
ENDBRANCH   1  25
BRANCH  11  27
HETATM   27  C   UNK N   1       3.066  -3.569  -0.025  0.00  0.00    -0.025 A 
HETATM   28  C   UNK N   1       4.349  -4.099  -0.246  0.00  0.00     0.012 A 
HETATM   29  C   UNK N   1       4.517  -5.455  -0.549  0.00  0.00     0.001 A 
HETATM   30  C   UNK N   1       3.408  -6.303  -0.605  0.00  0.00     0.000 A 
HETATM   31  C   UNK N   1       2.133  -5.795  -0.361  0.00  0.00     0.001 A 
HETATM   32  C   UNK N   1       1.969  -4.440  -0.074  0.00  0.00     0.012 A 
ENDBRANCH  11  27
TORSDOF 4
