MODEL 1
REMARK VINA RESULT:      -5.8      0.000      0.000
REMARK  8 active torsions:
REMARK  status: ('A' for Active; 'I' for Inactive)
REMARK    1  A    between atoms: C_5  and  C_6 
REMARK    2  A    between atoms: C_6  and  C_11 
REMARK    3  A    between atoms: C_11  and  C_12 
REMARK    4  A    between atoms: C_12  and  C_13 
REMARK    5  A    between atoms: C_13  and  O_14 
REMARK    6  A    between atoms: O_14  and  P_15 
REMARK    7  A    between atoms: P_15  and  O_16 
REMARK    8  A    between atoms: P_15  and  O_17 
ROOT
HETATM    1  N   UNK N   1      21.842  11.968  12.269  0.00  0.00    -0.275 N 
HETATM    2  N   UNK N   1      24.027  12.397  11.460  0.00  0.00    -0.298 N 
HETATM    3  C   UNK N   1      23.539  12.758  10.244  0.00  0.00     0.119 A 
HETATM    4 Cl   UNK N   1      24.676  13.265   9.004  0.00  0.00    -0.064 Cl
HETATM    5  C   UNK N   1      22.150  12.730  10.010  0.00  0.00     0.049 A 
HETATM    6  C   UNK N   1      23.194  12.007  12.473  0.00  0.00     0.328 A 
HETATM    7  C   UNK N   1      21.307  12.322  11.058  0.00  0.00     0.258 A 
HETATM    8  O   UNK N   1      23.655  11.702  13.557  0.00  0.00    -0.247 OA
HETATM    9  O   UNK N   1      20.098  12.290  10.906  0.00  0.00    -0.267 OA
HETATM   10  H   UNK N   1      21.247  11.683  12.999  0.00  0.00     0.173 HD
HETATM   11  H   UNK N   1      24.999  12.416  11.615  0.00  0.00     0.171 HD
ENDROOT
BRANCH   5  12
HETATM   12  C   UNK N   1      21.556  13.163   8.693  0.00  0.00     0.048 C 
BRANCH  12  13
HETATM   13  C   UNK N   1      21.241  14.650   8.628  0.00  0.00     0.007 C 
BRANCH  13  14
HETATM   14  C   UNK N   1      21.807  15.217   7.340  0.00  0.00     0.027 C 
BRANCH  14  15
HETATM   15  C   UNK N   1      20.718  15.868   6.506  0.00  0.00     0.180 C 
BRANCH  15  16
HETATM   16  O   UNK N   1      19.548  15.105   6.584  0.00  0.00    -0.297 OA
BRANCH  16  17
HETATM   17  P   UNK N   1      19.153  14.701   4.940  0.00  0.00     0.390 P 
HETATM   18  O   UNK N   1      17.874  15.448   5.404  0.00  0.00    -0.632 OA
BRANCH  17  19
HETATM   19  O   UNK N   1      17.900  13.551   4.591  0.00  0.00    -0.307 OA
HETATM   20  H   UNK N   1      17.636  12.791   5.132  0.00  0.00     0.222 HD
ENDBRANCH  17  19
BRANCH  17  21
HETATM   21  O   UNK N   1      19.354  13.249   5.873  0.00  0.00    -0.307 OA
HETATM   22  H   UNK N   1      18.872  12.413   5.771  0.00  0.00     0.222 HD
ENDBRANCH  17  21
ENDBRANCH  16  17
ENDBRANCH  15  16
ENDBRANCH  14  15
ENDBRANCH  13  14
ENDBRANCH  12  13
ENDBRANCH   5  12
TORSDOF 8
ENDMDL
MODEL 2
REMARK VINA RESULT:      -5.8      6.588      9.180
REMARK  8 active torsions:
REMARK  status: ('A' for Active; 'I' for Inactive)
REMARK    1  A    between atoms: C_5  and  C_6 
REMARK    2  A    between atoms: C_6  and  C_11 
REMARK    3  A    between atoms: C_11  and  C_12 
REMARK    4  A    between atoms: C_12  and  C_13 
REMARK    5  A    between atoms: C_13  and  O_14 
REMARK    6  A    between atoms: O_14  and  P_15 
REMARK    7  A    between atoms: P_15  and  O_16 
REMARK    8  A    between atoms: P_15  and  O_17 
ROOT
HETATM    1  N   UNK N   1      20.901  20.487   2.251  0.00  0.00    -0.275 N 
HETATM    2  N   UNK N   1      20.450  18.833   0.617  0.00  0.00    -0.298 N 
HETATM    3  C   UNK N   1      20.227  17.900   1.579  0.00  0.00     0.119 A 
HETATM    4 Cl   UNK N   1      19.785  16.273   1.080  0.00  0.00    -0.064 Cl
HETATM    5  C   UNK N   1      20.340  18.253   2.938  0.00  0.00     0.049 A 
HETATM    6  C   UNK N   1      20.781  20.120   0.940  0.00  0.00     0.328 A 
HETATM    7  C   UNK N   1      20.687  19.578   3.254  0.00  0.00     0.258 A 
HETATM    8  O   UNK N   1      20.962  20.941   0.059  0.00  0.00    -0.247 OA
HETATM    9  O   UNK N   1      20.789  19.933   4.416  0.00  0.00    -0.267 OA
HETATM   10  H   UNK N   1      21.144  21.414   2.478  0.00  0.00     0.173 HD
HETATM   11  H   UNK N   1      20.371  18.578  -0.331  0.00  0.00     0.171 HD
ENDROOT
BRANCH   5  12
HETATM   12  C   UNK N   1      20.060  17.266   4.044  0.00  0.00     0.048 C 
BRANCH  12  13
HETATM   13  C   UNK N   1      21.246  16.371   4.373  0.00  0.00     0.007 C 
BRANCH  13  14
HETATM   14  C   UNK N   1      21.938  16.907   5.612  0.00  0.00     0.027 C 
BRANCH  14  15
HETATM   15  C   UNK N   1      21.168  16.542   6.868  0.00  0.00     0.180 C 
BRANCH  15  16
HETATM   16  O   UNK N   1      20.787  17.709   7.540  0.00  0.00    -0.297 OA
BRANCH  16  17
HETATM   17  P   UNK N   1      19.715  17.182   8.802  0.00  0.00     0.390 P 
HETATM   18  O   UNK N   1      18.991  16.666   7.530  0.00  0.00    -0.632 OA
BRANCH  17  19
HETATM   19  O   UNK N   1      18.132  17.878   8.962  0.00  0.00    -0.307 OA
HETATM   20  H   UNK N   1      17.897  18.703   9.415  0.00  0.00     0.222 HD
ENDBRANCH  17  19
BRANCH  17  21
HETATM   21  O   UNK N   1      19.784  18.918   8.772  0.00  0.00    -0.307 OA
HETATM   22  H   UNK N   1      19.078  19.531   8.511  0.00  0.00     0.222 HD
ENDBRANCH  17  21
ENDBRANCH  16  17
ENDBRANCH  15  16
ENDBRANCH  14  15
ENDBRANCH  13  14
ENDBRANCH  12  13
ENDBRANCH   5  12
TORSDOF 8
ENDMDL
MODEL 3
REMARK VINA RESULT:      -5.6     14.903     16.005
REMARK  8 active torsions:
REMARK  status: ('A' for Active; 'I' for Inactive)
REMARK    1  A    between atoms: C_5  and  C_6 
REMARK    2  A    between atoms: C_6  and  C_11 
REMARK    3  A    between atoms: C_11  and  C_12 
REMARK    4  A    between atoms: C_12  and  C_13 
REMARK    5  A    between atoms: C_13  and  O_14 
REMARK    6  A    between atoms: O_14  and  P_15 
REMARK    7  A    between atoms: P_15  and  O_16 
REMARK    8  A    between atoms: P_15  and  O_17 
ROOT
HETATM    1  N   UNK N   1      35.390  12.466  19.991  0.00  0.00    -0.275 N 
HETATM    2  N   UNK N   1      35.091  10.375  18.920  0.00  0.00    -0.298 N 
HETATM    3  C   UNK N   1      35.030  10.973  17.701  0.00  0.00     0.119 A 
HETATM    4 Cl   UNK N   1      34.815   9.959  16.282  0.00  0.00    -0.064 Cl
HETATM    5  C   UNK N   1      35.153  12.373  17.601  0.00  0.00     0.049 A 
HETATM    6  C   UNK N   1      35.272  11.105  20.062  0.00  0.00     0.328 A 
HETATM    7  C   UNK N   1      35.333  13.111  18.784  0.00  0.00     0.258 A 
HETATM    8  O   UNK N   1      35.336  10.544  21.140  0.00  0.00    -0.247 OA
HETATM    9  O   UNK N   1      35.452  14.324  18.747  0.00  0.00    -0.267 OA
HETATM   10  H   UNK N   1      35.516  12.988  20.816  0.00  0.00     0.173 HD
HETATM   11  H   UNK N   1      35.002   9.396  18.982  0.00  0.00     0.171 HD
ENDROOT
BRANCH   5  12
HETATM   12  C   UNK N   1      35.136  13.080  16.269  0.00  0.00     0.048 C 
BRANCH  12  13
HETATM   13  C   UNK N   1      36.415  12.893  15.466  0.00  0.00     0.007 C 
BRANCH  13  14
HETATM   14  C   UNK N   1      36.791  14.215  14.824  0.00  0.00     0.027 C 
BRANCH  14  15
HETATM   15  C   UNK N   1      35.952  14.478  13.587  0.00  0.00     0.180 C 
BRANCH  15  16
HETATM   16  O   UNK N   1      36.383  13.651  12.544  0.00  0.00    -0.297 OA
BRANCH  16  17
HETATM   17  P   UNK N   1      35.321  14.002  11.212  0.00  0.00     0.390 P 
HETATM   18  O   UNK N   1      35.778  15.422  11.642  0.00  0.00    -0.632 OA
BRANCH  17  19
HETATM   19  O   UNK N   1      33.811  14.817  11.478  0.00  0.00    -0.307 OA
HETATM   20  H   UNK N   1      32.982  14.426  11.795  0.00  0.00     0.222 HD
ENDBRANCH  17  19
BRANCH  17  21
HETATM   21  O   UNK N   1      34.424  13.260  12.502  0.00  0.00    -0.307 OA
HETATM   22  H   UNK N   1      34.370  12.314  12.713  0.00  0.00     0.222 HD
ENDBRANCH  17  21
ENDBRANCH  16  17
ENDBRANCH  15  16
ENDBRANCH  14  15
ENDBRANCH  13  14
ENDBRANCH  12  13
ENDBRANCH   5  12
TORSDOF 8
ENDMDL
MODEL 4
REMARK VINA RESULT:      -5.5      1.981      2.511
REMARK  8 active torsions:
REMARK  status: ('A' for Active; 'I' for Inactive)
REMARK    1  A    between atoms: C_5  and  C_6 
REMARK    2  A    between atoms: C_6  and  C_11 
REMARK    3  A    between atoms: C_11  and  C_12 
REMARK    4  A    between atoms: C_12  and  C_13 
REMARK    5  A    between atoms: C_13  and  O_14 
REMARK    6  A    between atoms: O_14  and  P_15 
REMARK    7  A    between atoms: P_15  and  O_16 
REMARK    8  A    between atoms: P_15  and  O_17 
ROOT
HETATM    1  N   UNK N   1      21.987  11.966  12.348  0.00  0.00    -0.275 N 
HETATM    2  N   UNK N   1      24.126  12.416  11.437  0.00  0.00    -0.298 N 
HETATM    3  C   UNK N   1      23.592  12.621  10.205  0.00  0.00     0.119 A 
HETATM    4 Cl   UNK N   1      24.673  13.052   8.887  0.00  0.00    -0.064 Cl
HETATM    5  C   UNK N   1      22.202  12.499  10.014  0.00  0.00     0.049 A 
HETATM    6  C   UNK N   1      23.338  12.094  12.508  0.00  0.00     0.328 A 
HETATM    7  C   UNK N   1      21.405  12.162  11.122  0.00  0.00     0.258 A 
HETATM    8  O   UNK N   1      23.840  11.929  13.605  0.00  0.00    -0.247 OA
HETATM    9  O   UNK N   1      20.197  12.053  11.008  0.00  0.00    -0.267 OA
HETATM   10  H   UNK N   1      21.424  11.730  13.120  0.00  0.00     0.173 HD
HETATM   11  H   UNK N   1      25.099  12.501  11.562  0.00  0.00     0.171 HD
ENDROOT
BRANCH   5  12
HETATM   12  C   UNK N   1      21.556  12.759   8.676  0.00  0.00     0.048 C 
BRANCH  12  13
HETATM   13  C   UNK N   1      20.738  14.041   8.636  0.00  0.00     0.007 C 
BRANCH  13  14
HETATM   14  C   UNK N   1      21.482  15.075   7.812  0.00  0.00     0.027 C 
BRANCH  14  15
HETATM   15  C   UNK N   1      20.752  16.406   7.819  0.00  0.00     0.180 C 
BRANCH  15  16
HETATM   16  O   UNK N   1      19.376  16.186   7.696  0.00  0.00    -0.297 OA
BRANCH  16  17
HETATM   17  P   UNK N   1      18.687  16.742   9.191  0.00  0.00     0.390 P 
HETATM   18  O   UNK N   1      17.451  16.731   8.252  0.00  0.00    -0.632 OA
BRANCH  17  19
HETATM   19  O   UNK N   1      18.089  18.366   9.338  0.00  0.00    -0.307 OA
HETATM   20  H   UNK N   1      17.891  18.846  10.157  0.00  0.00     0.222 HD
ENDBRANCH  17  19
BRANCH  17  21
HETATM   21  O   UNK N   1      19.850  17.895   8.614  0.00  0.00    -0.307 OA
HETATM   22  H   UNK N   1      20.817  17.837   8.672  0.00  0.00     0.222 HD
ENDBRANCH  17  21
ENDBRANCH  16  17
ENDBRANCH  15  16
ENDBRANCH  14  15
ENDBRANCH  13  14
ENDBRANCH  12  13
ENDBRANCH   5  12
TORSDOF 8
ENDMDL
MODEL 5
REMARK VINA RESULT:      -5.5      8.099      8.733
REMARK  8 active torsions:
REMARK  status: ('A' for Active; 'I' for Inactive)
REMARK    1  A    between atoms: C_5  and  C_6 
REMARK    2  A    between atoms: C_6  and  C_11 
REMARK    3  A    between atoms: C_11  and  C_12 
REMARK    4  A    between atoms: C_12  and  C_13 
REMARK    5  A    between atoms: C_13  and  O_14 
REMARK    6  A    between atoms: O_14  and  P_15 
REMARK    7  A    between atoms: P_15  and  O_16 
REMARK    8  A    between atoms: P_15  and  O_17 
ROOT
HETATM    1  N   UNK N   1      27.506  17.093   6.185  0.00  0.00    -0.275 N 
HETATM    2  N   UNK N   1      28.444  19.052   7.130  0.00  0.00    -0.298 N 
HETATM    3  C   UNK N   1      27.620  19.840   6.390  0.00  0.00     0.119 A 
HETATM    4 Cl   UNK N   1      27.735  21.584   6.583  0.00  0.00    -0.064 Cl
HETATM    5  C   UNK N   1      26.694  19.252   5.507  0.00  0.00     0.049 A 
HETATM    6  C   UNK N   1      28.394  17.689   7.038  0.00  0.00     0.328 A 
HETATM    7  C   UNK N   1      26.658  17.849   5.419  0.00  0.00     0.258 A 
HETATM    8  O   UNK N   1      29.134  17.005   7.721  0.00  0.00    -0.247 OA
HETATM    9  O   UNK N   1      25.868  17.294   4.675  0.00  0.00    -0.267 OA
HETATM   10  H   UNK N   1      27.477  16.112   6.119  0.00  0.00     0.173 HD
HETATM   11  H   UNK N   1      29.090  19.471   7.743  0.00  0.00     0.171 HD
ENDROOT
BRANCH   5  12
HETATM   12  C   UNK N   1      25.728  20.080   4.697  0.00  0.00     0.048 C 
BRANCH  12  13
HETATM   13  C   UNK N   1      26.209  20.365   3.282  0.00  0.00     0.007 C 
BRANCH  13  14
HETATM   14  C   UNK N   1      25.009  20.666   2.405  0.00  0.00     0.027 C 
BRANCH  14  15
HETATM   15  C   UNK N   1      23.720  20.226   3.074  0.00  0.00     0.180 C 
BRANCH  15  16
HETATM   16  O   UNK N   1      22.680  21.084   2.699  0.00  0.00    -0.297 OA
BRANCH  16  17
HETATM   17  P   UNK N   1      21.383  20.041   2.199  0.00  0.00     0.390 P 
HETATM   18  O   UNK N   1      21.891  20.596   0.841  0.00  0.00    -0.632 OA
BRANCH  17  19
HETATM   19  O   UNK N   1      19.938  20.704   1.500  0.00  0.00    -0.307 OA
HETATM   20  H   UNK N   1      19.638  20.618   0.582  0.00  0.00     0.222 HD
ENDBRANCH  17  19
BRANCH  17  21
HETATM   21  O   UNK N   1      20.755  21.342   3.164  0.00  0.00    -0.307 OA
HETATM   22  H   UNK N   1      20.673  22.276   2.913  0.00  0.00     0.222 HD
ENDBRANCH  17  21
ENDBRANCH  16  17
ENDBRANCH  15  16
ENDBRANCH  14  15
ENDBRANCH  13  14
ENDBRANCH  12  13
ENDBRANCH   5  12
TORSDOF 8
ENDMDL
MODEL 6
REMARK VINA RESULT:      -5.4     18.481     20.212
REMARK  8 active torsions:
REMARK  status: ('A' for Active; 'I' for Inactive)
REMARK    1  A    between atoms: C_5  and  C_6 
REMARK    2  A    between atoms: C_6  and  C_11 
REMARK    3  A    between atoms: C_11  and  C_12 
REMARK    4  A    between atoms: C_12  and  C_13 
REMARK    5  A    between atoms: C_13  and  O_14 
REMARK    6  A    between atoms: O_14  and  P_15 
REMARK    7  A    between atoms: P_15  and  O_16 
REMARK    8  A    between atoms: P_15  and  O_17 
ROOT
HETATM    1  N   UNK N   1      26.922  24.176  -8.257  0.00  0.00    -0.275 N 
HETATM    2  N   UNK N   1      25.789  26.227  -7.912  0.00  0.00    -0.298 N 
HETATM    3  C   UNK N   1      25.579  25.926  -6.603  0.00  0.00     0.119 A 
HETATM    4 Cl   UNK N   1      24.729  27.094  -5.602  0.00  0.00    -0.064 Cl
HETATM    5  C   UNK N   1      26.052  24.706  -6.080  0.00  0.00     0.049 A 
HETATM    6  C   UNK N   1      26.457  25.368  -8.740  0.00  0.00     0.328 A 
HETATM    7  C   UNK N   1      26.732  23.830  -6.945  0.00  0.00     0.258 A 
HETATM    8  O   UNK N   1      26.643  25.667  -9.905  0.00  0.00    -0.247 OA
HETATM    9  O   UNK N   1      27.167  22.767  -6.536  0.00  0.00    -0.267 OA
HETATM   10  H   UNK N   1      27.399  23.559  -8.859  0.00  0.00     0.173 HD
HETATM   11  H   UNK N   1      25.453  27.080  -8.270  0.00  0.00     0.171 HD
ENDROOT
BRANCH   5  12
HETATM   12  C   UNK N   1      25.884  24.344  -4.626  0.00  0.00     0.048 C 
BRANCH  12  13
HETATM   13  C   UNK N   1      26.872  25.047  -3.707  0.00  0.00     0.007 C 
BRANCH  13  14
HETATM   14  C   UNK N   1      28.027  24.107  -3.415  0.00  0.00     0.027 C 
BRANCH  14  15
HETATM   15  C   UNK N   1      29.352  24.736  -3.805  0.00  0.00     0.180 C 
BRANCH  15  16
HETATM   16  O   UNK N   1      30.323  24.412  -2.850  0.00  0.00    -0.297 OA
BRANCH  16  17
HETATM   17  P   UNK N   1      30.349  22.675  -2.792  0.00  0.00     0.390 P 
HETATM   18  O   UNK N   1      30.455  23.049  -1.289  0.00  0.00    -0.632 OA
BRANCH  17  19
HETATM   19  O   UNK N   1      31.783  21.831  -2.295  0.00  0.00    -0.307 OA
HETATM   20  H   UNK N   1      32.698  22.035  -2.542  0.00  0.00     0.222 HD
ENDBRANCH  17  19
BRANCH  17  21
HETATM   21  O   UNK N   1      31.749  23.258  -3.639  0.00  0.00    -0.307 OA
HETATM   22  H   UNK N   1      32.534  23.683  -3.258  0.00  0.00     0.222 HD
ENDBRANCH  17  21
ENDBRANCH  16  17
ENDBRANCH  15  16
ENDBRANCH  14  15
ENDBRANCH  13  14
ENDBRANCH  12  13
ENDBRANCH   5  12
TORSDOF 8
ENDMDL
MODEL 7
REMARK VINA RESULT:      -5.4     10.910     13.215
REMARK  8 active torsions:
REMARK  status: ('A' for Active; 'I' for Inactive)
REMARK    1  A    between atoms: C_5  and  C_6 
REMARK    2  A    between atoms: C_6  and  C_11 
REMARK    3  A    between atoms: C_11  and  C_12 
REMARK    4  A    between atoms: C_12  and  C_13 
REMARK    5  A    between atoms: C_13  and  O_14 
REMARK    6  A    between atoms: O_14  and  P_15 
REMARK    7  A    between atoms: P_15  and  O_16 
REMARK    8  A    between atoms: P_15  and  O_17 
ROOT
HETATM    1  N   UNK N   1      28.836  18.645   4.334  0.00  0.00    -0.275 N 
HETATM    2  N   UNK N   1      27.641  19.261   6.284  0.00  0.00    -0.298 N 
HETATM    3  C   UNK N   1      28.421  18.456   7.053  0.00  0.00     0.119 A 
HETATM    4 Cl   UNK N   1      28.111  18.396   8.782  0.00  0.00    -0.064 Cl
HETATM    5  C   UNK N   1      29.455  17.706   6.458  0.00  0.00     0.049 A 
HETATM    6  C   UNK N   1      27.841  19.365   4.935  0.00  0.00     0.328 A 
HETATM    7  C   UNK N   1      29.645  17.819   5.070  0.00  0.00     0.258 A 
HETATM    8  O   UNK N   1      27.138  20.104   4.270  0.00  0.00    -0.247 OA
HETATM    9  O   UNK N   1      30.532  17.196   4.512  0.00  0.00    -0.267 OA
HETATM   10  H   UNK N   1      28.973  18.720   3.362  0.00  0.00     0.173 HD
HETATM   11  H   UNK N   1      26.919  19.780   6.706  0.00  0.00     0.171 HD
ENDROOT
BRANCH   5  12
HETATM   12  C   UNK N   1      30.375  16.833   7.274  0.00  0.00     0.048 C 
BRANCH  12  13
HETATM   13  C   UNK N   1      31.430  17.613   8.044  0.00  0.00     0.007 C 
BRANCH  13  14
HETATM   14  C   UNK N   1      32.791  16.997   7.776  0.00  0.00     0.027 C 
BRANCH  14  15
HETATM   15  C   UNK N   1      33.698  17.135   8.985  0.00  0.00     0.180 C 
BRANCH  15  16
HETATM   16  O   UNK N   1      34.741  16.207   8.896  0.00  0.00    -0.297 OA
BRANCH  16  17
HETATM   17  P   UNK N   1      35.319  16.008  10.523  0.00  0.00     0.390 P 
HETATM   18  O   UNK N   1      35.670  17.493  10.237  0.00  0.00    -0.632 OA
BRANCH  17  19
HETATM   19  O   UNK N   1      37.020  16.065  10.869  0.00  0.00    -0.307 OA
HETATM   20  H   UNK N   1      37.439  16.238  11.726  0.00  0.00     0.222 HD
ENDBRANCH  17  19
BRANCH  17  21
HETATM   21  O   UNK N   1      36.215  14.978   9.449  0.00  0.00    -0.307 OA
HETATM   22  H   UNK N   1      36.059  14.036   9.270  0.00  0.00     0.222 HD
ENDBRANCH  17  21
ENDBRANCH  16  17
ENDBRANCH  15  16
ENDBRANCH  14  15
ENDBRANCH  13  14
ENDBRANCH  12  13
ENDBRANCH   5  12
TORSDOF 8
ENDMDL
MODEL 8
REMARK VINA RESULT:      -5.4     10.800     12.932
REMARK  8 active torsions:
REMARK  status: ('A' for Active; 'I' for Inactive)
REMARK    1  A    between atoms: C_5  and  C_6 
REMARK    2  A    between atoms: C_6  and  C_11 
REMARK    3  A    between atoms: C_11  and  C_12 
REMARK    4  A    between atoms: C_12  and  C_13 
REMARK    5  A    between atoms: C_13  and  O_14 
REMARK    6  A    between atoms: O_14  and  P_15 
REMARK    7  A    between atoms: P_15  and  O_16 
REMARK    8  A    between atoms: P_15  and  O_17 
ROOT
HETATM    1  N   UNK N   1      27.697  17.968   7.269  0.00  0.00    -0.275 N 
HETATM    2  N   UNK N   1      28.832  17.987   5.191  0.00  0.00    -0.298 N 
HETATM    3  C   UNK N   1      29.976  17.546   5.777  0.00  0.00     0.119 A 
HETATM    4 Cl   UNK N   1      31.388  17.283   4.763  0.00  0.00    -0.064 Cl
HETATM    5  C   UNK N   1      30.003  17.300   7.164  0.00  0.00     0.049 A 
HETATM    6  C   UNK N   1      27.695  18.196   5.921  0.00  0.00     0.328 A 
HETATM    7  C   UNK N   1      28.828  17.525   7.902  0.00  0.00     0.258 A 
HETATM    8  O   UNK N   1      26.680  18.579   5.369  0.00  0.00    -0.247 OA
HETATM    9  O   UNK N   1      28.801  17.318   9.103  0.00  0.00    -0.267 OA
HETATM   10  H   UNK N   1      26.877  18.124   7.791  0.00  0.00     0.173 HD
HETATM   11  H   UNK N   1      28.822  18.159   4.221  0.00  0.00     0.171 HD
ENDROOT
BRANCH   5  12
HETATM   12  C   UNK N   1      31.234  16.768   7.855  0.00  0.00     0.048 C 
BRANCH  12  13
HETATM   13  C   UNK N   1      32.152  17.860   8.385  0.00  0.00     0.007 C 
BRANCH  13  14
HETATM   14  C   UNK N   1      33.520  17.705   7.749  0.00  0.00     0.027 C 
BRANCH  14  15
HETATM   15  C   UNK N   1      34.578  17.410   8.797  0.00  0.00     0.180 C 
BRANCH  15  16
HETATM   16  O   UNK N   1      34.279  16.203   9.438  0.00  0.00    -0.297 OA
BRANCH  16  17
HETATM   17  P   UNK N   1      35.294  16.169  10.848  0.00  0.00     0.390 P 
HETATM   18  O   UNK N   1      35.602  17.573  10.265  0.00  0.00    -0.632 OA
BRANCH  17  19
HETATM   19  O   UNK N   1      37.023  16.138  10.690  0.00  0.00    -0.307 OA
HETATM   20  H   UNK N   1      37.674  16.523  11.297  0.00  0.00     0.222 HD
ENDBRANCH  17  19
BRANCH  17  21
HETATM   21  O   UNK N   1      35.802  14.944   9.726  0.00  0.00    -0.307 OA
HETATM   22  H   UNK N   1      35.390  14.716   8.877  0.00  0.00     0.222 HD
ENDBRANCH  17  21
ENDBRANCH  16  17
ENDBRANCH  15  16
ENDBRANCH  14  15
ENDBRANCH  13  14
ENDBRANCH  12  13
ENDBRANCH   5  12
TORSDOF 8
ENDMDL
MODEL 9
REMARK VINA RESULT:      -5.4     10.526     11.611
REMARK  8 active torsions:
REMARK  status: ('A' for Active; 'I' for Inactive)
REMARK    1  A    between atoms: C_5  and  C_6 
REMARK    2  A    between atoms: C_6  and  C_11 
REMARK    3  A    between atoms: C_11  and  C_12 
REMARK    4  A    between atoms: C_12  and  C_13 
REMARK    5  A    between atoms: C_13  and  O_14 
REMARK    6  A    between atoms: O_14  and  P_15 
REMARK    7  A    between atoms: P_15  and  O_16 
REMARK    8  A    between atoms: P_15  and  O_17 
ROOT
HETATM    1  N   UNK N   1      34.769  17.931   8.080  0.00  0.00    -0.275 N 
HETATM    2  N   UNK N   1      33.895  16.237   9.486  0.00  0.00    -0.298 N 
HETATM    3  C   UNK N   1      33.108  15.768   8.482  0.00  0.00     0.119 A 
HETATM    4 Cl   UNK N   1      32.084  14.375   8.804  0.00  0.00    -0.064 Cl
HETATM    5  C   UNK N   1      33.136  16.390   7.219  0.00  0.00     0.049 A 
HETATM    6  C   UNK N   1      34.725  17.307   9.295  0.00  0.00     0.328 A 
HETATM    7  C   UNK N   1      33.990  17.493   7.040  0.00  0.00     0.258 A 
HETATM    8  O   UNK N   1      35.430  17.699  10.206  0.00  0.00    -0.247 OA
HETATM    9  O   UNK N   1      34.056  18.059   5.962  0.00  0.00    -0.267 OA
HETATM   10  H   UNK N   1      35.365  18.703   7.949  0.00  0.00     0.173 HD
HETATM   11  H   UNK N   1      33.867  15.798  10.366  0.00  0.00     0.171 HD
ENDROOT
BRANCH   5  12
HETATM   12  C   UNK N   1      32.315  15.881   6.061  0.00  0.00     0.048 C 
BRANCH  12  13
HETATM   13  C   UNK N   1      31.160  16.798   5.686  0.00  0.00     0.007 C 
BRANCH  13  14
HETATM   14  C   UNK N   1      29.887  15.977   5.601  0.00  0.00     0.027 C 
BRANCH  14  15
HETATM   15  C   UNK N   1      28.847  16.482   6.584  0.00  0.00     0.180 C 
BRANCH  15  16
HETATM   16  O   UNK N   1      29.484  16.979   7.726  0.00  0.00    -0.297 OA
BRANCH  16  17
HETATM   17  P   UNK N   1      28.619  18.428   8.141  0.00  0.00     0.390 P 
HETATM   18  O   UNK N   1      29.473  18.189   9.414  0.00  0.00    -0.632 OA
BRANCH  17  19
HETATM   19  O   UNK N   1      27.422  18.413   9.398  0.00  0.00    -0.307 OA
HETATM   20  H   UNK N   1      27.187  17.669   9.975  0.00  0.00     0.222 HD
ENDBRANCH  17  19
BRANCH  17  21
HETATM   21  O   UNK N   1      27.502  17.115   7.930  0.00  0.00    -0.307 OA
HETATM   22  H   UNK N   1      26.709  17.100   7.370  0.00  0.00     0.222 HD
ENDBRANCH  17  21
ENDBRANCH  16  17
ENDBRANCH  15  16
ENDBRANCH  14  15
ENDBRANCH  13  14
ENDBRANCH  12  13
ENDBRANCH   5  12
TORSDOF 8
ENDMDL
