MODEL 1
REMARK VINA RESULT:      -7.1      0.000      0.000
REMARK  3 active torsions:
REMARK  status: ('A' for Active; 'I' for Inactive)
REMARK    1  A    between atoms: O_2  and  C_3 
REMARK    2  A    between atoms: C_8  and  N_11 
REMARK    3  A    between atoms: N_14  and  C_17 
ROOT
HETATM    1  N   UNK N   1      35.323  14.683  11.540  0.00  0.00    -0.363 N 
HETATM    2  C   UNK N   1      36.069  15.240  12.647  0.00  0.00     0.144 A 
HETATM    3  C   UNK N   1      36.292  14.358  13.870  0.00  0.00     0.143 A 
HETATM    4  N   UNK N   1      35.749  13.013  13.853  0.00  0.00    -0.378 N 
HETATM    5  C   UNK N   1      35.006  12.464  12.741  0.00  0.00     0.143 A 
HETATM    6  C   UNK N   1      34.782  13.341  11.531  0.00  0.00     0.144 A 
ENDROOT
BRANCH   1   7
HETATM    7  C   UNK N   1      35.102  15.493  10.388  0.00  0.00     0.118 A 
HETATM    8  N   UNK N   1      34.928  16.841  10.506  0.00  0.00    -0.284 N 
HETATM    9  N   UNK N   1      34.720  17.612   9.433  0.00  0.00    -0.278 N 
ATOM     10  HN  UNK N   1      34.956  17.269  11.431  1.00  0.00     0.188 HD
HETATM   11  C   UNK N   1      34.674  17.089   8.178  0.00  0.00     0.156 A 
ATOM     12  HN  UNK N   1      34.593  18.616   9.560  1.00  0.00     0.189 HD
HETATM   13  C   UNK N   1      34.848  15.713   8.007  0.00  0.00     0.061 A 
HETATM   14  C   UNK N   1      35.062  14.914   9.116  0.00  0.00     0.054 A 
BRANCH  11  15
HETATM   15  O   UNK N   1      34.461  17.906   7.121  0.00  0.00    -0.340 OA
HETATM   16  C   UNK N   1      33.641  17.568   6.066  0.00  0.00     0.211 C 
ENDBRANCH  11  15
ENDBRANCH   1   7
BRANCH   4  17
HETATM   17  C   UNK N   1      35.954  12.176  14.995  0.00  0.00     0.030 A 
HETATM   18  C   UNK N   1      35.485  12.564  16.261  0.00  0.00     0.036 A 
HETATM   19  C   UNK N   1      35.687  11.743  17.372  0.00  0.00    -0.060 A 
HETATM   20  C   UNK N   1      36.360  10.527  17.233  0.00  0.00     0.007 A 
HETATM   21  C   UNK N   1      35.185  12.168  18.704  0.00  0.00     0.048 C 
HETATM   22  C   UNK N   1      36.832  10.129  15.981  0.00  0.00     0.003 A 
HETATM   23  C   UNK N   1      36.631  10.948  14.869  0.00  0.00     0.029 A 
ENDBRANCH   4  17
TORSDOF 3
ENDMDL
MODEL 2
REMARK VINA RESULT:      -7.0     13.327     15.241
REMARK  3 active torsions:
REMARK  status: ('A' for Active; 'I' for Inactive)
REMARK    1  A    between atoms: O_2  and  C_3 
REMARK    2  A    between atoms: C_8  and  N_11 
REMARK    3  A    between atoms: N_14  and  C_17 
ROOT
HETATM    1  N   UNK N   1      20.965  16.479   6.221  0.00  0.00    -0.363 N 
HETATM    2  C   UNK N   1      20.313  16.728   7.488  0.00  0.00     0.144 A 
HETATM    3  C   UNK N   1      20.588  15.758   8.631  0.00  0.00     0.143 A 
HETATM    4  N   UNK N   1      21.488  14.646   8.385  0.00  0.00    -0.378 N 
HETATM    5  C   UNK N   1      22.135  14.407   7.116  0.00  0.00     0.143 A 
HETATM    6  C   UNK N   1      21.859  15.367   5.982  0.00  0.00     0.144 A 
ENDROOT
BRANCH   1   7
HETATM    7  C   UNK N   1      20.718  17.375   5.138  0.00  0.00     0.118 A 
HETATM    8  N   UNK N   1      21.291  18.612   5.112  0.00  0.00    -0.284 N 
HETATM    9  N   UNK N   1      21.069  19.461   4.104  0.00  0.00    -0.278 N 
ATOM     10  HN  UNK N   1      21.902  18.895   5.878  1.00  0.00     0.188 HD
HETATM   11  C   UNK N   1      20.262  19.130   3.059  0.00  0.00     0.156 A 
ATOM     12  HN  UNK N   1      21.514  20.378   4.118  1.00  0.00     0.189 HD
HETATM   13  C   UNK N   1      19.652  17.873   3.041  0.00  0.00     0.061 A 
HETATM   14  C   UNK N   1      19.882  16.994   4.084  0.00  0.00     0.054 A 
BRANCH  11  15
HETATM   15  O   UNK N   1      20.064  20.020   2.059  0.00  0.00    -0.340 OA
HETATM   16  C   UNK N   1      21.076  20.451   1.229  0.00  0.00     0.211 C 
ENDBRANCH  11  15
ENDBRANCH   1   7
BRANCH   4  17
HETATM   17  C   UNK N   1      21.754  13.731   9.451  0.00  0.00     0.030 A 
HETATM   18  C   UNK N   1      23.069  13.333   9.743  0.00  0.00     0.036 A 
HETATM   19  C   UNK N   1      23.325  12.439  10.784  0.00  0.00    -0.060 A 
HETATM   20  C   UNK N   1      22.270  11.933  11.548  0.00  0.00     0.007 A 
HETATM   21  C   UNK N   1      24.721  12.029  11.079  0.00  0.00     0.048 C 
HETATM   22  C   UNK N   1      20.958  12.320  11.270  0.00  0.00     0.003 A 
HETATM   23  C   UNK N   1      20.701  13.213  10.229  0.00  0.00     0.029 A 
ENDBRANCH   4  17
TORSDOF 3
ENDMDL
MODEL 3
REMARK VINA RESULT:      -6.9      5.448     11.512
REMARK  3 active torsions:
REMARK  status: ('A' for Active; 'I' for Inactive)
REMARK    1  A    between atoms: O_2  and  C_3 
REMARK    2  A    between atoms: C_8  and  N_11 
REMARK    3  A    between atoms: N_14  and  C_17 
ROOT
HETATM    1  N   UNK N   1      31.039  17.484   7.312  0.00  0.00    -0.363 N 
HETATM    2  C   UNK N   1      31.055  17.244   5.886  0.00  0.00     0.144 A 
HETATM    3  C   UNK N   1      29.749  17.423   5.121  0.00  0.00     0.143 A 
HETATM    4  N   UNK N   1      28.569  17.826   5.863  0.00  0.00    -0.378 N 
HETATM    5  C   UNK N   1      28.564  18.066   7.289  0.00  0.00     0.143 A 
HETATM    6  C   UNK N   1      29.859  17.884   8.047  0.00  0.00     0.144 A 
ENDROOT
BRANCH   1   7
HETATM    7  C   UNK N   1      32.251  17.319   8.046  0.00  0.00     0.118 A 
HETATM    8  N   UNK N   1      32.340  16.400   9.050  0.00  0.00    -0.284 N 
HETATM    9  N   UNK N   1      33.470  16.236   9.745  0.00  0.00    -0.278 N 
ATOM     10  HN  UNK N   1      31.528  15.826   9.274  1.00  0.00     0.188 HD
HETATM   11  C   UNK N   1      34.581  16.977   9.484  0.00  0.00     0.156 A 
ATOM     12  HN  UNK N   1      33.500  15.539  10.489  1.00  0.00     0.189 HD
HETATM   13  C   UNK N   1      34.539  17.932   8.464  0.00  0.00     0.061 A 
HETATM   14  C   UNK N   1      33.370  18.102   7.744  0.00  0.00     0.054 A 
BRANCH  11  15
HETATM   15  O   UNK N   1      35.704  16.778  10.212  0.00  0.00    -0.340 OA
HETATM   16  C   UNK N   1      35.746  15.947  11.311  0.00  0.00     0.211 C 
ENDBRANCH  11  15
ENDBRANCH   1   7
BRANCH   4  17
HETATM   17  C   UNK N   1      27.339  17.999   5.155  0.00  0.00     0.030 A 
HETATM   18  C   UNK N   1      27.132  19.127   4.343  0.00  0.00     0.036 A 
HETATM   19  C   UNK N   1      25.929  19.291   3.653  0.00  0.00    -0.060 A 
HETATM   20  C   UNK N   1      24.919  18.332   3.766  0.00  0.00     0.007 A 
HETATM   21  C   UNK N   1      25.726  20.489   2.799  0.00  0.00     0.048 C 
HETATM   22  C   UNK N   1      25.111  17.207   4.569  0.00  0.00     0.003 A 
HETATM   23  C   UNK N   1      26.313  17.041   5.260  0.00  0.00     0.029 A 
ENDBRANCH   4  17
TORSDOF 3
ENDMDL
MODEL 4
REMARK VINA RESULT:      -6.8      2.755      9.026
REMARK  3 active torsions:
REMARK  status: ('A' for Active; 'I' for Inactive)
REMARK    1  A    between atoms: O_2  and  C_3 
REMARK    2  A    between atoms: C_8  and  N_11 
REMARK    3  A    between atoms: N_14  and  C_17 
ROOT
HETATM    1  N   UNK N   1      34.665  15.181  10.410  0.00  0.00    -0.363 N 
HETATM    2  C   UNK N   1      34.948  16.552  10.046  0.00  0.00     0.144 A 
HETATM    3  C   UNK N   1      34.330  17.088   8.761  0.00  0.00     0.143 A 
HETATM    4  N   UNK N   1      33.492  16.198   7.979  0.00  0.00    -0.378 N 
HETATM    5  C   UNK N   1      33.214  14.830   8.352  0.00  0.00     0.143 A 
HETATM    6  C   UNK N   1      33.831  14.298   9.625  0.00  0.00     0.144 A 
ENDROOT
BRANCH   1   7
HETATM    7  C   UNK N   1      35.236  14.660  11.608  0.00  0.00     0.118 A 
HETATM    8  N   UNK N   1      36.128  15.395  12.333  0.00  0.00    -0.284 N 
HETATM    9  N   UNK N   1      36.671  14.918  13.458  0.00  0.00    -0.278 N 
ATOM     10  HN  UNK N   1      36.387  16.327  12.009  1.00  0.00     0.188 HD
HETATM   11  C   UNK N   1      36.359  13.681  13.931  0.00  0.00     0.156 A 
ATOM     12  HN  UNK N   1      37.335  15.496  13.974  1.00  0.00     0.189 HD
HETATM   13  C   UNK N   1      35.449  12.891  13.223  0.00  0.00     0.061 A 
HETATM   14  C   UNK N   1      34.887  13.383  12.059  0.00  0.00     0.054 A 
BRANCH  11  15
HETATM   15  O   UNK N   1      36.932  13.238  15.074  0.00  0.00    -0.340 OA
HETATM   16  C   UNK N   1      36.355  12.279  15.878  0.00  0.00     0.211 C 
ENDBRANCH  11  15
ENDBRANCH   1   7
BRANCH   4  17
HETATM   17  C   UNK N   1      32.906  16.692   6.772  0.00  0.00     0.030 A 
HETATM   18  C   UNK N   1      31.510  16.722   6.613  0.00  0.00     0.036 A 
HETATM   19  C   UNK N   1      30.942  17.205   5.433  0.00  0.00    -0.060 A 
HETATM   20  C   UNK N   1      31.760  17.664   4.397  0.00  0.00     0.007 A 
HETATM   21  C   UNK N   1      29.465  17.230   5.281  0.00  0.00     0.048 C 
HETATM   22  C   UNK N   1      33.148  17.640   4.541  0.00  0.00     0.003 A 
HETATM   23  C   UNK N   1      33.718  17.158   5.720  0.00  0.00     0.029 A 
ENDBRANCH   4  17
TORSDOF 3
ENDMDL
MODEL 5
REMARK VINA RESULT:      -6.6      1.374      2.220
REMARK  3 active torsions:
REMARK  status: ('A' for Active; 'I' for Inactive)
REMARK    1  A    between atoms: O_2  and  C_3 
REMARK    2  A    between atoms: C_8  and  N_11 
REMARK    3  A    between atoms: N_14  and  C_17 
ROOT
HETATM    1  N   UNK N   1      35.086  15.082  10.418  0.00  0.00    -0.363 N 
HETATM    2  C   UNK N   1      35.738  15.738  11.530  0.00  0.00     0.144 A 
HETATM    3  C   UNK N   1      36.017  14.909  12.779  0.00  0.00     0.143 A 
HETATM    4  N   UNK N   1      35.619  13.515  12.779  0.00  0.00    -0.378 N 
HETATM    5  C   UNK N   1      34.969  12.868  11.661  0.00  0.00     0.143 A 
HETATM    6  C   UNK N   1      34.689  13.691  10.426  0.00  0.00     0.144 A 
ENDROOT
BRANCH   1   7
HETATM    7  C   UNK N   1      34.815  15.842   9.241  0.00  0.00     0.118 A 
HETATM    8  N   UNK N   1      34.688  15.229   8.029  0.00  0.00    -0.284 N 
HETATM    9  N   UNK N   1      34.433  15.929   6.919  0.00  0.00    -0.278 N 
ATOM     10  HN  UNK N   1      34.789  14.216   7.969  1.00  0.00     0.188 HD
HETATM   11  C   UNK N   1      34.290  17.282   6.947  0.00  0.00     0.156 A 
ATOM     12  HN  UNK N   1      34.345  15.437   6.030  1.00  0.00     0.189 HD
HETATM   13  C   UNK N   1      34.412  17.955   8.166  0.00  0.00     0.061 A 
HETATM   14  C   UNK N   1      34.675  17.231   9.315  0.00  0.00     0.054 A 
BRANCH  11  15
HETATM   15  O   UNK N   1      34.033  17.951   5.799  0.00  0.00    -0.340 OA
HETATM   16  C   UNK N   1      33.130  17.504   4.859  0.00  0.00     0.211 C 
ENDBRANCH  11  15
ENDBRANCH   1   7
BRANCH   4  17
HETATM   17  C   UNK N   1      35.878  12.728  13.945  0.00  0.00     0.030 A 
HETATM   18  C   UNK N   1      36.823  11.689  13.913  0.00  0.00     0.036 A 
HETATM   19  C   UNK N   1      37.072  10.923  15.054  0.00  0.00    -0.060 A 
HETATM   20  C   UNK N   1      36.381  11.186  16.239  0.00  0.00     0.007 A 
HETATM   21  C   UNK N   1      38.075   9.829  15.003  0.00  0.00     0.048 C 
HETATM   22  C   UNK N   1      35.439  12.214  16.286  0.00  0.00     0.003 A 
HETATM   23  C   UNK N   1      35.188  12.981  15.146  0.00  0.00     0.029 A 
ENDBRANCH   4  17
TORSDOF 3
ENDMDL
MODEL 6
REMARK VINA RESULT:      -6.6      4.951     10.843
REMARK  3 active torsions:
REMARK  status: ('A' for Active; 'I' for Inactive)
REMARK    1  A    between atoms: O_2  and  C_3 
REMARK    2  A    between atoms: C_8  and  N_11 
REMARK    3  A    between atoms: N_14  and  C_17 
ROOT
HETATM    1  N   UNK N   1      31.318  16.271   8.063  0.00  0.00    -0.363 N 
HETATM    2  C   UNK N   1      30.417  17.079   8.856  0.00  0.00     0.144 A 
HETATM    3  C   UNK N   1      29.394  17.933   8.118  0.00  0.00     0.143 A 
HETATM    4  N   UNK N   1      29.378  17.886   6.668  0.00  0.00    -0.378 N 
HETATM    5  C   UNK N   1      30.281  17.073   5.885  0.00  0.00     0.143 A 
HETATM    6  C   UNK N   1      31.298  16.229   6.617  0.00  0.00     0.144 A 
ENDROOT
BRANCH   1   7
HETATM    7  C   UNK N   1      32.284  15.465   8.736  0.00  0.00     0.118 A 
HETATM    8  N   UNK N   1      32.332  15.424  10.098  0.00  0.00    -0.284 N 
HETATM    9  N   UNK N   1      33.233  14.674  10.741  0.00  0.00    -0.278 N 
ATOM     10  HN  UNK N   1      31.667  15.979  10.638  1.00  0.00     0.188 HD
HETATM   11  C   UNK N   1      34.141  13.917  10.066  0.00  0.00     0.156 A 
ATOM     12  HN  UNK N   1      33.239  14.668  11.761  1.00  0.00     0.189 HD
HETATM   13  C   UNK N   1      34.131  13.926   8.669  0.00  0.00     0.061 A 
HETATM   14  C   UNK N   1      33.199  14.702   8.003  0.00  0.00     0.054 A 
BRANCH  11  15
HETATM   15  O   UNK N   1      35.035  13.172  10.757  0.00  0.00    -0.340 OA
HETATM   16  C   UNK N   1      35.150  13.223  12.129  0.00  0.00     0.211 C 
ENDBRANCH  11  15
ENDBRANCH   1   7
BRANCH   4  17
HETATM   17  C   UNK N   1      28.421  18.682   5.966  0.00  0.00     0.030 A 
HETATM   18  C   UNK N   1      27.820  19.792   6.583  0.00  0.00     0.036 A 
HETATM   19  C   UNK N   1      26.886  20.567   5.894  0.00  0.00    -0.060 A 
HETATM   20  C   UNK N   1      26.540  20.243   4.579  0.00  0.00     0.007 A 
HETATM   21  C   UNK N   1      26.260  21.736   6.562  0.00  0.00     0.048 C 
HETATM   22  C   UNK N   1      27.129  19.144   3.953  0.00  0.00     0.003 A 
HETATM   23  C   UNK N   1      28.063  18.368   4.641  0.00  0.00     0.029 A 
ENDBRANCH   4  17
TORSDOF 3
ENDMDL
MODEL 7
REMARK VINA RESULT:      -6.5      5.124     11.180
REMARK  3 active torsions:
REMARK  status: ('A' for Active; 'I' for Inactive)
REMARK    1  A    between atoms: O_2  and  C_3 
REMARK    2  A    between atoms: C_8  and  N_11 
REMARK    3  A    between atoms: N_14  and  C_17 
ROOT
HETATM    1  N   UNK N   1      31.184  16.828   7.979  0.00  0.00    -0.363 N 
HETATM    2  C   UNK N   1      30.047  17.496   8.575  0.00  0.00     0.144 A 
HETATM    3  C   UNK N   1      28.956  18.009   7.643  0.00  0.00     0.143 A 
HETATM    4  N   UNK N   1      29.116  17.795   6.217  0.00  0.00    -0.378 N 
HETATM    5  C   UNK N   1      30.254  17.125   5.632  0.00  0.00     0.143 A 
HETATM    6  C   UNK N   1      31.338  16.620   6.556  0.00  0.00     0.144 A 
ENDROOT
BRANCH   1   7
HETATM    7  C   UNK N   1      32.216  16.342   8.835  0.00  0.00     0.118 A 
HETATM    8  N   UNK N   1      31.957  15.377   9.763  0.00  0.00    -0.284 N 
HETATM    9  N   UNK N   1      32.916  14.913  10.572  0.00  0.00    -0.278 N 
ATOM     10  HN  UNK N   1      31.012  15.002   9.843  1.00  0.00     0.188 HD
HETATM   11  C   UNK N   1      34.192  15.382  10.505  0.00  0.00     0.156 A 
ATOM     12  HN  UNK N   1      32.686  14.191  11.254  1.00  0.00     0.189 HD
HETATM   13  C   UNK N   1      34.506  16.372   9.569  0.00  0.00     0.061 A 
HETATM   14  C   UNK N   1      33.515  16.852   8.733  0.00  0.00     0.054 A 
BRANCH  11  15
HETATM   15  O   UNK N   1      35.132  14.884  11.342  0.00  0.00    -0.340 OA
HETATM   16  C   UNK N   1      35.034  13.638  11.921  0.00  0.00     0.211 C 
ENDBRANCH  11  15
ENDBRANCH   1   7
BRANCH   4  17
HETATM   17  C   UNK N   1      28.097  18.271   5.334  0.00  0.00     0.030 A 
HETATM   18  C   UNK N   1      27.032  17.438   4.953  0.00  0.00     0.036 A 
HETATM   19  C   UNK N   1      26.039  17.906   4.090  0.00  0.00    -0.060 A 
HETATM   20  C   UNK N   1      26.098  19.213   3.598  0.00  0.00     0.007 A 
HETATM   21  C   UNK N   1      24.920  17.012   3.697  0.00  0.00     0.048 C 
HETATM   22  C   UNK N   1      27.149  20.052   3.968  0.00  0.00     0.003 A 
HETATM   23  C   UNK N   1      28.143  19.585   4.830  0.00  0.00     0.029 A 
ENDBRANCH   4  17
TORSDOF 3
ENDMDL
MODEL 8
REMARK VINA RESULT:      -6.4      9.159     13.013
REMARK  3 active torsions:
REMARK  status: ('A' for Active; 'I' for Inactive)
REMARK    1  A    between atoms: O_2  and  C_3 
REMARK    2  A    between atoms: C_8  and  N_11 
REMARK    3  A    between atoms: N_14  and  C_17 
ROOT
HETATM    1  N   UNK N   1      25.387  18.952   4.932  0.00  0.00    -0.363 N 
HETATM    2  C   UNK N   1      25.802  17.569   5.013  0.00  0.00     0.144 A 
HETATM    3  C   UNK N   1      27.087  17.257   5.771  0.00  0.00     0.143 A 
HETATM    4  N   UNK N   1      27.817  18.360   6.368  0.00  0.00    -0.378 N 
HETATM    5  C   UNK N   1      27.392  19.739   6.282  0.00  0.00     0.143 A 
HETATM    6  C   UNK N   1      26.120  20.048   5.528  0.00  0.00     0.144 A 
ENDROOT
BRANCH   1   7
HETATM    7  C   UNK N   1      24.188  19.265   4.225  0.00  0.00     0.118 A 
HETATM    8  N   UNK N   1      24.138  20.329   3.372  0.00  0.00    -0.284 N 
HETATM    9  N   UNK N   1      23.020  20.633   2.704  0.00  0.00    -0.278 N 
ATOM     10  HN  UNK N   1      24.970  20.904   3.242  1.00  0.00     0.188 HD
HETATM   11  C   UNK N   1      21.884  19.897   2.844  0.00  0.00     0.156 A 
ATOM     12  HN  UNK N   1      23.020  21.435   2.075  1.00  0.00     0.189 HD
HETATM   13  C   UNK N   1      21.887  18.797   3.707  0.00  0.00     0.061 A 
HETATM   14  C   UNK N   1      23.043  18.482   4.398  0.00  0.00     0.054 A 
BRANCH  11  15
HETATM   15  O   UNK N   1      20.776  20.240   2.148  0.00  0.00    -0.340 OA
HETATM   16  C   UNK N   1      20.810  20.615   0.823  0.00  0.00     0.211 C 
ENDBRANCH  11  15
ENDBRANCH   1   7
BRANCH   4  17
HETATM   17  C   UNK N   1      29.022  18.077   7.083  0.00  0.00     0.030 A 
HETATM   18  C   UNK N   1      30.003  17.237   6.531  0.00  0.00     0.036 A 
HETATM   19  C   UNK N   1      31.179  16.964   7.232  0.00  0.00    -0.060 A 
HETATM   20  C   UNK N   1      31.390  17.527   8.494  0.00  0.00     0.007 A 
HETATM   21  C   UNK N   1      32.206  16.074   6.634  0.00  0.00     0.048 C 
HETATM   22  C   UNK N   1      30.424  18.364   9.055  0.00  0.00     0.003 A 
HETATM   23  C   UNK N   1      29.248  18.638   8.355  0.00  0.00     0.029 A 
ENDBRANCH   4  17
TORSDOF 3
ENDMDL
MODEL 9
REMARK VINA RESULT:      -6.4      6.950     10.525
REMARK  3 active torsions:
REMARK  status: ('A' for Active; 'I' for Inactive)
REMARK    1  A    between atoms: O_2  and  C_3 
REMARK    2  A    between atoms: C_8  and  N_11 
REMARK    3  A    between atoms: N_14  and  C_17 
ROOT
HETATM    1  N   UNK N   1      28.059  18.498   5.668  0.00  0.00    -0.363 N 
HETATM    2  C   UNK N   1      28.115  18.575   7.111  0.00  0.00     0.144 A 
HETATM    3  C   UNK N   1      29.351  18.014   7.805  0.00  0.00     0.143 A 
HETATM    4  N   UNK N   1      30.398  17.440   6.982  0.00  0.00    -0.378 N 
HETATM    5  C   UNK N   1      30.333  17.369   5.540  0.00  0.00     0.143 A 
HETATM    6  C   UNK N   1      29.106  17.922   4.853  0.00  0.00     0.144 A 
ENDROOT
BRANCH   1   7
HETATM    7  C   UNK N   1      26.910  19.016   5.000  0.00  0.00     0.118 A 
HETATM    8  N   UNK N   1      25.654  18.673   5.405  0.00  0.00    -0.284 N 
HETATM    9  N   UNK N   1      24.568  19.152   4.788  0.00  0.00    -0.278 N 
ATOM     10  HN  UNK N   1      25.540  18.038   6.196  1.00  0.00     0.188 HD
HETATM   11  C   UNK N   1      24.668  20.001   3.730  0.00  0.00     0.156 A 
ATOM     12  HN  UNK N   1      23.645  18.874   5.119  1.00  0.00     0.189 HD
HETATM   13  C   UNK N   1      25.934  20.382   3.278  0.00  0.00     0.061 A 
HETATM   14  C   UNK N   1      27.057  19.887   3.916  0.00  0.00     0.054 A 
BRANCH  11  15
HETATM   15  O   UNK N   1      23.543  20.462   3.135  0.00  0.00    -0.340 OA
HETATM   16  C   UNK N   1      22.336  19.799   3.201  0.00  0.00     0.211 C 
ENDBRANCH  11  15
ENDBRANCH   1   7
BRANCH   4  17
HETATM   17  C   UNK N   1      31.563  16.912   7.623  0.00  0.00     0.030 A 
HETATM   18  C   UNK N   1      31.763  15.525   7.717  0.00  0.00     0.036 A 
HETATM   19  C   UNK N   1      32.901  15.014   8.344  0.00  0.00    -0.060 A 
HETATM   20  C   UNK N   1      33.853  15.882   8.884  0.00  0.00     0.007 A 
HETATM   21  C   UNK N   1      33.097  13.545   8.435  0.00  0.00     0.048 C 
HETATM   22  C   UNK N   1      33.668  17.263   8.798  0.00  0.00     0.003 A 
HETATM   23  C   UNK N   1      32.530  17.775   8.171  0.00  0.00     0.029 A 
ENDBRANCH   4  17
TORSDOF 3
ENDMDL
