MODEL 1
REMARK VINA RESULT:      -6.9      0.000      0.000
REMARK  9 active torsions:
REMARK  status: ('A' for Active; 'I' for Inactive)
REMARK    1  A    between atoms: C_7  and  C_27 
REMARK    2  A    between atoms: C_8  and  N_9 
REMARK    3  A    between atoms: C_13  and  C_21 
REMARK    4  A    between atoms: C_18  and  N_23 
REMARK    5  A    between atoms: C_19  and  C_21 
REMARK    6  A    between atoms: N_23  and  C_24 
REMARK    7  A    between atoms: C_24  and  C_25 
REMARK    8  A    between atoms: C_25  and  N_26 
REMARK    9  A    between atoms: N_26  and  C_27 
ROOT
HETATM    1  N   UNK N   1      36.972  11.364  11.899  0.00  0.00    -0.419 N 
HETATM    2  C   UNK N   1      36.074  12.295  11.210  0.00  0.00     0.139 C 
HETATM    3  C   UNK N   1      36.168  13.606  11.958  0.00  0.00     0.100 C 
HETATM    4  C   UNK N   1      36.342  13.131  13.389  0.00  0.00     0.032 C 
HETATM    5  C   UNK N   1      37.333  12.006  13.167  0.00  0.00     0.120 C 
HETATM    6  H   UNK N   1      37.284  10.453  11.563  0.00  0.00     0.153 HD
ENDROOT
BRANCH   3   7
HETATM    7  N   UNK N   1      34.982  14.435  11.747  0.00  0.00    -0.414 N 
HETATM    8  H   UNK N   1      34.017  14.135  11.885  0.00  0.00     0.153 HD
BRANCH   7   9
HETATM    9  C   UNK N   1      35.402  15.759  11.309  0.00  0.00     0.133 C 
BRANCH   9  10
HETATM   10  C   UNK N   1      34.933  16.005   9.884  0.00  0.00     0.133 C 
BRANCH  10  11
HETATM   11  N   UNK N   1      34.239  17.281   9.784  0.00  0.00    -0.416 N 
HETATM   12  H   UNK N   1      33.645  17.707  10.496  0.00  0.00     0.153 HD
BRANCH  11  13
HETATM   13  C   UNK N   1      34.554  17.834   8.475  0.00  0.00     0.152 C 
BRANCH  13  14
HETATM   14  C   UNK N   1      33.421  17.616   7.530  0.00  0.00    -0.041 A 
HETATM   15  C   UNK N   1      33.675  17.499   6.159  0.00  0.00     0.010 A 
HETATM   16  C   UNK N   1      32.620  17.266   5.271  0.00  0.00     0.024 A 
HETATM   17  C   UNK N   1      31.311  17.154   5.751  0.00  0.00     0.034 A 
HETATM   18  C   UNK N   1      31.055  17.274   7.118  0.00  0.00     0.024 A 
HETATM   19 Cl   UNK N   1      29.993  16.855   4.640  0.00  0.00    -0.084 Cl
HETATM   20  C   UNK N   1      32.109  17.500   8.007  0.00  0.00     0.010 A 
ENDBRANCH  13  14
ENDBRANCH  11  13
ENDBRANCH  10  11
ENDBRANCH   9  10
ENDBRANCH   7   9
ENDBRANCH   3   7
BRANCH   4  21
HETATM   21  C   UNK N   1      35.021  12.590  13.968  0.00  0.00     0.065 C 
BRANCH  21  22
HETATM   22  C   UNK N   1      35.076  12.367  15.444  0.00  0.00     0.011 A 
HETATM   23  C   UNK N   1      35.052  11.067  15.958  0.00  0.00     0.032 A 
HETATM   24  C   UNK N   1      35.126  10.879  17.341  0.00  0.00    -0.057 A 
HETATM   25  C   UNK N   1      35.221  11.985  18.187  0.00  0.00     0.054 A 
HETATM   26  C   UNK N   1      35.107   9.507  17.911  0.00  0.00     0.048 C 
HETATM   27  C   UNK N   1      35.244  13.267  17.637  0.00  0.00     0.099 A 
HETATM   28  N   UNK N   1      35.176  13.429  16.289  0.00  0.00    -0.346 N 
ATOM     29  HN  UNK N   1      35.201  14.372  15.900  1.00  0.00     0.167 HD
BRANCH  27  30
HETATM   30  N   UNK N   1      35.342  14.394  18.474  0.00  0.00    -0.385 N 
HETATM   31  H   UNK N   1      34.838  14.426  19.320  0.00  0.00     0.157 HD
HETATM   32  H   UNK N   1      35.914  15.151  18.214  0.00  0.00     0.157 HD
ENDBRANCH  27  30
ENDBRANCH  21  22
ENDBRANCH   4  21
TORSDOF 9
ENDMDL
MODEL 2
REMARK VINA RESULT:      -6.8      1.470      2.138
REMARK  9 active torsions:
REMARK  status: ('A' for Active; 'I' for Inactive)
REMARK    1  A    between atoms: C_7  and  C_27 
REMARK    2  A    between atoms: C_8  and  N_9 
REMARK    3  A    between atoms: C_13  and  C_21 
REMARK    4  A    between atoms: C_18  and  N_23 
REMARK    5  A    between atoms: C_19  and  C_21 
REMARK    6  A    between atoms: N_23  and  C_24 
REMARK    7  A    between atoms: C_24  and  C_25 
REMARK    8  A    between atoms: C_25  and  N_26 
REMARK    9  A    between atoms: N_26  and  C_27 
ROOT
HETATM    1  N   UNK N   1      34.979  10.800   9.690  0.00  0.00    -0.419 N 
HETATM    2  C   UNK N   1      34.072  11.949   9.728  0.00  0.00     0.139 C 
HETATM    3  C   UNK N   1      34.855  13.087  10.345  0.00  0.00     0.100 C 
HETATM    4  C   UNK N   1      35.713  12.353  11.360  0.00  0.00     0.032 C 
HETATM    5  C   UNK N   1      36.129  11.157  10.525  0.00  0.00     0.120 C 
HETATM    6  H   UNK N   1      34.838   9.926   9.182  0.00  0.00     0.153 HD
ENDROOT
BRANCH   3   7
HETATM    7  N   UNK N   1      33.973  14.095  10.931  0.00  0.00    -0.414 N 
HETATM    8  H   UNK N   1      32.995  13.953  11.183  0.00  0.00     0.153 HD
BRANCH   7   9
HETATM    9  C   UNK N   1      34.718  15.335  11.099  0.00  0.00     0.133 C 
BRANCH   9  10
HETATM   10  C   UNK N   1      34.922  16.002   9.747  0.00  0.00     0.133 C 
BRANCH  10  11
HETATM   11  N   UNK N   1      34.131  17.221   9.651  0.00  0.00    -0.416 N 
HETATM   12  H   UNK N   1      33.471  17.573  10.345  0.00  0.00     0.153 HD
BRANCH  11  13
HETATM   13  C   UNK N   1      34.461  17.840   8.376  0.00  0.00     0.152 C 
BRANCH  13  14
HETATM   14  C   UNK N   1      33.383  17.587   7.377  0.00  0.00    -0.041 A 
HETATM   15  C   UNK N   1      32.054  17.483   7.803  0.00  0.00     0.010 A 
HETATM   16  C   UNK N   1      31.035  17.273   6.867  0.00  0.00     0.024 A 
HETATM   17  C   UNK N   1      31.344  17.166   5.508  0.00  0.00     0.034 A 
HETATM   18  C   UNK N   1      32.670  17.266   5.081  0.00  0.00     0.024 A 
HETATM   19 Cl   UNK N   1      30.068  16.911   4.337  0.00  0.00    -0.084 Cl
HETATM   20  C   UNK N   1      33.687  17.481   6.014  0.00  0.00     0.010 A 
ENDBRANCH  13  14
ENDBRANCH  11  13
ENDBRANCH  10  11
ENDBRANCH   9  10
ENDBRANCH   7   9
ENDBRANCH   3   7
BRANCH   4  21
HETATM   21  C   UNK N   1      34.885  11.907  12.580  0.00  0.00     0.065 C 
BRANCH  21  22
HETATM   22  C   UNK N   1      35.358  12.514  13.861  0.00  0.00     0.011 A 
HETATM   23  C   UNK N   1      35.042  11.908  15.081  0.00  0.00     0.032 A 
HETATM   24  C   UNK N   1      35.511  12.480  16.268  0.00  0.00    -0.057 A 
HETATM   25  C   UNK N   1      36.284  13.641  16.220  0.00  0.00     0.054 A 
HETATM   26  C   UNK N   1      35.193  11.852  17.576  0.00  0.00     0.048 C 
HETATM   27  C   UNK N   1      36.580  14.216  14.983  0.00  0.00     0.099 A 
HETATM   28  N   UNK N   1      36.118  13.642  13.840  0.00  0.00    -0.346 N 
ATOM     29  HN  UNK N   1      36.348  14.069  12.942  1.00  0.00     0.167 HD
BRANCH  27  30
HETATM   30  N   UNK N   1      37.358  15.385  14.915  0.00  0.00    -0.385 N 
HETATM   31  H   UNK N   1      37.936  15.639  15.671  0.00  0.00     0.157 HD
HETATM   32  H   UNK N   1      37.325  15.952  14.111  0.00  0.00     0.157 HD
ENDBRANCH  27  30
ENDBRANCH  21  22
ENDBRANCH   4  21
TORSDOF 9
ENDMDL
MODEL 3
REMARK VINA RESULT:      -6.7      6.344      9.991
REMARK  9 active torsions:
REMARK  status: ('A' for Active; 'I' for Inactive)
REMARK    1  A    between atoms: C_7  and  C_27 
REMARK    2  A    between atoms: C_8  and  N_9 
REMARK    3  A    between atoms: C_13  and  C_21 
REMARK    4  A    between atoms: C_18  and  N_23 
REMARK    5  A    between atoms: C_19  and  C_21 
REMARK    6  A    between atoms: N_23  and  C_24 
REMARK    7  A    between atoms: C_24  and  C_25 
REMARK    8  A    between atoms: C_25  and  N_26 
REMARK    9  A    between atoms: N_26  and  C_27 
ROOT
HETATM    1  N   UNK N   1      27.851  18.661   9.106  0.00  0.00    -0.419 N 
HETATM    2  C   UNK N   1      27.943  18.729   7.646  0.00  0.00     0.139 C 
HETATM    3  C   UNK N   1      28.672  17.479   7.208  0.00  0.00     0.100 C 
HETATM    4  C   UNK N   1      29.659  17.285   8.345  0.00  0.00     0.032 C 
HETATM    5  C   UNK N   1      28.753  17.583   9.524  0.00  0.00     0.120 C 
HETATM    6  H   UNK N   1      27.274  19.246   9.711  0.00  0.00     0.153 HD
ENDROOT
BRANCH   3   7
HETATM    7  N   UNK N   1      29.300  17.649   5.899  0.00  0.00    -0.414 N 
HETATM    8  H   UNK N   1      30.034  18.322   5.677  0.00  0.00     0.153 HD
BRANCH   7   9
HETATM    9  C   UNK N   1      28.709  16.702   4.963  0.00  0.00     0.133 C 
BRANCH   9  10
HETATM   10  C   UNK N   1      28.177  17.442   3.746  0.00  0.00     0.133 C 
BRANCH  10  11
HETATM   11  N   UNK N   1      27.270  18.508   4.149  0.00  0.00    -0.416 N 
HETATM   12  H   UNK N   1      27.465  19.509   4.135  0.00  0.00     0.153 HD
BRANCH  11  13
HETATM   13  C   UNK N   1      26.032  17.872   4.575  0.00  0.00     0.152 C 
BRANCH  13  14
HETATM   14  C   UNK N   1      24.853  18.638   4.076  0.00  0.00    -0.041 A 
HETATM   15  C   UNK N   1      25.045  19.870   3.442  0.00  0.00     0.010 A 
HETATM   16  C   UNK N   1      23.946  20.579   2.946  0.00  0.00     0.024 A 
HETATM   17  C   UNK N   1      22.656  20.059   3.086  0.00  0.00     0.034 A 
HETATM   18  C   UNK N   1      22.462  18.830   3.721  0.00  0.00     0.024 A 
HETATM   19 Cl   UNK N   1      21.282  20.943   2.459  0.00  0.00    -0.084 Cl
HETATM   20  C   UNK N   1      23.559  18.118   4.211  0.00  0.00     0.010 A 
ENDBRANCH  13  14
ENDBRANCH  11  13
ENDBRANCH  10  11
ENDBRANCH   9  10
ENDBRANCH   7   9
ENDBRANCH   3   7
BRANCH   4  21
HETATM   21  C   UNK N   1      30.811  18.305   8.271  0.00  0.00     0.065 C 
BRANCH  21  22
HETATM   22  C   UNK N   1      32.157  17.662   8.184  0.00  0.00     0.011 A 
HETATM   23  C   UNK N   1      32.599  17.120   6.973  0.00  0.00     0.032 A 
HETATM   24  C   UNK N   1      33.869  16.541   6.908  0.00  0.00    -0.057 A 
HETATM   25  C   UNK N   1      34.677  16.511   8.045  0.00  0.00     0.054 A 
HETATM   26  C   UNK N   1      34.362  15.963   5.631  0.00  0.00     0.048 C 
HETATM   27  C   UNK N   1      34.203  17.064   9.236  0.00  0.00     0.099 A 
HETATM   28  N   UNK N   1      32.966  17.626   9.278  0.00  0.00    -0.346 N 
ATOM     29  HN  UNK N   1      32.635  18.033  10.153  1.00  0.00     0.167 HD
BRANCH  27  30
HETATM   30  N   UNK N   1      35.004  17.045  10.392  0.00  0.00    -0.385 N 
HETATM   31  H   UNK N   1      35.903  16.642  10.364  0.00  0.00     0.157 HD
HETATM   32  H   UNK N   1      34.666  17.433  11.231  0.00  0.00     0.157 HD
ENDBRANCH  27  30
ENDBRANCH  21  22
ENDBRANCH   4  21
TORSDOF 9
ENDMDL
MODEL 4
REMARK VINA RESULT:      -6.7      3.788      9.826
REMARK  9 active torsions:
REMARK  status: ('A' for Active; 'I' for Inactive)
REMARK    1  A    between atoms: C_7  and  C_27 
REMARK    2  A    between atoms: C_8  and  N_9 
REMARK    3  A    between atoms: C_13  and  C_21 
REMARK    4  A    between atoms: C_18  and  N_23 
REMARK    5  A    between atoms: C_19  and  C_21 
REMARK    6  A    between atoms: N_23  and  C_24 
REMARK    7  A    between atoms: C_24  and  C_25 
REMARK    8  A    between atoms: C_25  and  N_26 
REMARK    9  A    between atoms: N_26  and  C_27 
ROOT
HETATM    1  N   UNK N   1      34.902  17.204  10.280  0.00  0.00    -0.419 N 
HETATM    2  C   UNK N   1      35.136  15.977  11.045  0.00  0.00     0.139 C 
HETATM    3  C   UNK N   1      35.244  14.859  10.032  0.00  0.00     0.100 C 
HETATM    4  C   UNK N   1      34.245  15.303   8.979  0.00  0.00     0.032 C 
HETATM    5  C   UNK N   1      34.579  16.780   8.914  0.00  0.00     0.120 C 
HETATM    6  H   UNK N   1      34.954  18.161  10.628  0.00  0.00     0.153 HD
ENDROOT
BRANCH   3   7
HETATM    7  N   UNK N   1      34.943  13.559  10.627  0.00  0.00    -0.414 N 
HETATM    8  H   UNK N   1      34.030  13.262  10.973  0.00  0.00     0.153 HD
BRANCH   7   9
HETATM    9  C   UNK N   1      36.157  12.754  10.645  0.00  0.00     0.133 C 
BRANCH   9  10
HETATM   10  C   UNK N   1      36.864  12.915  11.981  0.00  0.00     0.133 C 
BRANCH  10  11
HETATM   11  N   UNK N   1      35.913  12.825  13.080  0.00  0.00    -0.416 N 
HETATM   12  H   UNK N   1      34.986  12.398  13.048  0.00  0.00     0.153 HD
BRANCH  11  13
HETATM   13  C   UNK N   1      36.535  13.461  14.232  0.00  0.00     0.152 C 
BRANCH  13  14
HETATM   14  C   UNK N   1      36.134  12.767  15.490  0.00  0.00    -0.041 A 
HETATM   15  C   UNK N   1      36.475  11.423  15.680  0.00  0.00     0.010 A 
HETATM   16  C   UNK N   1      36.127  10.776  16.870  0.00  0.00     0.024 A 
HETATM   17  C   UNK N   1      35.439  11.469  17.870  0.00  0.00     0.034 A 
HETATM   18  C   UNK N   1      35.096  12.810  17.682  0.00  0.00     0.024 A 
HETATM   19 Cl   UNK N   1      35.011  10.661  19.361  0.00  0.00    -0.084 Cl
HETATM   20  C   UNK N   1      35.447  13.459  16.496  0.00  0.00     0.010 A 
ENDBRANCH  13  14
ENDBRANCH  11  13
ENDBRANCH  10  11
ENDBRANCH   9  10
ENDBRANCH   7   9
ENDBRANCH   3   7
BRANCH   4  21
HETATM   21  C   UNK N   1      32.795  15.091   9.454  0.00  0.00     0.065 C 
BRANCH  21  22
HETATM   22  C   UNK N   1      31.811  15.955   8.735  0.00  0.00     0.011 A 
HETATM   23  C   UNK N   1      31.616  15.799   7.359  0.00  0.00     0.032 A 
HETATM   24  C   UNK N   1      30.676  16.604   6.709  0.00  0.00    -0.057 A 
HETATM   25  C   UNK N   1      29.948  17.547   7.436  0.00  0.00     0.054 A 
HETATM   26  C   UNK N   1      30.447  16.453   5.248  0.00  0.00     0.048 C 
HETATM   27  C   UNK N   1      30.169  17.672   8.808  0.00  0.00     0.099 A 
HETATM   28  N   UNK N   1      31.085  16.877   9.423  0.00  0.00    -0.346 N 
ATOM     29  HN  UNK N   1      31.231  16.975  10.428  1.00  0.00     0.167 HD
BRANCH  27  30
HETATM   30  N   UNK N   1      29.444  18.616   9.557  0.00  0.00    -0.385 N 
HETATM   31  H   UNK N   1      28.694  18.325  10.126  0.00  0.00     0.157 HD
HETATM   32  H   UNK N   1      29.686  19.569   9.513  0.00  0.00     0.157 HD
ENDBRANCH  27  30
ENDBRANCH  21  22
ENDBRANCH   4  21
TORSDOF 9
ENDMDL
MODEL 5
REMARK VINA RESULT:      -6.7      1.172      1.643
REMARK  9 active torsions:
REMARK  status: ('A' for Active; 'I' for Inactive)
REMARK    1  A    between atoms: C_7  and  C_27 
REMARK    2  A    between atoms: C_8  and  N_9 
REMARK    3  A    between atoms: C_13  and  C_21 
REMARK    4  A    between atoms: C_18  and  N_23 
REMARK    5  A    between atoms: C_19  and  C_21 
REMARK    6  A    between atoms: N_23  and  C_24 
REMARK    7  A    between atoms: C_24  and  C_25 
REMARK    8  A    between atoms: C_25  and  N_26 
REMARK    9  A    between atoms: N_26  and  C_27 
ROOT
HETATM    1  N   UNK N   1      36.597  11.134  11.923  0.00  0.00    -0.419 N 
HETATM    2  C   UNK N   1      36.090  12.480  11.649  0.00  0.00     0.139 C 
HETATM    3  C   UNK N   1      36.689  13.382  12.705  0.00  0.00     0.100 C 
HETATM    4  C   UNK N   1      36.718  12.463  13.913  0.00  0.00     0.032 C 
HETATM    5  C   UNK N   1      37.210  11.189  13.253  0.00  0.00     0.120 C 
HETATM    6  H   UNK N   1      36.535  10.320  11.310  0.00  0.00     0.153 HD
ENDROOT
BRANCH   3   7
HETATM    7  N   UNK N   1      35.893  14.593  12.899  0.00  0.00    -0.414 N 
HETATM    8  H   UNK N   1      35.829  15.127  13.765  0.00  0.00     0.153 HD
BRANCH   7   9
HETATM    9  C   UNK N   1      35.206  14.911  11.654  0.00  0.00     0.133 C 
BRANCH   9  10
HETATM   10  C   UNK N   1      35.395  16.383  11.323  0.00  0.00     0.133 C 
BRANCH  10  11
HETATM   11  N   UNK N   1      34.680  16.731  10.102  0.00  0.00    -0.416 N 
HETATM   12  H   UNK N   1      33.999  17.482   9.990  0.00  0.00     0.153 HD
BRANCH  11  13
HETATM   13  C   UNK N   1      35.123  15.802   9.073  0.00  0.00     0.152 C 
BRANCH  13  14
HETATM   14  C   UNK N   1      34.543  16.173   7.750  0.00  0.00    -0.041 A 
HETATM   15  C   UNK N   1      33.715  17.296   7.646  0.00  0.00     0.010 A 
HETATM   16  C   UNK N   1      33.192  17.666   6.403  0.00  0.00     0.024 A 
HETATM   17  C   UNK N   1      33.494  16.914   5.264  0.00  0.00     0.034 A 
HETATM   18  C   UNK N   1      34.319  15.791   5.365  0.00  0.00     0.024 A 
HETATM   19 Cl   UNK N   1      32.845  17.381   3.708  0.00  0.00    -0.084 Cl
HETATM   20  C   UNK N   1      34.846  15.424   6.606  0.00  0.00     0.010 A 
ENDBRANCH  13  14
ENDBRANCH  11  13
ENDBRANCH  10  11
ENDBRANCH   9  10
ENDBRANCH   7   9
ENDBRANCH   3   7
BRANCH   4  21
HETATM   21  C   UNK N   1      35.308  12.264  14.502  0.00  0.00     0.065 C 
BRANCH  21  22
HETATM   22  C   UNK N   1      35.282  12.337  15.994  0.00  0.00     0.011 A 
HETATM   23  C   UNK N   1      35.266  11.163  16.754  0.00  0.00     0.032 A 
HETATM   24  C   UNK N   1      35.262  11.253  18.149  0.00  0.00    -0.057 A 
HETATM   25  C   UNK N   1      35.276  12.506  18.763  0.00  0.00     0.054 A 
HETATM   26  C   UNK N   1      35.249  10.020  18.977  0.00  0.00     0.048 C 
HETATM   27  C   UNK N   1      35.294  13.656  17.971  0.00  0.00     0.099 A 
HETATM   28  N   UNK N   1      35.302  13.547  16.616  0.00  0.00    -0.346 N 
ATOM     29  HN  UNK N   1      35.322  14.396  16.051  1.00  0.00     0.167 HD
BRANCH  27  30
HETATM   30  N   UNK N   1      35.310  14.927  18.573  0.00  0.00    -0.385 N 
HETATM   31  H   UNK N   1      36.041  15.177  19.184  0.00  0.00     0.157 HD
HETATM   32  H   UNK N   1      34.588  15.570  18.384  0.00  0.00     0.157 HD
ENDBRANCH  27  30
ENDBRANCH  21  22
ENDBRANCH   4  21
TORSDOF 9
ENDMDL
MODEL 6
REMARK VINA RESULT:      -6.7      2.136      3.601
REMARK  9 active torsions:
REMARK  status: ('A' for Active; 'I' for Inactive)
REMARK    1  A    between atoms: C_7  and  C_27 
REMARK    2  A    between atoms: C_8  and  N_9 
REMARK    3  A    between atoms: C_13  and  C_21 
REMARK    4  A    between atoms: C_18  and  N_23 
REMARK    5  A    between atoms: C_19  and  C_21 
REMARK    6  A    between atoms: N_23  and  C_24 
REMARK    7  A    between atoms: C_24  and  C_25 
REMARK    8  A    between atoms: C_25  and  N_26 
REMARK    9  A    between atoms: N_26  and  C_27 
ROOT
HETATM    1  N   UNK N   1      34.645  16.365  10.672  0.00  0.00    -0.419 N 
HETATM    2  C   UNK N   1      35.364  16.096   9.425  0.00  0.00     0.139 C 
HETATM    3  C   UNK N   1      34.834  14.778   8.905  0.00  0.00     0.100 C 
HETATM    4  C   UNK N   1      34.586  14.017  10.195  0.00  0.00     0.032 C 
HETATM    5  C   UNK N   1      33.956  15.119  11.025  0.00  0.00     0.120 C 
HETATM    6  H   UNK N   1      34.626  17.243  11.191  0.00  0.00     0.153 HD
ENDROOT
BRANCH   3   7
HETATM    7  N   UNK N   1      35.787  14.129   8.006  0.00  0.00    -0.414 N 
HETATM    8  H   UNK N   1      36.746  13.874   8.243  0.00  0.00     0.153 HD
BRANCH   7   9
HETATM    9  C   UNK N   1      35.145  13.904   6.718  0.00  0.00     0.133 C 
BRANCH   9  10
HETATM   10  C   UNK N   1      35.379  15.100   5.809  0.00  0.00     0.133 C 
BRANCH  10  11
HETATM   11  N   UNK N   1      34.112  15.693   5.405  0.00  0.00    -0.416 N 
HETATM   12  H   UNK N   1      33.415  15.276   4.787  0.00  0.00     0.153 HD
BRANCH  11  13
HETATM   13  C   UNK N   1      34.030  16.996   6.048  0.00  0.00     0.152 C 
BRANCH  13  14
HETATM   14  C   UNK N   1      32.687  17.188   6.669  0.00  0.00    -0.041 A 
HETATM   15  C   UNK N   1      31.540  16.782   5.978  0.00  0.00     0.010 A 
HETATM   16  C   UNK N   1      30.280  16.933   6.567  0.00  0.00     0.024 A 
HETATM   17  C   UNK N   1      30.166  17.491   7.844  0.00  0.00     0.034 A 
HETATM   18  C   UNK N   1      31.309  17.899   8.534  0.00  0.00     0.024 A 
HETATM   19 Cl   UNK N   1      28.590  17.673   8.583  0.00  0.00    -0.084 Cl
HETATM   20  C   UNK N   1      32.568  17.744   7.949  0.00  0.00     0.010 A 
ENDBRANCH  13  14
ENDBRANCH  11  13
ENDBRANCH  10  11
ENDBRANCH   9  10
ENDBRANCH   7   9
ENDBRANCH   3   7
BRANCH   4  21
HETATM   21  C   UNK N   1      35.906  13.541  10.831  0.00  0.00     0.065 C 
BRANCH  21  22
HETATM   22  C   UNK N   1      35.802  13.331  12.307  0.00  0.00     0.011 A 
HETATM   23  C   UNK N   1      34.930  12.365  12.817  0.00  0.00     0.032 A 
HETATM   24  C   UNK N   1      34.863  12.169  14.200  0.00  0.00    -0.057 A 
HETATM   25  C   UNK N   1      35.662  12.936  15.048  0.00  0.00     0.054 A 
HETATM   26  C   UNK N   1      33.947  11.145  14.765  0.00  0.00     0.048 C 
HETATM   27  C   UNK N   1      36.522  13.889  14.501  0.00  0.00     0.099 A 
HETATM   28  N   UNK N   1      36.577  14.062  13.154  0.00  0.00    -0.346 N 
ATOM     29  HN  UNK N   1      37.215  14.758  12.768  1.00  0.00     0.167 HD
BRANCH  27  30
HETATM   30  N   UNK N   1      37.337  14.671  15.341  0.00  0.00    -0.385 N 
HETATM   31  H   UNK N   1      37.188  15.642  15.410  0.00  0.00     0.157 HD
HETATM   32  H   UNK N   1      38.057  14.246  15.861  0.00  0.00     0.157 HD
ENDBRANCH  27  30
ENDBRANCH  21  22
ENDBRANCH   4  21
TORSDOF 9
ENDMDL
MODEL 7
REMARK VINA RESULT:      -6.4     18.392     21.273
REMARK  9 active torsions:
REMARK  status: ('A' for Active; 'I' for Inactive)
REMARK    1  A    between atoms: C_7  and  C_27 
REMARK    2  A    between atoms: C_8  and  N_9 
REMARK    3  A    between atoms: C_13  and  C_21 
REMARK    4  A    between atoms: C_18  and  N_23 
REMARK    5  A    between atoms: C_19  and  C_21 
REMARK    6  A    between atoms: N_23  and  C_24 
REMARK    7  A    between atoms: C_24  and  C_25 
REMARK    8  A    between atoms: C_25  and  N_26 
REMARK    9  A    between atoms: N_26  and  C_27 
ROOT
HETATM    1  N   UNK N   1      31.860  27.427  -5.689  0.00  0.00    -0.419 N 
HETATM    2  C   UNK N   1      30.873  28.285  -5.029  0.00  0.00     0.139 C 
HETATM    3  C   UNK N   1      30.820  27.837  -3.586  0.00  0.00     0.100 C 
HETATM    4  C   UNK N   1      31.032  26.339  -3.722  0.00  0.00     0.032 C 
HETATM    5  C   UNK N   1      32.140  26.331  -4.757  0.00  0.00     0.120 C 
HETATM    6  H   UNK N   1      32.271  27.565  -6.613  0.00  0.00     0.153 HD
ENDROOT
BRANCH   3   7
HETATM    7  N   UNK N   1      29.554  28.202  -2.952  0.00  0.00    -0.414 N 
HETATM    8  H   UNK N   1      28.960  27.575  -2.409  0.00  0.00     0.153 HD
BRANCH   7   9
HETATM    9  C   UNK N   1      29.278  29.606  -3.222  0.00  0.00     0.133 C 
BRANCH   9  10
HETATM   10  C   UNK N   1      27.823  29.916  -2.907  0.00  0.00     0.133 C 
BRANCH  10  11
HETATM   11  N   UNK N   1      27.082  28.691  -2.643  0.00  0.00    -0.416 N 
HETATM   12  H   UNK N   1      27.278  28.008  -1.911  0.00  0.00     0.153 HD
BRANCH  11  13
HETATM   13  C   UNK N   1      26.009  28.625  -3.624  0.00  0.00     0.152 C 
BRANCH  13  14
HETATM   14  C   UNK N   1      25.963  27.277  -4.259  0.00  0.00    -0.041 A 
HETATM   15  C   UNK N   1      26.332  26.149  -3.519  0.00  0.00     0.010 A 
HETATM   16  C   UNK N   1      26.264  24.878  -4.100  0.00  0.00     0.024 A 
HETATM   17  C   UNK N   1      25.829  24.735  -5.421  0.00  0.00     0.034 A 
HETATM   18  C   UNK N   1      25.462  25.860  -6.163  0.00  0.00     0.024 A 
HETATM   19 Cl   UNK N   1      25.737  23.145  -6.145  0.00  0.00    -0.084 Cl
HETATM   20  C   UNK N   1      25.525  27.128  -5.581  0.00  0.00     0.010 A 
ENDBRANCH  13  14
ENDBRANCH  11  13
ENDBRANCH  10  11
ENDBRANCH   9  10
ENDBRANCH   7   9
ENDBRANCH   3   7
BRANCH   4  21
HETATM   21  C   UNK N   1      29.771  25.639  -4.264  0.00  0.00     0.065 C 
BRANCH  21  22
HETATM   22  C   UNK N   1      29.961  24.171  -4.471  0.00  0.00     0.011 A 
HETATM   23  C   UNK N   1      29.393  23.542  -5.583  0.00  0.00     0.032 A 
HETATM   24  C   UNK N   1      29.599  22.172  -5.770  0.00  0.00    -0.057 A 
HETATM   25  C   UNK N   1      30.364  21.454  -4.850  0.00  0.00     0.054 A 
HETATM   26  C   UNK N   1      29.010  21.481  -6.946  0.00  0.00     0.048 C 
HETATM   27  C   UNK N   1      30.916  22.118  -3.754  0.00  0.00     0.099 A 
HETATM   28  N   UNK N   1      30.708  23.451  -3.592  0.00  0.00    -0.346 N 
ATOM     29  HN  UNK N   1      31.124  23.925  -2.789  1.00  0.00     0.167 HD
BRANCH  27  30
HETATM   30  N   UNK N   1      31.692  21.410  -2.817  0.00  0.00    -0.385 N 
HETATM   31  H   UNK N   1      32.497  20.923  -3.108  0.00  0.00     0.157 HD
HETATM   32  H   UNK N   1      31.430  21.402  -1.868  0.00  0.00     0.157 HD
ENDBRANCH  27  30
ENDBRANCH  21  22
ENDBRANCH   4  21
TORSDOF 9
ENDMDL
MODEL 8
REMARK VINA RESULT:      -6.4      8.183     11.468
REMARK  9 active torsions:
REMARK  status: ('A' for Active; 'I' for Inactive)
REMARK    1  A    between atoms: C_7  and  C_27 
REMARK    2  A    between atoms: C_8  and  N_9 
REMARK    3  A    between atoms: C_13  and  C_21 
REMARK    4  A    between atoms: C_18  and  N_23 
REMARK    5  A    between atoms: C_19  and  C_21 
REMARK    6  A    between atoms: N_23  and  C_24 
REMARK    7  A    between atoms: C_24  and  C_25 
REMARK    8  A    between atoms: C_25  and  N_26 
REMARK    9  A    between atoms: N_26  and  C_27 
ROOT
HETATM    1  N   UNK N   1      29.523  14.510   2.578  0.00  0.00    -0.419 N 
HETATM    2  C   UNK N   1      28.207  15.134   2.737  0.00  0.00     0.139 C 
HETATM    3  C   UNK N   1      28.463  16.547   3.213  0.00  0.00     0.100 C 
HETATM    4  C   UNK N   1      29.683  16.357   4.096  0.00  0.00     0.032 C 
HETATM    5  C   UNK N   1      30.484  15.408   3.225  0.00  0.00     0.120 C 
HETATM    6  H   UNK N   1      29.728  13.627   2.111  0.00  0.00     0.153 HD
ENDROOT
BRANCH   3   7
HETATM    7  N   UNK N   1      27.304  17.101   3.911  0.00  0.00    -0.414 N 
HETATM    8  H   UNK N   1      26.563  16.557   4.354  0.00  0.00     0.153 HD
BRANCH   7   9
HETATM    9  C   UNK N   1      27.380  18.555   3.874  0.00  0.00     0.133 C 
BRANCH   9  10
HETATM   10  C   UNK N   1      26.894  19.131   5.195  0.00  0.00     0.133 C 
BRANCH  10  11
HETATM   11  N   UNK N   1      25.441  19.223   5.211  0.00  0.00    -0.416 N 
HETATM   12  H   UNK N   1      24.817  18.852   5.928  0.00  0.00     0.153 HD
BRANCH  11  13
HETATM   13  C   UNK N   1      25.049  19.946   4.011  0.00  0.00     0.152 C 
BRANCH  13  14
HETATM   14  C   UNK N   1      23.629  19.648   3.662  0.00  0.00    -0.041 A 
HETATM   15  C   UNK N   1      23.000  18.527   4.214  0.00  0.00     0.010 A 
HETATM   16  C   UNK N   1      21.661  18.259   3.914  0.00  0.00     0.024 A 
HETATM   17  C   UNK N   1      20.950  19.108   3.060  0.00  0.00     0.034 A 
HETATM   18  C   UNK N   1      21.577  20.226   2.506  0.00  0.00     0.024 A 
HETATM   19 Cl   UNK N   1      19.273  18.776   2.691  0.00  0.00    -0.084 Cl
HETATM   20  C   UNK N   1      22.913  20.498   2.810  0.00  0.00     0.010 A 
ENDBRANCH  13  14
ENDBRANCH  11  13
ENDBRANCH  10  11
ENDBRANCH   9  10
ENDBRANCH   7   9
ENDBRANCH   3   7
BRANCH   4  21
HETATM   21  C   UNK N   1      29.312  15.690   5.434  0.00  0.00     0.065 C 
BRANCH  21  22
HETATM   22  C   UNK N   1      29.634  16.539   6.620  0.00  0.00     0.011 A 
HETATM   23  C   UNK N   1      30.966  16.816   6.942  0.00  0.00     0.032 A 
HETATM   24  C   UNK N   1      31.246  17.629   8.044  0.00  0.00    -0.057 A 
HETATM   25  C   UNK N   1      30.199  18.151   8.805  0.00  0.00     0.054 A 
HETATM   26  C   UNK N   1      32.654  17.941   8.404  0.00  0.00     0.048 C 
HETATM   27  C   UNK N   1      28.882  17.854   8.451  0.00  0.00     0.099 A 
HETATM   28  N   UNK N   1      28.630  17.065   7.373  0.00  0.00    -0.346 N 
ATOM     29  HN  UNK N   1      27.662  16.862   7.122  1.00  0.00     0.167 HD
BRANCH  27  30
HETATM   30  N   UNK N   1      27.814  18.373   9.205  0.00  0.00    -0.385 N 
HETATM   31  H   UNK N   1      26.975  18.635   8.760  0.00  0.00     0.157 HD
HETATM   32  H   UNK N   1      27.904  18.475  10.180  0.00  0.00     0.157 HD
ENDBRANCH  27  30
ENDBRANCH  21  22
ENDBRANCH   4  21
TORSDOF 9
ENDMDL
MODEL 9
REMARK VINA RESULT:      -6.4     17.699     21.400
REMARK  9 active torsions:
REMARK  status: ('A' for Active; 'I' for Inactive)
REMARK    1  A    between atoms: C_7  and  C_27 
REMARK    2  A    between atoms: C_8  and  N_9 
REMARK    3  A    between atoms: C_13  and  C_21 
REMARK    4  A    between atoms: C_18  and  N_23 
REMARK    5  A    between atoms: C_19  and  C_21 
REMARK    6  A    between atoms: N_23  and  C_24 
REMARK    7  A    between atoms: C_24  and  C_25 
REMARK    8  A    between atoms: C_25  and  N_26 
REMARK    9  A    between atoms: N_26  and  C_27 
ROOT
HETATM    1  N   UNK N   1      29.327  20.152  -9.416  0.00  0.00    -0.419 N 
HETATM    2  C   UNK N   1      28.159  20.832  -8.852  0.00  0.00     0.139 C 
HETATM    3  C   UNK N   1      28.687  22.046  -8.121  0.00  0.00     0.100 C 
HETATM    4  C   UNK N   1      30.004  21.525  -7.574  0.00  0.00     0.032 C 
HETATM    5  C   UNK N   1      30.501  20.762  -8.787  0.00  0.00     0.120 C 
HETATM    6  H   UNK N   1      29.323  19.403 -10.110  0.00  0.00     0.153 HD
ENDROOT
BRANCH   3   7
HETATM    7  N   UNK N   1      27.756  22.505  -7.092  0.00  0.00    -0.414 N 
HETATM    8  H   UNK N   1      28.012  23.024  -6.251  0.00  0.00     0.153 HD
BRANCH   7   9
HETATM    9  C   UNK N   1      26.406  22.103  -7.461  0.00  0.00     0.133 C 
BRANCH   9  10
HETATM   10  C   UNK N   1      25.660  23.285  -8.059  0.00  0.00     0.133 C 
BRANCH  10  11
HETATM   11  N   UNK N   1      25.493  24.341  -7.070  0.00  0.00    -0.416 N 
HETATM   12  H   UNK N   1      25.099  24.240  -6.135  0.00  0.00     0.153 HD
BRANCH  11  13
HETATM   13  C   UNK N   1      25.994  25.568  -7.671  0.00  0.00     0.152 C 
BRANCH  13  14
HETATM   14  C   UNK N   1      26.113  26.642  -6.644  0.00  0.00    -0.041 A 
HETATM   15  C   UNK N   1      27.140  27.587  -6.745  0.00  0.00     0.010 A 
HETATM   16  C   UNK N   1      27.239  28.614  -5.800  0.00  0.00     0.024 A 
HETATM   17  C   UNK N   1      26.315  28.696  -4.755  0.00  0.00     0.034 A 
HETATM   18  C   UNK N   1      25.291  27.753  -4.651  0.00  0.00     0.024 A 
HETATM   19 Cl   UNK N   1      26.436  29.986  -3.578  0.00  0.00    -0.084 Cl
HETATM   20  C   UNK N   1      25.187  26.730  -5.596  0.00  0.00     0.010 A 
ENDBRANCH  13  14
ENDBRANCH  11  13
ENDBRANCH  10  11
ENDBRANCH   9  10
ENDBRANCH   7   9
ENDBRANCH   3   7
BRANCH   4  21
HETATM   21  C   UNK N   1      29.782  20.574  -6.383  0.00  0.00     0.065 C 
BRANCH  21  22
HETATM   22  C   UNK N   1      30.576  20.953  -5.175  0.00  0.00     0.011 A 
HETATM   23  C   UNK N   1      31.880  20.475  -5.015  0.00  0.00     0.032 A 
HETATM   24  C   UNK N   1      32.614  20.858  -3.889  0.00  0.00    -0.057 A 
HETATM   25  C   UNK N   1      32.039  21.708  -2.943  0.00  0.00     0.054 A 
HETATM   26  C   UNK N   1      34.003  20.366  -3.699  0.00  0.00     0.048 C 
HETATM   27  C   UNK N   1      30.736  22.167  -3.139  0.00  0.00     0.099 A 
HETATM   28  N   UNK N   1      30.040  21.787  -4.243  0.00  0.00    -0.346 N 
ATOM     29  HN  UNK N   1      29.091  22.136  -4.376  1.00  0.00     0.167 HD
BRANCH  27  30
HETATM   30  N   UNK N   1      30.141  23.027  -2.197  0.00  0.00    -0.385 N 
HETATM   31  H   UNK N   1      30.525  23.918  -2.029  0.00  0.00     0.157 HD
HETATM   32  H   UNK N   1      29.339  22.737  -1.704  0.00  0.00     0.157 HD
ENDBRANCH  27  30
ENDBRANCH  21  22
ENDBRANCH   4  21
TORSDOF 9
ENDMDL
