REMARK  9 active torsions:
REMARK  status: ('A' for Active; 'I' for Inactive)
REMARK    1  A    between atoms: C_8  and  C_4 
REMARK    2  A    between atoms: N_27  and  C_7 
REMARK    3  A    between atoms: C_9  and  C_8 
REMARK    4  A    between atoms: C_10  and  N_14 
REMARK    5  A    between atoms: C_15  and  N_14 
REMARK    6  A    between atoms: C_16  and  C_15 
REMARK    7  A    between atoms: N_17  and  C_16 
REMARK    8  A    between atoms: C_18  and  N_17 
REMARK    9  A    between atoms: C_19  and  C_18 
ROOT
HETATM    1  C   UNK N   1      -2.065   0.767  -0.211  0.00  0.00     0.032 C 
HETATM    2  C   UNK N   1      -1.998   2.255   0.102  0.00  0.00     0.100 C 
HETATM    3  C   UNK N   1      -3.455   2.646  -0.018  0.00  0.00     0.139 C 
HETATM    4  N   UNK N   1      -4.248   1.501   0.431  0.00  0.00    -0.419 N 
HETATM    5  C   UNK N   1      -3.311   0.387   0.562  0.00  0.00     0.120 C 
HETATM    6  H   UNK N   1      -5.251   1.484   0.615  0.00  0.00     0.153 HD
ENDROOT
BRANCH   2   7
HETATM    7  N   UNK N   1      -1.192   3.055  -0.831  0.00  0.00    -0.414 N 
HETATM    8  H   UNK N   1      -1.547   3.863  -1.343  0.00  0.00     0.153 HD
BRANCH   7   9
HETATM    9  C   UNK N   1       0.176   2.559  -0.939  0.00  0.00     0.133 C 
BRANCH   9  10
HETATM   10  C   UNK N   1       1.058   3.123   0.157  0.00  0.00     0.133 C 
BRANCH  10  11
HETATM   11  N   UNK N   1       2.038   2.115   0.518  0.00  0.00    -0.416 N 
HETATM   12  H   UNK N   1       1.834   1.202   0.927  0.00  0.00     0.153 HD
BRANCH  11  13
HETATM   13  C   UNK N   1       3.362   2.629   0.198  0.00  0.00     0.152 C 
BRANCH  13  14
HETATM   14  C   UNK N   1       4.370   1.520   0.089  0.00  0.00    -0.039 A 
HETATM   15  C   UNK N   1       5.725   1.842  -0.049  0.00  0.00     0.009 A 
HETATM   16  C   UNK N   1       6.685   0.828  -0.144  0.00  0.00     0.002 A 
HETATM   17  C   UNK N   1       6.293  -0.513  -0.107  0.00  0.00     0.024 A 
HETATM   18  C   UNK N   1       4.942  -0.841   0.024  0.00  0.00     0.034 A 
HETATM   19  C   UNK N   1       3.982   0.170   0.125  0.00  0.00     0.032 A 
HETATM   20 Cl   UNK N   1       4.452  -2.519   0.062  0.00  0.00    -0.084 Cl
ENDBRANCH  13  14
ENDBRANCH  11  13
ENDBRANCH  10  11
ENDBRANCH   9  10
ENDBRANCH   7   9
ENDBRANCH   2   7
BRANCH   1  21
HETATM   21  C   UNK N   1      -0.810   0.007   0.253  0.00  0.00     0.065 C 
BRANCH  21  22
HETATM   22  C   UNK N   1      -0.818  -1.491   0.099  0.00  0.00     0.011 A 
HETATM   23  C   UNK N   1      -2.013  -2.220   0.035  0.00  0.00     0.032 A 
HETATM   24  C   UNK N   1      -1.971  -3.609  -0.055  0.00  0.00    -0.057 A 
HETATM   25  C   UNK N   1      -0.741  -4.265  -0.081  0.00  0.00     0.054 A 
HETATM   26  C   UNK N   1      -3.233  -4.391  -0.110  0.00  0.00     0.048 C 
HETATM   27  C   UNK N   1       0.432  -3.513  -0.015  0.00  0.00     0.099 A 
HETATM   28  N   UNK N   1       0.373  -2.157   0.080  0.00  0.00    -0.346 N 
ATOM     29  HN  UNK N   1       1.241  -1.624   0.138  1.00  0.00     0.167 HD
BRANCH  27  30
HETATM   30  N   UNK N   1       1.680  -4.164  -0.037  0.00  0.00    -0.385 N 
HETATM   31  H   UNK N   1       1.722  -5.148  -0.053  0.00  0.00     0.157 HD
HETATM   32  H   UNK N   1       2.511  -3.636  -0.037  0.00  0.00     0.157 HD
ENDBRANCH  27  30
ENDBRANCH  21  22
ENDBRANCH   1  21
TORSDOF 9
