MODEL 1
REMARK VINA RESULT:      -6.7      0.000      0.000
REMARK  5 active torsions:
REMARK  status: ('A' for Active; 'I' for Inactive)
REMARK    1  A    between atoms: C_1  and  O_24 
REMARK    2  A    between atoms: C_3  and  C_21 
REMARK    3  A    between atoms: C_6  and  C_14 
REMARK    4  A    between atoms: C_17  and  O_18 
REMARK    5  A    between atoms: C_21  and  O_22 
ROOT
HETATM    1  C   UNK N   1      29.346  19.957  -7.700  0.00  0.00     0.067 A 
HETATM    2  C   UNK N   1      28.202  20.582  -8.206  0.00  0.00     0.048 A 
HETATM    3  C   UNK N   1      27.728  21.766  -7.630  0.00  0.00     0.002 A 
HETATM    4  C   UNK N   1      28.406  22.325  -6.536  0.00  0.00     0.085 A 
HETATM    5  O   UNK N   1      28.005  23.524  -6.016  0.00  0.00    -0.340 OA
HETATM    6  C   UNK N   1      28.830  24.285  -5.193  0.00  0.00     0.166 C 
HETATM    7  C   UNK N   1      29.395  23.328  -4.132  0.00  0.00     0.028 C 
HETATM    8  C   UNK N   1      30.335  23.805  -3.048  0.00  0.00     0.008 C 
HETATM    9  C   UNK N   1      30.993  22.494  -2.580  0.00  0.00     0.001 C 
HETATM   10  C   UNK N   1      30.701  21.445  -3.669  0.00  0.00     0.010 C 
HETATM   11  C   UNK N   1      30.264  22.299  -4.839  0.00  0.00     0.028 C 
HETATM   12  C   UNK N   1      29.532  21.663  -5.991  0.00  0.00    -0.017 A 
HETATM   13  C   UNK N   1      30.011  20.495  -6.596  0.00  0.00     0.047 A 
ENDROOT
BRANCH   6  14
HETATM   14  C   UNK N   1      28.076  25.495  -4.702  0.00  0.00    -0.028 A 
HETATM   15  C   UNK N   1      26.997  25.297  -3.828  0.00  0.00     0.012 A 
HETATM   16  C   UNK N   1      26.233  26.378  -3.386  0.00  0.00     0.037 A 
HETATM   17  C   UNK N   1      26.532  27.668  -3.825  0.00  0.00     0.065 A 
HETATM   18  C   UNK N   1      27.607  27.879  -4.694  0.00  0.00     0.037 A 
HETATM   19  C   UNK N   1      28.380  26.798  -5.130  0.00  0.00     0.012 A 
BRANCH  17  20
HETATM   20  O   UNK N   1      25.784  28.705  -3.414  0.00  0.00    -0.361 OA
HETATM   21  H   UNK N   1      25.332  28.665  -2.594  0.00  0.00     0.217 HD
ENDBRANCH  17  20
ENDBRANCH   6  14
BRANCH   3  22
HETATM   22  C   UNK N   1      26.522  22.424  -8.220  0.00  0.00     0.208 C 
BRANCH  22  23
HETATM   23  O   UNK N   1      25.500  21.492  -8.411  0.00  0.00    -0.391 OA
HETATM   24  C   UNK N   1      24.748  21.553  -7.239  0.00  0.00     0.201 C 
ENDBRANCH  22  23
ENDBRANCH   3  22
BRANCH   1  25
HETATM   25  O   UNK N   1      29.812  18.841  -8.284  0.00  0.00    -0.361 OA
HETATM   26  H   UNK N   1      30.115  18.126  -7.760  0.00  0.00     0.217 HD
ENDBRANCH   1  25
TORSDOF 5
ENDMDL
MODEL 2
REMARK VINA RESULT:      -6.7     14.718     15.879
REMARK  5 active torsions:
REMARK  status: ('A' for Active; 'I' for Inactive)
REMARK    1  A    between atoms: C_1  and  O_24 
REMARK    2  A    between atoms: C_3  and  C_21 
REMARK    3  A    between atoms: C_6  and  C_14 
REMARK    4  A    between atoms: C_17  and  O_18 
REMARK    5  A    between atoms: C_21  and  O_22 
ROOT
HETATM    1  C   UNK N   1      21.433  13.974   9.438  0.00  0.00     0.067 A 
HETATM    2  C   UNK N   1      20.337  14.841   9.405  0.00  0.00     0.048 A 
HETATM    3  C   UNK N   1      20.169  15.732   8.339  0.00  0.00     0.002 A 
HETATM    4  C   UNK N   1      21.111  15.753   7.299  0.00  0.00     0.085 A 
HETATM    5  O   UNK N   1      20.918  16.557   6.210  0.00  0.00    -0.340 OA
HETATM    6  C   UNK N   1      21.607  16.361   5.016  0.00  0.00     0.166 C 
HETATM    7  C   UNK N   1      23.089  16.195   5.386  0.00  0.00     0.028 C 
HETATM    8  C   UNK N   1      24.152  15.971   4.334  0.00  0.00     0.008 C 
HETATM    9  C   UNK N   1      25.313  15.384   5.158  0.00  0.00     0.001 C 
HETATM   10  C   UNK N   1      24.714  14.943   6.506  0.00  0.00     0.010 C 
HETATM   11  C   UNK N   1      23.229  14.930   6.218  0.00  0.00     0.028 C 
HETATM   12  C   UNK N   1      22.249  14.913   7.361  0.00  0.00    -0.017 A 
HETATM   13  C   UNK N   1      22.388  14.008   8.419  0.00  0.00     0.047 A 
ENDROOT
BRANCH   6  14
HETATM   14  C   UNK N   1      21.255  17.460   4.044  0.00  0.00    -0.028 A 
HETATM   15  C   UNK N   1      20.504  17.127   2.907  0.00  0.00     0.012 A 
HETATM   16  C   UNK N   1      20.197  18.096   1.950  0.00  0.00     0.037 A 
HETATM   17  C   UNK N   1      20.650  19.405   2.114  0.00  0.00     0.065 A 
HETATM   18  C   UNK N   1      21.397  19.750   3.245  0.00  0.00     0.037 A 
HETATM   19  C   UNK N   1      21.697  18.782   4.210  0.00  0.00     0.012 A 
BRANCH  17  20
HETATM   20  O   UNK N   1      20.371  20.331   1.183  0.00  0.00    -0.361 OA
HETATM   21  H   UNK N   1      19.814  20.120   0.460  0.00  0.00     0.217 HD
ENDBRANCH  17  20
ENDBRANCH   6  14
BRANCH   3  22
HETATM   22  C   UNK N   1      18.966  16.619   8.320  0.00  0.00     0.208 C 
BRANCH  22  23
HETATM   23  O   UNK N   1      18.025  16.188   9.257  0.00  0.00    -0.391 OA
HETATM   24  C   UNK N   1      17.119  17.243   9.353  0.00  0.00     0.201 C 
ENDBRANCH  22  23
ENDBRANCH   3  22
BRANCH   1  25
HETATM   25  O   UNK N   1      21.563  13.099  10.448  0.00  0.00    -0.361 OA
HETATM   26  H   UNK N   1      22.009  12.286  10.314  0.00  0.00     0.217 HD
ENDBRANCH   1  25
TORSDOF 5
ENDMDL
MODEL 3
REMARK VINA RESULT:      -6.7     11.727     14.853
REMARK  5 active torsions:
REMARK  status: ('A' for Active; 'I' for Inactive)
REMARK    1  A    between atoms: C_1  and  O_24 
REMARK    2  A    between atoms: C_3  and  C_21 
REMARK    3  A    between atoms: C_6  and  C_14 
REMARK    4  A    between atoms: C_17  and  O_18 
REMARK    5  A    between atoms: C_21  and  O_22 
ROOT
HETATM    1  C   UNK N   1      28.305  17.738   8.493  0.00  0.00     0.067 A 
HETATM    2  C   UNK N   1      27.779  17.193   7.317  0.00  0.00     0.048 A 
HETATM    3  C   UNK N   1      28.628  16.660   6.341  0.00  0.00     0.002 A 
HETATM    4  C   UNK N   1      30.017  16.677   6.545  0.00  0.00     0.085 A 
HETATM    5  O   UNK N   1      30.854  16.085   5.641  0.00  0.00    -0.340 OA
HETATM    6  C   UNK N   1      32.170  15.759   5.957  0.00  0.00     0.166 C 
HETATM    7  C   UNK N   1      32.783  17.001   6.622  0.00  0.00     0.028 C 
HETATM    8  C   UNK N   1      34.219  17.024   7.097  0.00  0.00     0.008 C 
HETATM    9  C   UNK N   1      34.220  18.200   8.089  0.00  0.00     0.001 C 
HETATM   10  C   UNK N   1      32.745  18.500   8.415  0.00  0.00     0.010 C 
HETATM   11  C   UNK N   1      32.041  17.254   7.925  0.00  0.00     0.028 C 
HETATM   12  C   UNK N   1      30.550  17.278   7.711  0.00  0.00    -0.017 A 
HETATM   13  C   UNK N   1      29.687  17.781   8.691  0.00  0.00     0.047 A 
ENDROOT
BRANCH   6  14
HETATM   14  C   UNK N   1      32.863  15.216   4.732  0.00  0.00    -0.028 A 
HETATM   15  C   UNK N   1      33.142  16.100   3.679  0.00  0.00     0.012 A 
HETATM   16  C   UNK N   1      33.734  15.639   2.502  0.00  0.00     0.037 A 
HETATM   17  C   UNK N   1      34.040  14.285   2.361  0.00  0.00     0.065 A 
HETATM   18  C   UNK N   1      33.770  13.394   3.404  0.00  0.00     0.037 A 
HETATM   19  C   UNK N   1      33.186  13.857   4.589  0.00  0.00     0.012 A 
BRANCH  17  20
HETATM   20  O   UNK N   1      34.592  13.839   1.221  0.00  0.00    -0.361 OA
HETATM   21  H   UNK N   1      34.677  14.411   0.483  0.00  0.00     0.217 HD
ENDBRANCH  17  20
ENDBRANCH   6  14
BRANCH   3  22
HETATM   22  C   UNK N   1      28.028  16.054   5.113  0.00  0.00     0.208 C 
BRANCH  22  23
HETATM   23  O   UNK N   1      28.034  16.972   4.061  0.00  0.00    -0.391 OA
HETATM   24  C   UNK N   1      28.605  16.278   2.995  0.00  0.00     0.201 C 
ENDBRANCH  22  23
ENDBRANCH   3  22
BRANCH   1  25
HETATM   25  O   UNK N   1      27.478  18.213   9.437  0.00  0.00    -0.361 OA
HETATM   26  H   UNK N   1      26.778  18.790   9.204  0.00  0.00     0.217 HD
ENDBRANCH   1  25
TORSDOF 5
ENDMDL
MODEL 4
REMARK VINA RESULT:      -6.6     10.589     12.580
REMARK  5 active torsions:
REMARK  status: ('A' for Active; 'I' for Inactive)
REMARK    1  A    between atoms: C_1  and  O_24 
REMARK    2  A    between atoms: C_3  and  C_21 
REMARK    3  A    between atoms: C_6  and  C_14 
REMARK    4  A    between atoms: C_17  and  O_18 
REMARK    5  A    between atoms: C_21  and  O_22 
ROOT
HETATM    1  C   UNK N   1      29.772  16.656   6.826  0.00  0.00     0.067 A 
HETATM    2  C   UNK N   1      29.341  17.909   7.274  0.00  0.00     0.048 A 
HETATM    3  C   UNK N   1      28.228  18.525   6.691  0.00  0.00     0.002 A 
HETATM    4  C   UNK N   1      27.544  17.880   5.649  0.00  0.00     0.085 A 
HETATM    5  O   UNK N   1      26.407  18.430   5.126  0.00  0.00    -0.340 OA
HETATM    6  C   UNK N   1      25.509  17.685   4.366  0.00  0.00     0.166 C 
HETATM    7  C   UNK N   1      26.343  16.923   3.324  0.00  0.00     0.028 C 
HETATM    8  C   UNK N   1      25.701  16.008   2.306  0.00  0.00     0.008 C 
HETATM    9  C   UNK N   1      26.885  15.132   1.856  0.00  0.00     0.001 C 
HETATM   10  C   UNK N   1      27.993  15.321   2.908  0.00  0.00     0.010 C 
HETATM   11  C   UNK N   1      27.246  15.948   4.064  0.00  0.00     0.028 C 
HETATM   12  C   UNK N   1      28.015  16.638   5.160  0.00  0.00    -0.017 A 
HETATM   13  C   UNK N   1      29.112  16.020   5.773  0.00  0.00     0.047 A 
ENDROOT
BRANCH   6  14
HETATM   14  C   UNK N   1      24.415  18.587   3.851  0.00  0.00    -0.028 A 
HETATM   15  C   UNK N   1      24.775  19.839   3.332  0.00  0.00     0.012 A 
HETATM   16  C   UNK N   1      23.796  20.733   2.891  0.00  0.00     0.037 A 
HETATM   17  C   UNK N   1      22.447  20.388   2.979  0.00  0.00     0.065 A 
HETATM   18  C   UNK N   1      22.077  19.141   3.492  0.00  0.00     0.037 A 
HETATM   19  C   UNK N   1      23.056  18.240   3.924  0.00  0.00     0.012 A 
BRANCH  17  20
HETATM   20  O   UNK N   1      21.507  21.256   2.573  0.00  0.00    -0.361 OA
HETATM   21  H   UNK N   1      20.913  21.631   3.192  0.00  0.00     0.217 HD
ENDBRANCH  17  20
ENDBRANCH   6  14
BRANCH   3  22
HETATM   22  C   UNK N   1      27.775  19.848   7.220  0.00  0.00     0.208 C 
BRANCH  22  23
HETATM   23  O   UNK N   1      27.852  20.825   6.226  0.00  0.00    -0.391 OA
HETATM   24  C   UNK N   1      26.751  21.648   6.458  0.00  0.00     0.201 C 
ENDBRANCH  22  23
ENDBRANCH   3  22
BRANCH   1  25
HETATM   25  O   UNK N   1      30.819  16.059   7.418  0.00  0.00    -0.361 OA
HETATM   26  H   UNK N   1      31.259  16.478   8.132  0.00  0.00     0.217 HD
ENDBRANCH   1  25
TORSDOF 5
ENDMDL
MODEL 5
REMARK VINA RESULT:      -6.6     11.549     14.361
REMARK  5 active torsions:
REMARK  status: ('A' for Active; 'I' for Inactive)
REMARK    1  A    between atoms: C_1  and  O_24 
REMARK    2  A    between atoms: C_3  and  C_21 
REMARK    3  A    between atoms: C_6  and  C_14 
REMARK    4  A    between atoms: C_17  and  O_18 
REMARK    5  A    between atoms: C_21  and  O_22 
ROOT
HETATM    1  C   UNK N   1      33.959  17.887   7.991  0.00  0.00     0.067 A 
HETATM    2  C   UNK N   1      34.200  17.373   6.713  0.00  0.00     0.048 A 
HETATM    3  C   UNK N   1      33.135  17.022   5.877  0.00  0.00     0.002 A 
HETATM    4  C   UNK N   1      31.816  17.186   6.328  0.00  0.00     0.085 A 
HETATM    5  O   UNK N   1      30.764  16.927   5.493  0.00  0.00    -0.340 OA
HETATM    6  C   UNK N   1      29.482  17.403   5.752  0.00  0.00     0.166 C 
HETATM    7  C   UNK N   1      29.179  17.072   7.222  0.00  0.00     0.028 C 
HETATM    8  C   UNK N   1      27.859  17.434   7.864  0.00  0.00     0.008 C 
HETATM    9  C   UNK N   1      28.195  17.379   9.365  0.00  0.00     0.001 C 
HETATM   10  C   UNK N   1      29.731  17.394   9.470  0.00  0.00     0.010 C 
HETATM   11  C   UNK N   1      30.151  17.855   8.091  0.00  0.00     0.028 C 
HETATM   12  C   UNK N   1      31.574  17.655   7.641  0.00  0.00    -0.017 A 
HETATM   13  C   UNK N   1      32.649  18.029   8.455  0.00  0.00     0.047 A 
ENDROOT
BRANCH   6  14
HETATM   14  C   UNK N   1      28.527  16.872   4.712  0.00  0.00    -0.028 A 
HETATM   15  C   UNK N   1      28.885  15.710   4.013  0.00  0.00     0.012 A 
HETATM   16  C   UNK N   1      28.061  15.206   3.004  0.00  0.00     0.037 A 
HETATM   17  C   UNK N   1      26.879  15.869   2.675  0.00  0.00     0.065 A 
HETATM   18  C   UNK N   1      26.510  17.026   3.367  0.00  0.00     0.037 A 
HETATM   19  C   UNK N   1      27.329  17.527   4.386  0.00  0.00     0.012 A 
BRANCH  17  20
HETATM   20  O   UNK N   1      26.098  15.394   1.691  0.00  0.00    -0.361 OA
HETATM   21  H   UNK N   1      25.565  15.978   1.189  0.00  0.00     0.217 HD
ENDBRANCH  17  20
ENDBRANCH   6  14
BRANCH   3  22
HETATM   22  C   UNK N   1      33.432  16.508   4.505  0.00  0.00     0.208 C 
BRANCH  22  23
HETATM   23  O   UNK N   1      33.385  15.113   4.483  0.00  0.00    -0.391 OA
HETATM   24  C   UNK N   1      32.663  14.805   3.331  0.00  0.00     0.201 C 
ENDBRANCH  22  23
ENDBRANCH   3  22
BRANCH   1  25
HETATM   25  O   UNK N   1      34.989  18.253   8.770  0.00  0.00    -0.361 OA
HETATM   26  H   UNK N   1      35.190  19.161   8.889  0.00  0.00     0.217 HD
ENDBRANCH   1  25
TORSDOF 5
ENDMDL
MODEL 6
REMARK VINA RESULT:      -6.6      2.558      5.431
REMARK  5 active torsions:
REMARK  status: ('A' for Active; 'I' for Inactive)
REMARK    1  A    between atoms: C_1  and  O_24 
REMARK    2  A    between atoms: C_3  and  C_21 
REMARK    3  A    between atoms: C_6  and  C_14 
REMARK    4  A    between atoms: C_17  and  O_18 
REMARK    5  A    between atoms: C_21  and  O_22 
ROOT
HETATM    1  C   UNK N   1      31.770  21.672  -3.019  0.00  0.00     0.067 A 
HETATM    2  C   UNK N   1      31.275  22.976  -2.920  0.00  0.00     0.048 A 
HETATM    3  C   UNK N   1      30.361  23.461  -3.862  0.00  0.00     0.002 A 
HETATM    4  C   UNK N   1      29.943  22.630  -4.913  0.00  0.00     0.085 A 
HETATM    5  O   UNK N   1      28.988  23.060  -5.793  0.00  0.00    -0.340 OA
HETATM    6  C   UNK N   1      28.289  22.177  -6.612  0.00  0.00     0.166 C 
HETATM    7  C   UNK N   1      29.335  21.258  -7.261  0.00  0.00     0.028 C 
HETATM    8  C   UNK N   1      28.944  20.167  -8.232  0.00  0.00     0.008 C 
HETATM    9  C   UNK N   1      30.178  19.246  -8.209  0.00  0.00     0.001 C 
HETATM   10  C   UNK N   1      30.993  19.637  -6.963  0.00  0.00     0.010 C 
HETATM   11  C   UNK N   1      29.997  20.445  -6.159  0.00  0.00     0.028 C 
HETATM   12  C   UNK N   1      30.486  21.330  -5.043  0.00  0.00    -0.017 A 
HETATM   13  C   UNK N   1      31.377  20.849  -4.077  0.00  0.00     0.047 A 
ENDROOT
BRANCH   6  14
HETATM   14  C   UNK N   1      27.384  22.955  -7.535  0.00  0.00    -0.028 A 
HETATM   15  C   UNK N   1      26.030  22.596  -7.597  0.00  0.00     0.012 A 
HETATM   16  C   UNK N   1      25.161  23.249  -8.474  0.00  0.00     0.037 A 
HETATM   17  C   UNK N   1      25.642  24.258  -9.307  0.00  0.00     0.065 A 
HETATM   18  C   UNK N   1      26.990  24.628  -9.253  0.00  0.00     0.037 A 
HETATM   19  C   UNK N   1      27.859  23.981  -8.367  0.00  0.00     0.012 A 
BRANCH  17  20
HETATM   20  O   UNK N   1      24.810  24.872 -10.164  0.00  0.00    -0.361 OA
HETATM   21  H   UNK N   1      23.935  24.555 -10.281  0.00  0.00     0.217 HD
ENDBRANCH  17  20
ENDBRANCH   6  14
BRANCH   3  22
HETATM   22  C   UNK N   1      29.827  24.848  -3.704  0.00  0.00     0.208 C 
BRANCH  22  23
HETATM   23  O   UNK N   1      30.729  25.642  -2.992  0.00  0.00    -0.391 OA
HETATM   24  C   UNK N   1      30.796  26.831  -3.718  0.00  0.00     0.201 C 
ENDBRANCH  22  23
ENDBRANCH   3  22
BRANCH   1  25
HETATM   25  O   UNK N   1      32.618  21.207  -2.088  0.00  0.00    -0.361 OA
HETATM   26  H   UNK N   1      33.523  21.452  -2.109  0.00  0.00     0.217 HD
ENDBRANCH   1  25
TORSDOF 5
ENDMDL
MODEL 7
REMARK VINA RESULT:      -6.5     11.010     12.686
REMARK  5 active torsions:
REMARK  status: ('A' for Active; 'I' for Inactive)
REMARK    1  A    between atoms: C_1  and  O_24 
REMARK    2  A    between atoms: C_3  and  C_21 
REMARK    3  A    between atoms: C_6  and  C_14 
REMARK    4  A    between atoms: C_17  and  O_18 
REMARK    5  A    between atoms: C_21  and  O_22 
ROOT
HETATM    1  C   UNK N   1      25.464  14.954   2.153  0.00  0.00     0.067 A 
HETATM    2  C   UNK N   1      26.580  14.120   2.032  0.00  0.00     0.048 A 
HETATM    3  C   UNK N   1      27.804  14.485   2.604  0.00  0.00     0.002 A 
HETATM    4  C   UNK N   1      27.909  15.700   3.300  0.00  0.00     0.085 A 
HETATM    5  O   UNK N   1      29.074  16.032   3.934  0.00  0.00    -0.340 OA
HETATM    6  C   UNK N   1      29.124  17.019   4.915  0.00  0.00     0.166 C 
HETATM    7  C   UNK N   1      28.378  18.238   4.350  0.00  0.00     0.028 C 
HETATM    8  C   UNK N   1      28.234  19.520   5.139  0.00  0.00     0.008 C 
HETATM    9  C   UNK N   1      27.053  20.211   4.433  0.00  0.00     0.001 C 
HETATM   10  C   UNK N   1      26.360  19.132   3.581  0.00  0.00     0.010 C 
HETATM   11  C   UNK N   1      26.920  17.850   4.155  0.00  0.00     0.028 C 
HETATM   12  C   UNK N   1      26.794  16.568   3.375  0.00  0.00    -0.017 A 
HETATM   13  C   UNK N   1      25.569  16.175   2.823  0.00  0.00     0.047 A 
ENDROOT
BRANCH   6  14
HETATM   14  C   UNK N   1      30.554  17.224   5.351  0.00  0.00    -0.028 A 
HETATM   15  C   UNK N   1      31.525  17.443   4.364  0.00  0.00     0.012 A 
HETATM   16  C   UNK N   1      32.870  17.586   4.710  0.00  0.00     0.037 A 
HETATM   17  C   UNK N   1      33.258  17.497   6.048  0.00  0.00     0.065 A 
HETATM   18  C   UNK N   1      32.298  17.282   7.041  0.00  0.00     0.037 A 
HETATM   19  C   UNK N   1      30.948  17.149   6.697  0.00  0.00     0.012 A 
BRANCH  17  20
HETATM   20  O   UNK N   1      34.554  17.615   6.377  0.00  0.00    -0.361 OA
HETATM   21  H   UNK N   1      34.800  17.982   7.204  0.00  0.00     0.217 HD
ENDBRANCH  17  20
ENDBRANCH   6  14
BRANCH   3  22
HETATM   22  C   UNK N   1      28.965  13.552   2.484  0.00  0.00     0.208 C 
BRANCH  22  23
HETATM   23  O   UNK N   1      29.253  13.297   1.142  0.00  0.00    -0.391 OA
HETATM   24  C   UNK N   1      30.192  12.268   1.174  0.00  0.00     0.201 C 
ENDBRANCH  22  23
ENDBRANCH   3  22
BRANCH   1  25
HETATM   25  O   UNK N   1      24.287  14.575   1.632  0.00  0.00    -0.361 OA
HETATM   26  H   UNK N   1      23.865  13.795   1.937  0.00  0.00     0.217 HD
ENDBRANCH   1  25
TORSDOF 5
ENDMDL
MODEL 8
REMARK VINA RESULT:      -6.5      1.570      4.238
REMARK  5 active torsions:
REMARK  status: ('A' for Active; 'I' for Inactive)
REMARK    1  A    between atoms: C_1  and  O_24 
REMARK    2  A    between atoms: C_3  and  C_21 
REMARK    3  A    between atoms: C_6  and  C_14 
REMARK    4  A    between atoms: C_17  and  O_18 
REMARK    5  A    between atoms: C_21  and  O_22 
ROOT
HETATM    1  C   UNK N   1      29.587  20.032  -7.502  0.00  0.00     0.067 A 
HETATM    2  C   UNK N   1      30.094  20.551  -6.307  0.00  0.00     0.048 A 
HETATM    3  C   UNK N   1      29.559  21.723  -5.759  0.00  0.00     0.002 A 
HETATM    4  C   UNK N   1      28.508  22.379  -6.419  0.00  0.00     0.085 A 
HETATM    5  O   UNK N   1      27.919  23.477  -5.856  0.00  0.00    -0.340 OA
HETATM    6  C   UNK N   1      26.673  23.939  -6.270  0.00  0.00     0.166 C 
HETATM    7  C   UNK N   1      26.715  24.001  -7.805  0.00  0.00     0.028 C 
HETATM    8  C   UNK N   1      25.529  24.472  -8.616  0.00  0.00     0.008 C 
HETATM    9  C   UNK N   1      25.838  23.904 -10.013  0.00  0.00     0.001 C 
HETATM   10  C   UNK N   1      26.930  22.836  -9.820  0.00  0.00     0.010 C 
HETATM   11  C   UNK N   1      26.882  22.583  -8.329  0.00  0.00     0.028 C 
HETATM   12  C   UNK N   1      28.033  21.882  -7.656  0.00  0.00    -0.017 A 
HETATM   13  C   UNK N   1      28.559  20.694  -8.176  0.00  0.00     0.047 A 
ENDROOT
BRANCH   6  14
HETATM   14  C   UNK N   1      26.339  25.214  -5.536  0.00  0.00    -0.028 A 
HETATM   15  C   UNK N   1      26.946  25.444  -4.293  0.00  0.00     0.012 A 
HETATM   16  C   UNK N   1      26.631  26.583  -3.548  0.00  0.00     0.037 A 
HETATM   17  C   UNK N   1      25.694  27.495  -4.034  0.00  0.00     0.065 A 
HETATM   18  C   UNK N   1      25.084  27.278  -5.273  0.00  0.00     0.037 A 
HETATM   19  C   UNK N   1      25.406  26.143  -6.025  0.00  0.00     0.012 A 
BRANCH  17  20
HETATM   20  O   UNK N   1      25.378  28.579  -3.308  0.00  0.00    -0.361 OA
HETATM   21  H   UNK N   1      24.518  28.950  -3.362  0.00  0.00     0.217 HD
ENDBRANCH  17  20
ENDBRANCH   6  14
BRANCH   3  22
HETATM   22  C   UNK N   1      30.103  22.229  -4.462  0.00  0.00     0.208 C 
BRANCH  22  23
HETATM   23  O   UNK N   1      30.627  21.178  -3.707  0.00  0.00    -0.391 OA
HETATM   24  C   UNK N   1      31.638  21.764  -2.947  0.00  0.00     0.201 C 
ENDBRANCH  22  23
ENDBRANCH   3  22
BRANCH   1  25
HETATM   25  O   UNK N   1      30.085  18.888  -7.997  0.00  0.00    -0.361 OA
HETATM   26  H   UNK N   1      29.523  18.279  -8.435  0.00  0.00     0.217 HD
ENDBRANCH   1  25
TORSDOF 5
ENDMDL
MODEL 9
REMARK VINA RESULT:      -6.5     22.454     25.653
REMARK  5 active torsions:
REMARK  status: ('A' for Active; 'I' for Inactive)
REMARK    1  A    between atoms: C_1  and  O_24 
REMARK    2  A    between atoms: C_3  and  C_21 
REMARK    3  A    between atoms: C_6  and  C_14 
REMARK    4  A    between atoms: C_17  and  O_18 
REMARK    5  A    between atoms: C_21  and  O_22 
ROOT
HETATM    1  C   UNK N   1      35.244  11.399  19.802  0.00  0.00     0.067 A 
HETATM    2  C   UNK N   1      35.219  12.777  19.563  0.00  0.00     0.048 A 
HETATM    3  C   UNK N   1      35.301  13.272  18.257  0.00  0.00     0.002 A 
HETATM    4  C   UNK N   1      35.412  12.376  17.182  0.00  0.00     0.085 A 
HETATM    5  O   UNK N   1      35.410  12.840  15.896  0.00  0.00    -0.340 OA
HETATM    6  C   UNK N   1      35.157  12.004  14.811  0.00  0.00     0.166 C 
HETATM    7  C   UNK N   1      36.039  10.760  15.001  0.00  0.00     0.028 C 
HETATM    8  C   UNK N   1      36.040   9.624  14.002  0.00  0.00     0.008 C 
HETATM    9  C   UNK N   1      36.634   8.464  14.821  0.00  0.00     0.001 C 
HETATM   10  C   UNK N   1      36.552   8.886  16.300  0.00  0.00     0.010 C 
HETATM   11  C   UNK N   1      35.577  10.041  16.259  0.00  0.00     0.028 C 
HETATM   12  C   UNK N   1      35.492  10.985  17.429  0.00  0.00    -0.017 A 
HETATM   13  C   UNK N   1      35.379  10.504  18.739  0.00  0.00     0.047 A 
ENDROOT
BRANCH   6  14
HETATM   14  C   UNK N   1      35.322  12.780  13.528  0.00  0.00    -0.028 A 
HETATM   15  C   UNK N   1      35.919  14.047  13.589  0.00  0.00     0.012 A 
HETATM   16  C   UNK N   1      36.048  14.828  12.439  0.00  0.00     0.037 A 
HETATM   17  C   UNK N   1      35.566  14.354  11.218  0.00  0.00     0.065 A 
HETATM   18  C   UNK N   1      34.971  13.091  11.144  0.00  0.00     0.037 A 
HETATM   19  C   UNK N   1      34.851  12.303  12.294  0.00  0.00     0.012 A 
BRANCH  17  20
HETATM   20  O   UNK N   1      35.673  15.114  10.117  0.00  0.00    -0.361 OA
HETATM   21  H   UNK N   1      36.404  15.010   9.540  0.00  0.00     0.217 HD
ENDBRANCH  17  20
ENDBRANCH   6  14
BRANCH   3  22
HETATM   22  C   UNK N   1      35.237  14.749  18.038  0.00  0.00     0.208 C 
BRANCH  22  23
HETATM   23  O   UNK N   1      36.465  15.343  18.334  0.00  0.00    -0.391 OA
HETATM   24  C   UNK N   1      36.981  15.715  17.093  0.00  0.00     0.201 C 
ENDBRANCH  22  23
ENDBRANCH   3  22
BRANCH   1  25
HETATM   25  O   UNK N   1      35.127  10.937  21.057  0.00  0.00    -0.361 OA
HETATM   26  H   UNK N   1      35.811  11.086  21.680  0.00  0.00     0.217 HD
ENDBRANCH   1  25
TORSDOF 5
ENDMDL
