MODEL 1
REMARK VINA RESULT:      -6.7      0.000      0.000
REMARK  4 active torsions:
REMARK  status: ('A' for Active; 'I' for Inactive)
REMARK    1  A    between atoms: C_6  and  C_7 
REMARK       I    between atoms: C_7  and  N_9 
REMARK    2  A    between atoms: N_9  and  C_10 
REMARK    3  A    between atoms: C_15  and  N_16 
REMARK    4  A    between atoms: N_21  and  C_22 
ROOT
HETATM    1  C   UNK N   1      26.058  24.417  -9.207  0.00  0.00     0.365 C 
HETATM    2  C   UNK N   1      25.328  25.370 -10.055  0.00  0.00    -0.087 C 
HETATM    3  C   UNK N   1      24.731  26.138 -10.764  0.00  0.00     0.013 C 
ENDROOT
BRANCH   1   4
HETATM    4  N   UNK N   1      26.254  24.955  -7.859  0.00  0.00     0.102 N 
HETATM    5  C   UNK N   1      25.869  23.980  -6.823  0.00  0.00     0.293 C 
HETATM    6  C   UNK N   1      26.796  22.762  -6.813  0.00  0.00     0.153 C 
HETATM    7  N   UNK N   1      28.154  23.211  -6.647  0.00  0.00    -0.374 N 
HETATM    8  C   UNK N   1      28.601  24.160  -7.647  0.00  0.00     0.153 C 
HETATM    9  C   UNK N   1      27.653  25.366  -7.684  0.00  0.00     0.293 C 
BRANCH   7  10
HETATM   10  C   UNK N   1      28.981  22.799  -5.513  0.00  0.00     0.079 A 
HETATM   11  C   UNK N   1      29.038  23.593  -4.320  0.00  0.00     0.063 A 
HETATM   12  C   UNK N   1      29.810  23.183  -3.226  0.00  0.00     0.032 A 
HETATM   13  C   UNK N   1      30.544  22.007  -3.279  0.00  0.00     0.004 A 
HETATM   14  C   UNK N   1      30.527  21.230  -4.429  0.00  0.00     0.026 A 
HETATM   15  C   UNK N   1      29.764  21.594  -5.540  0.00  0.00     0.062 A 
HETATM   16 Cl   UNK N   1      29.892  20.504  -6.919  0.00  0.00    -0.082 Cl
BRANCH  11  17
HETATM   17  N   UNK N   1      28.342  24.822  -4.278  0.00  0.00    -0.319 N 
HETATM   18  C   UNK N   1      27.174  25.171  -3.693  0.00  0.00     0.280 C 
HETATM   19  O   UNK N   1      26.466  24.352  -3.126  0.00  0.00    -0.265 OA
HETATM   20  H   UNK N   1      28.786  25.555  -4.762  0.00  0.00     0.169 HD
BRANCH  18  21
HETATM   21  C   UNK N   1      26.775  26.580  -3.816  0.00  0.00     0.144 A 
HETATM   22  C   UNK N   1      25.630  26.989  -4.478  0.00  0.00     0.046 A 
HETATM   23  C   UNK N   1      25.584  28.358  -4.341  0.00  0.00     0.048 A 
HETATM   24  C   UNK N   1      26.699  28.692  -3.602  0.00  0.00     0.122 A 
HETATM   25 Br   UNK N   1      27.128  30.461  -3.047  0.00  0.00    -0.023 Br
HETATM   26  O   UNK N   1      27.392  27.616  -3.305  0.00  0.00    -0.298 OA
ENDBRANCH  18  21
ENDBRANCH  11  17
ENDBRANCH   7  10
ENDBRANCH   1   4
TORSDOF 4
ENDMDL
MODEL 2
REMARK VINA RESULT:      -6.5     14.035     16.640
REMARK  4 active torsions:
REMARK  status: ('A' for Active; 'I' for Inactive)
REMARK    1  A    between atoms: C_6  and  C_7 
REMARK       I    between atoms: C_7  and  N_9 
REMARK    2  A    between atoms: N_9  and  C_10 
REMARK    3  A    between atoms: C_15  and  N_16 
REMARK    4  A    between atoms: N_21  and  C_22 
ROOT
HETATM    1  C   UNK N   1      33.184  15.186   3.370  0.00  0.00     0.365 C 
HETATM    2  C   UNK N   1      33.197  13.884   2.689  0.00  0.00    -0.087 C 
HETATM    3  C   UNK N   1      33.228  12.815   2.135  0.00  0.00     0.013 C 
ENDROOT
BRANCH   1   4
HETATM    4  N   UNK N   1      31.851  15.792   3.322  0.00  0.00     0.102 N 
HETATM    5  C   UNK N   1      30.901  15.086   4.200  0.00  0.00     0.293 C 
HETATM    6  C   UNK N   1      31.265  15.243   5.678  0.00  0.00     0.153 C 
HETATM    7  N   UNK N   1      31.341  16.647   5.992  0.00  0.00    -0.374 N 
HETATM    8  C   UNK N   1      32.274  17.397   5.174  0.00  0.00     0.153 C 
HETATM    9  C   UNK N   1      31.934  17.212   3.689  0.00  0.00     0.293 C 
BRANCH   7  10
HETATM   10  C   UNK N   1      30.487  17.271   7.002  0.00  0.00     0.079 A 
HETATM   11  C   UNK N   1      30.934  17.405   8.359  0.00  0.00     0.063 A 
HETATM   12  C   UNK N   1      30.125  18.026   9.318  0.00  0.00     0.032 A 
HETATM   13  C   UNK N   1      28.872  18.514   8.979  0.00  0.00     0.004 A 
HETATM   14  C   UNK N   1      28.403  18.377   7.679  0.00  0.00     0.026 A 
HETATM   15  C   UNK N   1      29.179  17.774   6.687  0.00  0.00     0.062 A 
HETATM   16 Cl   UNK N   1      28.407  17.661   5.107  0.00  0.00    -0.082 Cl
BRANCH  11  17
HETATM   17  N   UNK N   1      32.183  16.859   8.727  0.00  0.00    -0.319 N 
HETATM   18  C   UNK N   1      33.432  17.377   8.698  0.00  0.00     0.280 C 
HETATM   19  O   UNK N   1      33.662  18.480   8.226  0.00  0.00    -0.265 OA
HETATM   20  H   UNK N   1      32.137  15.936   9.066  0.00  0.00     0.169 HD
BRANCH  18  21
HETATM   21  C   UNK N   1      34.508  16.522   9.218  0.00  0.00     0.144 A 
HETATM   22  C   UNK N   1      35.139  16.747  10.429  0.00  0.00     0.046 A 
HETATM   23  C   UNK N   1      36.046  15.722  10.578  0.00  0.00     0.048 A 
HETATM   24  C   UNK N   1      35.906  14.938   9.453  0.00  0.00     0.122 A 
HETATM   25 Br   UNK N   1      36.872  13.330   9.138  0.00  0.00    -0.023 Br
HETATM   26  O   UNK N   1      34.986  15.438   8.658  0.00  0.00    -0.298 OA
ENDBRANCH  18  21
ENDBRANCH  11  17
ENDBRANCH   7  10
ENDBRANCH   1   4
TORSDOF 4
ENDMDL
MODEL 3
REMARK VINA RESULT:      -6.4     22.694     26.002
REMARK  4 active torsions:
REMARK  status: ('A' for Active; 'I' for Inactive)
REMARK    1  A    between atoms: C_6  and  C_7 
REMARK       I    between atoms: C_7  and  N_9 
REMARK    2  A    between atoms: N_9  and  C_10 
REMARK    3  A    between atoms: C_15  and  N_16 
REMARK    4  A    between atoms: N_21  and  C_22 
ROOT
HETATM    1  C   UNK N   1      36.152   8.351  13.473  0.00  0.00     0.365 C 
HETATM    2  C   UNK N   1      35.294   7.786  12.423  0.00  0.00    -0.087 C 
HETATM    3  C   UNK N   1      34.596   7.305  11.568  0.00  0.00     0.013 C 
ENDROOT
BRANCH   1   4
HETATM    4  N   UNK N   1      36.064   9.813  13.495  0.00  0.00     0.102 N 
HETATM    5  C   UNK N   1      34.771  10.272  14.032  0.00  0.00     0.293 C 
HETATM    6  C   UNK N   1      34.614   9.926  15.515  0.00  0.00     0.153 C 
HETATM    7  N   UNK N   1      35.724  10.483  16.244  0.00  0.00    -0.374 N 
HETATM    8  C   UNK N   1      37.027  10.055  15.775  0.00  0.00     0.153 C 
HETATM    9  C   UNK N   1      37.175  10.368  14.281  0.00  0.00     0.293 C 
BRANCH   7  10
HETATM   10  C   UNK N   1      35.544  11.460  17.317  0.00  0.00     0.079 A 
HETATM   11  C   UNK N   1      35.361  12.852  17.018  0.00  0.00     0.063 A 
HETATM   12  C   UNK N   1      35.163  13.782  18.045  0.00  0.00     0.032 A 
HETATM   13  C   UNK N   1      35.151  13.379  19.373  0.00  0.00     0.004 A 
HETATM   14  C   UNK N   1      35.350  12.044  19.693  0.00  0.00     0.026 A 
HETATM   15  C   UNK N   1      35.541  11.079  18.702  0.00  0.00     0.062 A 
HETATM   16 Cl   UNK N   1      35.809   9.443  19.299  0.00  0.00    -0.082 Cl
BRANCH  11  17
HETATM   17  N   UNK N   1      35.430  13.280  15.674  0.00  0.00    -0.319 N 
HETATM   18  C   UNK N   1      36.416  13.889  14.975  0.00  0.00     0.280 C 
HETATM   19  O   UNK N   1      37.457  14.246  15.507  0.00  0.00    -0.265 OA
HETATM   20  H   UNK N   1      34.615  13.105  15.151  0.00  0.00     0.169 HD
BRANCH  18  21
HETATM   21  C   UNK N   1      36.150  14.144  13.553  0.00  0.00     0.144 A 
HETATM   22  C   UNK N   1      35.959  13.137  12.624  0.00  0.00     0.046 A 
HETATM   23  C   UNK N   1      35.699  13.770  11.429  0.00  0.00     0.048 A 
HETATM   24  C   UNK N   1      35.743  15.118  11.709  0.00  0.00     0.122 A 
HETATM   25 Br   UNK N   1      35.396  16.491  10.438  0.00  0.00    -0.023 Br
HETATM   26  O   UNK N   1      36.016  15.314  12.980  0.00  0.00    -0.298 OA
ENDBRANCH  18  21
ENDBRANCH  11  17
ENDBRANCH   7  10
ENDBRANCH   1   4
TORSDOF 4
ENDMDL
MODEL 4
REMARK VINA RESULT:      -6.1     13.574     15.939
REMARK  4 active torsions:
REMARK  status: ('A' for Active; 'I' for Inactive)
REMARK    1  A    between atoms: C_6  and  C_7 
REMARK       I    between atoms: C_7  and  N_9 
REMARK    2  A    between atoms: N_9  and  C_10 
REMARK    3  A    between atoms: C_15  and  N_16 
REMARK    4  A    between atoms: N_21  and  C_22 
ROOT
HETATM    1  C   UNK N   1      30.164  14.193   2.651  0.00  0.00     0.365 C 
HETATM    2  C   UNK N   1      29.578  13.147   1.802  0.00  0.00    -0.087 C 
HETATM    3  C   UNK N   1      29.116  12.283   1.102  0.00  0.00     0.013 C 
ENDROOT
BRANCH   1   4
HETATM    4  N   UNK N   1      29.122  15.034   3.245  0.00  0.00     0.102 N 
HETATM    5  C   UNK N   1      28.780  14.594   4.609  0.00  0.00     0.293 C 
HETATM    6  C   UNK N   1      29.942  14.799   5.583  0.00  0.00     0.153 C 
HETATM    7  N   UNK N   1      30.338  16.183   5.552  0.00  0.00    -0.374 N 
HETATM    8  C   UNK N   1      30.706  16.674   4.239  0.00  0.00     0.153 C 
HETATM    9  C   UNK N   1      29.556  16.438   3.251  0.00  0.00     0.293 C 
BRANCH   7  10
HETATM   10  C   UNK N   1      30.295  17.037   6.739  0.00  0.00     0.079 A 
HETATM   11  C   UNK N   1      31.445  17.173   7.586  0.00  0.00     0.063 A 
HETATM   12  C   UNK N   1      31.410  18.011   8.707  0.00  0.00     0.032 A 
HETATM   13  C   UNK N   1      30.259  18.717   9.027  0.00  0.00     0.004 A 
HETATM   14  C   UNK N   1      29.124  18.587   8.239  0.00  0.00     0.026 A 
HETATM   15  C   UNK N   1      29.116  17.771   7.106  0.00  0.00     0.062 A 
HETATM   16 Cl   UNK N   1      27.578  17.704   6.249  0.00  0.00    -0.082 Cl
BRANCH  11  17
HETATM   17  N   UNK N   1      32.601  16.413   7.302  0.00  0.00    -0.319 N 
HETATM   18  C   UNK N   1      33.797  16.762   6.774  0.00  0.00     0.280 C 
HETATM   19  O   UNK N   1      34.016  17.893   6.366  0.00  0.00    -0.265 OA
HETATM   20  H   UNK N   1      32.524  15.458   7.529  0.00  0.00     0.169 HD
BRANCH  18  21
HETATM   21  C   UNK N   1      34.803  15.696   6.670  0.00  0.00     0.144 A 
HETATM   22  C   UNK N   1      34.868  14.626   7.544  0.00  0.00     0.046 A 
HETATM   23  C   UNK N   1      35.903  13.836   7.097  0.00  0.00     0.048 A 
HETATM   24  C   UNK N   1      36.396  14.473   5.978  0.00  0.00     0.122 A 
HETATM   25 Br   UNK N   1      37.810  13.801   4.897  0.00  0.00    -0.023 Br
HETATM   26  O   UNK N   1      35.726  15.579   5.748  0.00  0.00    -0.298 OA
ENDBRANCH  18  21
ENDBRANCH  11  17
ENDBRANCH   7  10
ENDBRANCH   1   4
TORSDOF 4
ENDMDL
MODEL 5
REMARK VINA RESULT:      -6.1     11.558     12.719
REMARK  4 active torsions:
REMARK  status: ('A' for Active; 'I' for Inactive)
REMARK    1  A    between atoms: C_6  and  C_7 
REMARK       I    between atoms: C_7  and  N_9 
REMARK    2  A    between atoms: N_9  and  C_10 
REMARK    3  A    between atoms: C_15  and  N_16 
REMARK    4  A    between atoms: N_21  and  C_22 
ROOT
HETATM    1  C   UNK N   1      25.830  13.754   3.074  0.00  0.00     0.365 C 
HETATM    2  C   UNK N   1      24.893  13.897   1.951  0.00  0.00    -0.087 C 
HETATM    3  C   UNK N   1      24.121  13.994   1.032  0.00  0.00     0.013 C 
ENDROOT
BRANCH   1   4
HETATM    4  N   UNK N   1      26.391  15.051   3.459  0.00  0.00     0.102 N 
HETATM    5  C   UNK N   1      27.291  14.931   4.620  0.00  0.00     0.293 C 
HETATM    6  C   UNK N   1      28.551  14.130   4.285  0.00  0.00     0.153 C 
HETATM    7  N   UNK N   1      29.209  14.745   3.160  0.00  0.00    -0.374 N 
HETATM    8  C   UNK N   1      28.381  14.876   1.978  0.00  0.00     0.153 C 
HETATM    9  C   UNK N   1      27.099  15.647   2.319  0.00  0.00     0.293 C 
BRANCH   7  10
HETATM   10  C   UNK N   1      30.574  15.263   3.239  0.00  0.00     0.079 A 
HETATM   11  C   UNK N   1      30.820  16.631   3.595  0.00  0.00     0.063 A 
HETATM   12  C   UNK N   1      32.129  17.118   3.696  0.00  0.00     0.032 A 
HETATM   13  C   UNK N   1      33.213  16.291   3.442  0.00  0.00     0.004 A 
HETATM   14  C   UNK N   1      33.005  14.969   3.072  0.00  0.00     0.026 A 
HETATM   15  C   UNK N   1      31.719  14.438   2.969  0.00  0.00     0.062 A 
HETATM   16 Cl   UNK N   1      31.649  12.753   2.456  0.00  0.00    -0.082 Cl
BRANCH  11  17
HETATM   17  N   UNK N   1      29.722  17.496   3.798  0.00  0.00    -0.319 N 
HETATM   18  C   UNK N   1      29.176  18.003   4.927  0.00  0.00     0.280 C 
HETATM   19  O   UNK N   1      29.569  17.675   6.037  0.00  0.00    -0.265 OA
HETATM   20  H   UNK N   1      29.273  17.781   2.970  0.00  0.00     0.169 HD
BRANCH  18  21
HETATM   21  C   UNK N   1      28.049  18.929   4.751  0.00  0.00     0.144 A 
HETATM   22  C   UNK N   1      27.796  19.988   5.606  0.00  0.00     0.046 A 
HETATM   23  C   UNK N   1      26.697  20.636   5.090  0.00  0.00     0.048 A 
HETATM   24  C   UNK N   1      26.356  19.934   3.953  0.00  0.00     0.122 A 
HETATM   25 Br   UNK N   1      24.933  20.412   2.783  0.00  0.00    -0.023 Br
HETATM   26  O   UNK N   1      27.175  18.921   3.776  0.00  0.00    -0.298 OA
ENDBRANCH  18  21
ENDBRANCH  11  17
ENDBRANCH   7  10
ENDBRANCH   1   4
TORSDOF 4
ENDMDL
MODEL 6
REMARK VINA RESULT:      -6.1     17.115     20.711
REMARK  4 active torsions:
REMARK  status: ('A' for Active; 'I' for Inactive)
REMARK    1  A    between atoms: C_6  and  C_7 
REMARK       I    between atoms: C_7  and  N_9 
REMARK    2  A    between atoms: N_9  and  C_10 
REMARK    3  A    between atoms: C_15  and  N_16 
REMARK    4  A    between atoms: N_21  and  C_22 
ROOT
HETATM    1  C   UNK N   1      36.371  10.819   7.543  0.00  0.00     0.365 C 
HETATM    2  C   UNK N   1      37.334   9.767   7.899  0.00  0.00    -0.087 C 
HETATM    3  C   UNK N   1      38.121   8.898   8.173  0.00  0.00     0.013 C 
ENDROOT
BRANCH   1   4
HETATM    4  N   UNK N   1      36.146  11.729   8.668  0.00  0.00     0.102 N 
HETATM    5  C   UNK N   1      36.944  12.961   8.539  0.00  0.00     0.293 C 
HETATM    6  C   UNK N   1      36.491  13.813   7.350  0.00  0.00     0.153 C 
HETATM    7  N   UNK N   1      35.086  14.098   7.491  0.00  0.00    -0.374 N 
HETATM    8  C   UNK N   1      34.243  12.924   7.604  0.00  0.00     0.153 C 
HETATM    9  C   UNK N   1      34.716  12.050   8.773  0.00  0.00     0.293 C 
BRANCH   7  10
HETATM   10  C   UNK N   1      34.570  15.463   7.588  0.00  0.00     0.079 A 
HETATM   11  C   UNK N   1      34.413  16.098   8.865  0.00  0.00     0.063 A 
HETATM   12  C   UNK N   1      33.945  17.414   8.955  0.00  0.00     0.032 A 
HETATM   13  C   UNK N   1      33.612  18.126   7.812  0.00  0.00     0.004 A 
HETATM   14  C   UNK N   1      33.731  17.530   6.564  0.00  0.00     0.026 A 
HETATM   15  C   UNK N   1      34.204  16.223   6.426  0.00  0.00     0.062 A 
HETATM   16 Cl   UNK N   1      34.256  15.623   4.769  0.00  0.00    -0.082 Cl
BRANCH  11  17
HETATM   17  N   UNK N   1      34.693  15.361  10.038  0.00  0.00    -0.319 N 
HETATM   18  C   UNK N   1      35.689  15.466  10.947  0.00  0.00     0.280 C 
HETATM   19  O   UNK N   1      36.611  16.255  10.804  0.00  0.00    -0.265 OA
HETATM   20  H   UNK N   1      34.048  14.642  10.227  0.00  0.00     0.169 HD
BRANCH  18  21
HETATM   21  C   UNK N   1      35.632  14.545  12.090  0.00  0.00     0.144 A 
HETATM   22  C   UNK N   1      36.293  14.776  13.284  0.00  0.00     0.046 A 
HETATM   23  C   UNK N   1      35.963  13.723  14.107  0.00  0.00     0.048 A 
HETATM   24  C   UNK N   1      35.121  12.924  13.365  0.00  0.00     0.122 A 
HETATM   25 Br   UNK N   1      34.294  11.339  14.016  0.00  0.00    -0.023 Br
HETATM   26  O   UNK N   1      34.943  13.434  12.166  0.00  0.00    -0.298 OA
ENDBRANCH  18  21
ENDBRANCH  11  17
ENDBRANCH   7  10
ENDBRANCH   1   4
TORSDOF 4
ENDMDL
MODEL 7
REMARK VINA RESULT:      -6.0     11.803     13.571
REMARK  4 active torsions:
REMARK  status: ('A' for Active; 'I' for Inactive)
REMARK    1  A    between atoms: C_6  and  C_7 
REMARK       I    between atoms: C_7  and  N_9 
REMARK    2  A    between atoms: N_9  and  C_10 
REMARK    3  A    between atoms: C_15  and  N_16 
REMARK    4  A    between atoms: N_21  and  C_22 
ROOT
HETATM    1  C   UNK N   1      27.110  14.162   2.798  0.00  0.00     0.365 C 
HETATM    2  C   UNK N   1      26.045  13.421   2.108  0.00  0.00    -0.087 C 
HETATM    3  C   UNK N   1      25.186  12.800   1.537  0.00  0.00     0.013 C 
ENDROOT
BRANCH   1   4
HETATM    4  N   UNK N   1      26.604  15.424   3.344  0.00  0.00     0.102 N 
HETATM    5  C   UNK N   1      26.230  15.293   4.763  0.00  0.00     0.293 C 
HETATM    6  C   UNK N   1      27.449  15.032   5.652  0.00  0.00     0.153 C 
HETATM    7  N   UNK N   1      28.409  16.087   5.447  0.00  0.00    -0.374 N 
HETATM    8  C   UNK N   1      28.832  16.256   4.071  0.00  0.00     0.153 C 
HETATM    9  C   UNK N   1      27.610  16.481   3.171  0.00  0.00     0.293 C 
BRANCH   7  10
HETATM   10  C   UNK N   1      28.856  16.961   6.531  0.00  0.00     0.079 A 
HETATM   11  C   UNK N   1      28.086  18.111   6.909  0.00  0.00     0.063 A 
HETATM   12  C   UNK N   1      28.501  18.932   7.965  0.00  0.00     0.032 A 
HETATM   13  C   UNK N   1      29.670  18.655   8.659  0.00  0.00     0.004 A 
HETATM   14  C   UNK N   1      30.447  17.562   8.300  0.00  0.00     0.026 A 
HETATM   15  C   UNK N   1      30.067  16.711   7.261  0.00  0.00     0.062 A 
HETATM   16 Cl   UNK N   1      31.193  15.396   6.928  0.00  0.00    -0.082 Cl
BRANCH  11  17
HETATM   17  N   UNK N   1      26.926  18.435   6.170  0.00  0.00    -0.319 N 
HETATM   18  C   UNK N   1      26.716  19.327   5.176  0.00  0.00     0.280 C 
HETATM   19  O   UNK N   1      27.588  20.099   4.807  0.00  0.00    -0.265 OA
HETATM   20  H   UNK N   1      26.128  17.919   6.425  0.00  0.00     0.169 HD
BRANCH  18  21
HETATM   21  C   UNK N   1      25.366  19.356   4.596  0.00  0.00     0.144 A 
HETATM   22  C   UNK N   1      24.968  20.279   3.645  0.00  0.00     0.046 A 
HETATM   23  C   UNK N   1      23.668  19.956   3.327  0.00  0.00     0.048 A 
HETATM   24  C   UNK N   1      23.361  18.856   4.100  0.00  0.00     0.122 A 
HETATM   25 Br   UNK N   1      21.700  17.930   4.038  0.00  0.00    -0.023 Br
HETATM   26  O   UNK N   1      24.388  18.522   4.849  0.00  0.00    -0.298 OA
ENDBRANCH  18  21
ENDBRANCH  11  17
ENDBRANCH   7  10
ENDBRANCH   1   4
TORSDOF 4
ENDMDL
MODEL 8
REMARK VINA RESULT:      -6.0     22.757     26.222
REMARK  4 active torsions:
REMARK  status: ('A' for Active; 'I' for Inactive)
REMARK    1  A    between atoms: C_6  and  C_7 
REMARK       I    between atoms: C_7  and  N_9 
REMARK    2  A    between atoms: N_9  and  C_10 
REMARK    3  A    between atoms: C_15  and  N_16 
REMARK    4  A    between atoms: N_21  and  C_22 
ROOT
HETATM    1  C   UNK N   1      37.630   7.904  13.164  0.00  0.00     0.365 C 
HETATM    2  C   UNK N   1      38.988   7.760  12.620  0.00  0.00    -0.087 C 
HETATM    3  C   UNK N   1      40.093   7.644  12.157  0.00  0.00     0.013 C 
ENDROOT
BRANCH   1   4
HETATM    4  N   UNK N   1      37.638   7.828  14.626  0.00  0.00     0.102 N 
HETATM    5  C   UNK N   1      38.417   8.927  15.225  0.00  0.00     0.293 C 
HETATM    6  C   UNK N   1      37.760  10.288  14.984  0.00  0.00     0.153 C 
HETATM    7  N   UNK N   1      36.412  10.251  15.490  0.00  0.00    -0.374 N 
HETATM    8  C   UNK N   1      35.586   9.201  14.927  0.00  0.00     0.153 C 
HETATM    9  C   UNK N   1      36.259   7.838  15.134  0.00  0.00     0.293 C 
BRANCH   7  10
HETATM   10  C   UNK N   1      35.946  11.153  16.544  0.00  0.00     0.079 A 
HETATM   11  C   UNK N   1      35.383  12.432  16.218  0.00  0.00     0.063 A 
HETATM   12  C   UNK N   1      34.913  13.282  17.225  0.00  0.00     0.032 A 
HETATM   13  C   UNK N   1      34.994  12.911  18.560  0.00  0.00     0.004 A 
HETATM   14  C   UNK N   1      35.555  11.690  18.907  0.00  0.00     0.026 A 
HETATM   15  C   UNK N   1      36.027  10.805  17.935  0.00  0.00     0.062 A 
HETATM   16 Cl   UNK N   1      36.735   9.319  18.564  0.00  0.00    -0.082 Cl
BRANCH  11  17
HETATM   17  N   UNK N   1      35.351  12.844  14.867  0.00  0.00    -0.319 N 
HETATM   18  C   UNK N   1      36.051  13.790  14.200  0.00  0.00     0.280 C 
HETATM   19  O   UNK N   1      36.833  14.535  14.772  0.00  0.00    -0.265 OA
HETATM   20  H   UNK N   1      34.702  12.355  14.310  0.00  0.00     0.169 HD
BRANCH  18  21
HETATM   21  C   UNK N   1      35.785  13.909  12.761  0.00  0.00     0.144 A 
HETATM   22  C   UNK N   1      36.633  13.409  11.788  0.00  0.00     0.046 A 
HETATM   23  C   UNK N   1      36.025  13.678  10.583  0.00  0.00     0.048 A 
HETATM   24  C   UNK N   1      34.846  14.319  10.899  0.00  0.00     0.122 A 
HETATM   25 Br   UNK N   1      33.553  14.881   9.621  0.00  0.00    -0.023 Br
HETATM   26  O   UNK N   1      34.729  14.447  12.202  0.00  0.00    -0.298 OA
ENDBRANCH  18  21
ENDBRANCH  11  17
ENDBRANCH   7  10
ENDBRANCH   1   4
TORSDOF 4
ENDMDL
MODEL 9
REMARK VINA RESULT:      -6.0     11.930     14.203
REMARK  4 active torsions:
REMARK  status: ('A' for Active; 'I' for Inactive)
REMARK    1  A    between atoms: C_6  and  C_7 
REMARK       I    between atoms: C_7  and  N_9 
REMARK    2  A    between atoms: N_9  and  C_10 
REMARK    3  A    between atoms: C_15  and  N_16 
REMARK    4  A    between atoms: N_21  and  C_22 
ROOT
HETATM    1  C   UNK N   1      24.881  13.830   5.355  0.00  0.00     0.365 C 
HETATM    2  C   UNK N   1      24.883  13.347   6.743  0.00  0.00    -0.087 C 
HETATM    3  C   UNK N   1      24.881  12.932   7.873  0.00  0.00     0.013 C 
ENDROOT
BRANCH   1   4
HETATM    4  N   UNK N   1      25.153  15.268   5.298  0.00  0.00     0.102 N 
HETATM    5  C   UNK N   1      25.182  15.763   3.910  0.00  0.00     0.293 C 
HETATM    6  C   UNK N   1      23.806  15.677   3.246  0.00  0.00     0.153 C 
HETATM    7  N   UNK N   1      22.854  16.399   4.051  0.00  0.00    -0.374 N 
HETATM    8  C   UNK N   1      22.765  15.948   5.425  0.00  0.00     0.153 C 
HETATM    9  C   UNK N   1      24.149  15.999   6.084  0.00  0.00     0.293 C 
BRANCH   7  10
HETATM   10  C   UNK N   1      22.102  17.543   3.536  0.00  0.00     0.079 A 
HETATM   11  C   UNK N   1      22.625  18.874   3.647  0.00  0.00     0.063 A 
HETATM   12  C   UNK N   1      21.916  19.965   3.130  0.00  0.00     0.032 A 
HETATM   13  C   UNK N   1      20.687  19.781   2.510  0.00  0.00     0.004 A 
HETATM   14  C   UNK N   1      20.146  18.507   2.410  0.00  0.00     0.026 A 
HETATM   15  C   UNK N   1      20.822  17.389   2.901  0.00  0.00     0.062 A 
HETATM   16 Cl   UNK N   1      19.966  15.860   2.714  0.00  0.00    -0.082 Cl
BRANCH  11  17
HETATM   17  N   UNK N   1      23.846  19.078   4.327  0.00  0.00    -0.319 N 
HETATM   18  C   UNK N   1      25.047  19.530   3.900  0.00  0.00     0.280 C 
HETATM   19  O   UNK N   1      25.261  19.773   2.722  0.00  0.00    -0.265 OA
HETATM   20  H   UNK N   1      23.818  18.851   5.285  0.00  0.00     0.169 HD
BRANCH  18  21
HETATM   21  C   UNK N   1      26.097  19.664   4.918  0.00  0.00     0.144 A 
HETATM   22  C   UNK N   1      26.559  20.886   5.376  0.00  0.00     0.046 A 
HETATM   23  C   UNK N   1      27.497  20.597   6.341  0.00  0.00     0.048 A 
HETATM   24  C   UNK N   1      27.541  19.221   6.412  0.00  0.00     0.122 A 
HETATM   25 Br   UNK N   1      28.629  18.243   7.630  0.00  0.00    -0.023 Br
HETATM   26  O   UNK N   1      26.701  18.690   5.553  0.00  0.00    -0.298 OA
ENDBRANCH  18  21
ENDBRANCH  11  17
ENDBRANCH   7  10
ENDBRANCH   1   4
TORSDOF 4
ENDMDL
