REMARK  4 active torsions:
REMARK  status: ('A' for Active; 'I' for Inactive)
REMARK    1  A    between atoms: C_6  and  C_7 
REMARK       I    between atoms: C_7  and  N_9 
REMARK    2  A    between atoms: N_9  and  C_10 
REMARK    3  A    between atoms: C_15  and  N_16 
REMARK    4  A    between atoms: N_21  and  C_22 
ROOT
HETATM    1  C   UNK N   1      -2.545   3.289   0.169  0.00  0.00     0.365 C 
HETATM    2  C   UNK N   1      -2.557   4.752   0.032  0.00  0.00    -0.087 C 
HETATM    3  C   UNK N   1      -2.577   5.952  -0.063  0.00  0.00     0.013 C 
ENDROOT
BRANCH   1   4
HETATM    4  N   UNK N   1      -1.845   2.661  -0.954  0.00  0.00     0.102 N 
HETATM    5  C   UNK N   1      -0.433   3.078  -1.017  0.00  0.00     0.293 C 
HETATM    6  C   UNK N   1       0.368   2.562   0.181  0.00  0.00     0.153 C 
HETATM    7  N   UNK N   1       0.236   1.129   0.247  0.00  0.00    -0.374 N 
HETATM    8  C   UNK N   1      -1.131   0.654   0.329  0.00  0.00     0.153 C 
HETATM    9  C   UNK N   1      -1.946   1.199  -0.851  0.00  0.00     0.293 C 
BRANCH   7  10
HETATM   10  C   UNK N   1       1.388   0.232   0.159  0.00  0.00     0.079 A 
HETATM   11  C   UNK N   1       1.205  -1.186   0.038  0.00  0.00     0.063 A 
HETATM   12  C   UNK N   1       2.308  -2.041  -0.073  0.00  0.00     0.032 A 
HETATM   13  C   UNK N   1       3.600  -1.535  -0.056  0.00  0.00     0.004 A 
HETATM   14  C   UNK N   1       3.808  -0.170   0.084  0.00  0.00     0.026 A 
HETATM   15  C   UNK N   1       2.738   0.721   0.187  0.00  0.00     0.062 A 
HETATM   16 Cl   UNK N   1       3.195   2.411   0.391  0.00  0.00    -0.082 Cl
BRANCH  11  17
HETATM   17  N   UNK N   1      -0.104  -1.716   0.079  0.00  0.00    -0.319 N 
HETATM   18  C   UNK N   1      -0.584  -2.945  -0.218  0.00  0.00     0.280 C 
HETATM   19  O   UNK N   1       0.131  -3.822  -0.680  0.00  0.00    -0.265 OA
HETATM   20  H   UNK N   1      -0.790  -1.076   0.377  0.00  0.00     0.169 HD
BRANCH  18  21
HETATM   21  C   UNK N   1      -2.022  -3.156  -0.004  0.00  0.00     0.144 A 
HETATM   22  C   UNK N   1      -2.843  -2.225   0.608  0.00  0.00     0.046 A 
HETATM   23  C   UNK N   1      -4.109  -2.765   0.584  0.00  0.00     0.048 A 
HETATM   24  C   UNK N   1      -3.978  -3.985  -0.044  0.00  0.00     0.122 A 
HETATM   25 Br   UNK N   1      -5.426  -5.162  -0.416  0.00  0.00    -0.023 Br
HETATM   26  O   UNK N   1      -2.725  -4.195  -0.381  0.00  0.00    -0.298 OA
ENDBRANCH  18  21
ENDBRANCH  11  17
ENDBRANCH   7  10
ENDBRANCH   1   4
TORSDOF 4
