MODEL 1
REMARK VINA RESULT:      -8.0      0.000      0.000
REMARK  5 active torsions:
REMARK  status: ('A' for Active; 'I' for Inactive)
REMARK    1  A    between atoms: C_8  and  C_7 
REMARK    2  A    between atoms: C_8  and  C_9 
REMARK    3  A    between atoms: N_10  and  C_9 
REMARK       I    between atoms: N_10  and  C_11 
REMARK    4  A    between atoms: C_18  and  C_19 
REMARK    5  A    between atoms: C_19  and  C_22 
ROOT
HETATM    1  C   UNK N   1      28.177  16.941   6.410  0.00  0.00     0.200 C 
HETATM    2  C   UNK N   1      29.115  16.356   5.435  0.00  0.00     0.077 C 
HETATM    3  N   UNK N   1      29.865  15.874   4.696  0.00  0.00    -0.196 NA
ENDROOT
BRANCH   1   4
HETATM    4  C   UNK N   1      28.929  17.498   7.597  0.00  0.00     0.052 A 
HETATM    5  N   UNK N   1      30.283  17.450   7.587  0.00  0.00    -0.194 N 
HETATM    6  C   UNK N   1      31.017  17.813   8.663  0.00  0.00     0.678 A 
ATOM      7  HN  UNK N   1      30.762  17.133   6.744  1.00  0.00     0.184 HD
HETATM    8  N   UNK N   1      32.405  17.599   8.653  0.00  0.00    -0.226 N 
HETATM    9  N   UNK N   1      30.401  18.230   9.801  0.00  0.00    -0.202 N 
HETATM   10  H   UNK N   1      32.999  18.212   9.146  0.00  0.00     0.177 HD
HETATM   11  C   UNK N   1      29.047  18.266   9.880  0.00  0.00     0.108 A 
ATOM     12  HN  UNK N   1      30.963  18.519  10.602  1.00  0.00     0.183 HD
HETATM   13  C   UNK N   1      28.280  17.873   8.786  0.00  0.00     0.045 A 
BRANCH   8  14
HETATM   14  C   UNK N   1      32.970  16.483   7.924  0.00  0.00     0.142 C 
BRANCH  14  15
HETATM   15  C   UNK N   1      34.103  16.973   7.007  0.00  0.00     0.060 C 
BRANCH  15  16
HETATM   16  C   UNK N   1      33.813  16.678   5.565  0.00  0.00    -0.041 A 
HETATM   17  C   UNK N   1      34.171  15.456   4.986  0.00  0.00     0.094 A 
HETATM   18  N   UNK N   1      33.824  15.184   3.698  0.00  0.00    -0.375 N 
HETATM   19  C   UNK N   1      33.114  16.074   2.951  0.00  0.00     0.087 A 
ATOM     20  HN  UNK N   1      34.101  14.295   3.282  1.00  0.00     0.164 HD
HETATM   21  C   UNK N   1      32.732  17.302   3.497  0.00  0.00     0.018 A 
HETATM   22  C   UNK N   1      33.087  17.602   4.811  0.00  0.00     0.010 A 
ENDBRANCH  15  16
ENDBRANCH  14  15
ENDBRANCH   8  14
ENDBRANCH   1   4
BRANCH   1  23
HETATM   23  C   UNK N   1      27.328  18.004   5.782  0.00  0.00     0.075 A 
HETATM   24  N   UNK N   1      25.974  17.914   5.648  0.00  0.00    -0.351 N 
HETATM   25  C   UNK N   1      25.506  18.812   4.718  0.00  0.00     0.050 A 
ATOM     26  HN  UNK N   1      25.385  17.265   6.169  1.00  0.00     0.166 HD
HETATM   27  C   UNK N   1      24.170  18.939   4.349  0.00  0.00     0.031 A 
HETATM   28  C   UNK N   1      26.482  19.579   4.082  0.00  0.00     0.033 A 
HETATM   29  C   UNK N   1      23.841  19.846   3.326  0.00  0.00     0.002 A 
HETATM   30  C   UNK N   1      24.846  20.603   2.683  0.00  0.00     0.002 A 
HETATM   31  C   UNK N   1      26.190  20.472   3.064  0.00  0.00     0.021 A 
HETATM   32  S   UNK N   1      27.922  19.139   4.721  0.00  0.00    -0.073 SA
ENDBRANCH   1  23
TORSDOF 5
ENDMDL
MODEL 2
REMARK VINA RESULT:      -7.7      6.306     11.137
REMARK  5 active torsions:
REMARK  status: ('A' for Active; 'I' for Inactive)
REMARK    1  A    between atoms: C_8  and  C_7 
REMARK    2  A    between atoms: C_8  and  C_9 
REMARK    3  A    between atoms: N_10  and  C_9 
REMARK       I    between atoms: N_10  and  C_11 
REMARK    4  A    between atoms: C_18  and  C_19 
REMARK    5  A    between atoms: C_19  and  C_22 
ROOT
HETATM    1  C   UNK N   1      20.977  19.764   2.605  0.00  0.00     0.200 C 
HETATM    2  C   UNK N   1      21.017  20.250   1.214  0.00  0.00     0.077 C 
HETATM    3  N   UNK N   1      21.012  20.626   0.119  0.00  0.00    -0.196 NA
ENDROOT
BRANCH   1   4
HETATM    4  C   UNK N   1      20.395  18.371   2.660  0.00  0.00     0.052 A 
HETATM    5  N   UNK N   1      19.977  17.889   3.856  0.00  0.00    -0.194 N 
HETATM    6  C   UNK N   1      19.563  16.610   4.004  0.00  0.00     0.678 A 
ATOM      7  HN  UNK N   1      19.973  18.509   4.666  1.00  0.00     0.184 HD
HETATM    8  N   UNK N   1      19.288  16.121   5.291  0.00  0.00    -0.226 N 
HETATM    9  N   UNK N   1      19.569  15.763   2.941  0.00  0.00    -0.202 N 
HETATM   10  H   UNK N   1      18.596  15.430   5.414  0.00  0.00     0.177 HD
HETATM   11  C   UNK N   1      20.009  16.180   1.727  0.00  0.00     0.108 A 
ATOM     12  HN  UNK N   1      19.238  14.805   3.056  1.00  0.00     0.183 HD
HETATM   13  C   UNK N   1      20.459  17.489   1.567  0.00  0.00     0.045 A 
BRANCH   8  14
HETATM   14  C   UNK N   1      20.012  16.626   6.438  0.00  0.00     0.142 C 
BRANCH  14  15
HETATM   15  C   UNK N   1      19.423  16.039   7.732  0.00  0.00     0.060 C 
BRANCH  15  16
HETATM   16  C   UNK N   1      18.963  17.119   8.666  0.00  0.00    -0.041 A 
HETATM   17  C   UNK N   1      17.696  17.078   9.258  0.00  0.00     0.094 A 
HETATM   18  N   UNK N   1      17.336  18.029  10.164  0.00  0.00    -0.375 N 
HETATM   19  C   UNK N   1      18.191  19.024  10.527  0.00  0.00     0.087 A 
ATOM     20  HN  UNK N   1      16.406  17.997  10.580  1.00  0.00     0.164 HD
HETATM   21  C   UNK N   1      19.467  19.093   9.962  0.00  0.00     0.018 A 
HETATM   22  C   UNK N   1      19.851  18.135   9.026  0.00  0.00     0.010 A 
ENDBRANCH  15  16
ENDBRANCH  14  15
ENDBRANCH   8  14
ENDBRANCH   1   4
BRANCH   1  23
HETATM   23  C   UNK N   1      22.336  19.790   3.233  0.00  0.00     0.075 A 
HETATM   24  N   UNK N   1      23.370  20.554   2.777  0.00  0.00    -0.351 N 
HETATM   25  C   UNK N   1      24.573  20.110   3.271  0.00  0.00     0.050 A 
ATOM     26  HN  UNK N   1      23.264  21.351   2.150  1.00  0.00     0.166 HD
HETATM   27  C   UNK N   1      25.808  20.675   2.965  0.00  0.00     0.031 A 
HETATM   28  C   UNK N   1      24.507  18.974   4.078  0.00  0.00     0.033 A 
HETATM   29  C   UNK N   1      26.968  20.070   3.480  0.00  0.00     0.002 A 
HETATM   30  C   UNK N   1      26.880  18.910   4.282  0.00  0.00     0.002 A 
HETATM   31  C   UNK N   1      25.632  18.349   4.591  0.00  0.00     0.021 A 
HETATM   32  S   UNK N   1      22.927  18.559   4.183  0.00  0.00    -0.073 SA
ENDBRANCH   1  23
TORSDOF 5
ENDMDL
MODEL 3
REMARK VINA RESULT:      -7.6      2.087      3.508
REMARK  5 active torsions:
REMARK  status: ('A' for Active; 'I' for Inactive)
REMARK    1  A    between atoms: C_8  and  C_7 
REMARK    2  A    between atoms: C_8  and  C_9 
REMARK    3  A    between atoms: N_10  and  C_9 
REMARK       I    between atoms: N_10  and  C_11 
REMARK    4  A    between atoms: C_18  and  C_19 
REMARK    5  A    between atoms: C_19  and  C_22 
ROOT
HETATM    1  C   UNK N   1      28.477  17.106   6.099  0.00  0.00     0.200 C 
HETATM    2  C   UNK N   1      29.502  16.782   5.090  0.00  0.00     0.077 C 
HETATM    3  N   UNK N   1      30.323  16.503   4.323  0.00  0.00    -0.196 NA
ENDROOT
BRANCH   1   4
HETATM    4  C   UNK N   1      29.126  17.619   7.364  0.00  0.00     0.052 A 
HETATM    5  N   UNK N   1      30.469  17.497   7.499  0.00  0.00    -0.194 N 
HETATM    6  C   UNK N   1      31.101  17.819   8.651  0.00  0.00     0.678 A 
ATOM      7  HN  UNK N   1      31.018  17.156   6.711  1.00  0.00     0.184 HD
HETATM    8  N   UNK N   1      32.468  17.530   8.789  0.00  0.00    -0.226 N 
HETATM    9  N   UNK N   1      30.389  18.268   9.718  0.00  0.00    -0.202 N 
HETATM   10  H   UNK N   1      33.037  18.109   9.347  0.00  0.00     0.177 HD
HETATM   11  C   UNK N   1      29.039  18.377   9.652  0.00  0.00     0.108 A 
ATOM     12  HN  UNK N   1      30.876  18.526  10.577  1.00  0.00     0.183 HD
HETATM   13  C   UNK N   1      28.374  18.028   8.479  0.00  0.00     0.045 A 
BRANCH   8  14
HETATM   14  C   UNK N   1      33.047  16.386   8.117  0.00  0.00     0.142 C 
BRANCH  14  15
HETATM   15  C   UNK N   1      34.537  16.261   8.478  0.00  0.00     0.060 C 
BRANCH  15  16
HETATM   16  C   UNK N   1      34.728  15.572   9.796  0.00  0.00    -0.041 A 
HETATM   17  C   UNK N   1      34.144  14.328  10.060  0.00  0.00     0.094 A 
HETATM   18  N   UNK N   1      34.400  13.690  11.235  0.00  0.00    -0.375 N 
HETATM   19  C   UNK N   1      35.233  14.228  12.168  0.00  0.00     0.087 A 
ATOM     20  HN  UNK N   1      33.960  12.789  11.421  1.00  0.00     0.164 HD
HETATM   21  C   UNK N   1      35.839  15.465  11.938  0.00  0.00     0.018 A 
HETATM   22  C   UNK N   1      35.582  16.138  10.746  0.00  0.00     0.010 A 
ENDBRANCH  15  16
ENDBRANCH  14  15
ENDBRANCH   8  14
ENDBRANCH   1   4
BRANCH   1  23
HETATM   23  C   UNK N   1      27.490  18.102   5.575  0.00  0.00     0.075 A 
HETATM   24  N   UNK N   1      26.142  17.893   5.544  0.00  0.00    -0.351 N 
HETATM   25  C   UNK N   1      25.523  18.768   4.683  0.00  0.00     0.050 A 
ATOM     26  HN  UNK N   1      25.658  17.180   6.089  1.00  0.00     0.166 HD
HETATM   27  C   UNK N   1      24.155  18.782   4.425  0.00  0.00     0.031 A 
HETATM   28  C   UNK N   1      26.372  19.636   3.998  0.00  0.00     0.033 A 
HETATM   29  C   UNK N   1      23.665  19.681   3.461  0.00  0.00     0.002 A 
HETATM   30  C   UNK N   1      24.544  20.542   2.766  0.00  0.00     0.002 A 
HETATM   31  C   UNK N   1      25.920  20.525   3.035  0.00  0.00     0.021 A 
HETATM   32  S   UNK N   1      27.893  19.312   4.507  0.00  0.00    -0.073 SA
ENDBRANCH   1  23
TORSDOF 5
ENDMDL
MODEL 4
REMARK VINA RESULT:      -7.5      6.270     10.300
REMARK  5 active torsions:
REMARK  status: ('A' for Active; 'I' for Inactive)
REMARK    1  A    between atoms: C_8  and  C_7 
REMARK    2  A    between atoms: C_8  and  C_9 
REMARK    3  A    between atoms: N_10  and  C_9 
REMARK       I    between atoms: N_10  and  C_11 
REMARK    4  A    between atoms: C_18  and  C_19 
REMARK    5  A    between atoms: C_19  and  C_22 
ROOT
HETATM    1  C   UNK N   1      20.989  19.732   2.636  0.00  0.00     0.200 C 
HETATM    2  C   UNK N   1      21.033  20.269   1.264  0.00  0.00     0.077 C 
HETATM    3  N   UNK N   1      21.030  20.685   0.183  0.00  0.00    -0.196 NA
ENDROOT
BRANCH   1   4
HETATM    4  C   UNK N   1      20.419  18.333   2.637  0.00  0.00     0.052 A 
HETATM    5  N   UNK N   1      20.012  17.799   3.814  0.00  0.00    -0.194 N 
HETATM    6  C   UNK N   1      19.610  16.511   3.911  0.00  0.00     0.678 A 
ATOM      7  HN  UNK N   1      20.008  18.384   4.649  1.00  0.00     0.184 HD
HETATM    8  N   UNK N   1      19.346  15.967   5.179  0.00  0.00    -0.226 N 
HETATM    9  N   UNK N   1      19.616  15.709   2.814  0.00  0.00    -0.202 N 
HETATM   10  H   UNK N   1      18.661  15.265   5.277  0.00  0.00     0.177 HD
HETATM   11  C   UNK N   1      20.046  16.179   1.616  0.00  0.00     0.108 A 
ATOM     12  HN  UNK N   1      19.294  14.744   2.892  1.00  0.00     0.183 HD
HETATM   13  C   UNK N   1      20.484  17.497   1.508  0.00  0.00     0.045 A 
BRANCH   8  14
HETATM   14  C   UNK N   1      20.073  16.430   6.341  0.00  0.00     0.142 C 
BRANCH  14  15
HETATM   15  C   UNK N   1      21.333  15.573   6.550  0.00  0.00     0.060 C 
BRANCH  15  16
HETATM   16  C   UNK N   1      21.257  14.783   7.823  0.00  0.00    -0.041 A 
HETATM   17  C   UNK N   1      20.232  14.996   8.752  0.00  0.00     0.094 A 
HETATM   18  N   UNK N   1      20.143  14.210   9.860  0.00  0.00    -0.375 N 
HETATM   19  C   UNK N   1      21.026  13.198  10.087  0.00  0.00     0.087 A 
ATOM     20  HN  UNK N   1      19.399  14.382  10.536  1.00  0.00     0.164 HD
HETATM   21  C   UNK N   1      22.058  12.952   9.178  0.00  0.00     0.018 A 
HETATM   22  C   UNK N   1      22.172  13.751   8.043  0.00  0.00     0.010 A 
ENDBRANCH  15  16
ENDBRANCH  14  15
ENDBRANCH   8  14
ENDBRANCH   1   4
BRANCH   1  23
HETATM   23  C   UNK N   1      22.345  19.747   3.272  0.00  0.00     0.075 A 
HETATM   24  N   UNK N   1      23.385  20.508   2.826  0.00  0.00    -0.351 N 
HETATM   25  C   UNK N   1      24.583  20.053   3.326  0.00  0.00     0.050 A 
ATOM     26  HN  UNK N   1      23.287  21.309   2.204  1.00  0.00     0.166 HD
HETATM   27  C   UNK N   1      25.822  20.614   3.030  0.00  0.00     0.031 A 
HETATM   28  C   UNK N   1      24.505  18.913   4.125  0.00  0.00     0.033 A 
HETATM   29  C   UNK N   1      26.976  19.999   3.549  0.00  0.00     0.002 A 
HETATM   30  C   UNK N   1      26.877  18.835   4.344  0.00  0.00     0.002 A 
HETATM   31  C   UNK N   1      25.624  18.279   4.641  0.00  0.00     0.021 A 
HETATM   32  S   UNK N   1      22.923  18.507   4.218  0.00  0.00    -0.073 SA
ENDBRANCH   1  23
TORSDOF 5
ENDMDL
MODEL 5
REMARK VINA RESULT:      -7.4     10.947     14.467
REMARK  5 active torsions:
REMARK  status: ('A' for Active; 'I' for Inactive)
REMARK    1  A    between atoms: C_8  and  C_7 
REMARK    2  A    between atoms: C_8  and  C_9 
REMARK    3  A    between atoms: N_10  and  C_9 
REMARK       I    between atoms: N_10  and  C_11 
REMARK    4  A    between atoms: C_18  and  C_19 
REMARK    5  A    between atoms: C_19  and  C_22 
ROOT
HETATM    1  C   UNK N   1      29.106  23.655  -3.608  0.00  0.00     0.200 C 
HETATM    2  C   UNK N   1      29.904  23.241  -2.440  0.00  0.00     0.077 C 
HETATM    3  N   UNK N   1      30.512  22.943  -1.502  0.00  0.00    -0.196 NA
ENDROOT
BRANCH   1   4
HETATM    4  C   UNK N   1      29.284  25.132  -3.873  0.00  0.00     0.052 A 
HETATM    5  N   UNK N   1      28.233  25.960  -3.662  0.00  0.00    -0.194 N 
HETATM    6  C   UNK N   1      28.280  27.271  -3.995  0.00  0.00     0.678 A 
ATOM      7  HN  UNK N   1      27.384  25.586  -3.238  1.00  0.00     0.184 HD
HETATM    8  N   UNK N   1      27.114  28.047  -3.896  0.00  0.00    -0.226 N 
HETATM    9  N   UNK N   1      29.397  27.790  -4.568  0.00  0.00    -0.202 N 
HETATM   10  H   UNK N   1      27.182  29.007  -3.682  0.00  0.00     0.177 HD
HETATM   11  C   UNK N   1      30.468  27.001  -4.835  0.00  0.00     0.108 A 
ATOM     12  HN  UNK N   1      29.431  28.783  -4.800  1.00  0.00     0.183 HD
HETATM   13  C   UNK N   1      30.424  25.645  -4.518  0.00  0.00     0.045 A 
BRANCH   8  14
HETATM   14  C   UNK N   1      25.814  27.447  -4.108  0.00  0.00     0.142 C 
BRANCH  14  15
HETATM   15  C   UNK N   1      25.420  27.554  -5.591  0.00  0.00     0.060 C 
BRANCH  15  16
HETATM   16  C   UNK N   1      25.571  26.240  -6.297  0.00  0.00    -0.041 A 
HETATM   17  C   UNK N   1      25.423  25.026  -5.617  0.00  0.00     0.094 A 
HETATM   18  N   UNK N   1      25.486  23.850  -6.299  0.00  0.00    -0.375 N 
HETATM   19  C   UNK N   1      25.678  23.820  -7.647  0.00  0.00     0.087 A 
ATOM     20  HN  UNK N   1      25.389  22.971  -5.791  1.00  0.00     0.164 HD
HETATM   21  C   UNK N   1      25.824  25.011  -8.361  0.00  0.00     0.018 A 
HETATM   22  C   UNK N   1      25.771  26.225  -7.679  0.00  0.00     0.010 A 
ENDBRANCH  15  16
ENDBRANCH  14  15
ENDBRANCH   8  14
ENDBRANCH   1   4
BRANCH   1  23
HETATM   23  C   UNK N   1      29.464  22.858  -4.825  0.00  0.00     0.075 A 
HETATM   24  N   UNK N   1      28.663  22.746  -5.924  0.00  0.00    -0.351 N 
HETATM   25  C   UNK N   1      29.036  21.678  -6.704  0.00  0.00     0.050 A 
ATOM     26  HN  UNK N   1      27.889  23.375  -6.138  1.00  0.00     0.166 HD
HETATM   27  C   UNK N   1      28.393  21.299  -7.879  0.00  0.00     0.031 A 
HETATM   28  C   UNK N   1      30.094  20.915  -6.210  0.00  0.00     0.033 A 
HETATM   29  C   UNK N   1      28.832  20.137  -8.538  0.00  0.00     0.002 A 
HETATM   30  C   UNK N   1      29.895  19.369  -8.012  0.00  0.00     0.002 A 
HETATM   31  C   UNK N   1      30.541  19.760  -6.831  0.00  0.00     0.021 A 
HETATM   32  S   UNK N   1      30.568  21.614  -4.809  0.00  0.00    -0.073 SA
ENDBRANCH   1  23
TORSDOF 5
ENDMDL
MODEL 6
REMARK VINA RESULT:      -7.3      5.600      8.370
REMARK  5 active torsions:
REMARK  status: ('A' for Active; 'I' for Inactive)
REMARK    1  A    between atoms: C_8  and  C_7 
REMARK    2  A    between atoms: C_8  and  C_9 
REMARK    3  A    between atoms: N_10  and  C_9 
REMARK       I    between atoms: N_10  and  C_11 
REMARK    4  A    between atoms: C_18  and  C_19 
REMARK    5  A    between atoms: C_19  and  C_22 
ROOT
HETATM    1  C   UNK N   1      34.090  16.150   8.538  0.00  0.00     0.200 C 
HETATM    2  C   UNK N   1      34.871  16.988   9.466  0.00  0.00     0.077 C 
HETATM    3  N   UNK N   1      35.513  17.620  10.193  0.00  0.00    -0.196 NA
ENDROOT
BRANCH   1   4
HETATM    4  C   UNK N   1      33.913  14.760   9.103  0.00  0.00     0.052 A 
HETATM    5  N   UNK N   1      34.446  14.482  10.318  0.00  0.00    -0.194 N 
HETATM    6  C   UNK N   1      34.436  13.230  10.830  0.00  0.00     0.678 A 
ATOM      7  HN  UNK N   1      34.864  15.237  10.861  1.00  0.00     0.184 HD
HETATM    8  N   UNK N   1      35.135  12.968  12.020  0.00  0.00    -0.226 N 
HETATM    9  N   UNK N   1      33.893  12.206  10.121  0.00  0.00    -0.202 N 
HETATM   10  H   UNK N   1      34.807  12.274  12.638  0.00  0.00     0.177 HD
HETATM   11  C   UNK N   1      33.376  12.419   8.885  0.00  0.00     0.108 A 
ATOM     12  HN  UNK N   1      33.872  11.268  10.522  1.00  0.00     0.183 HD
HETATM   13  C   UNK N   1      33.400  13.699   8.336  0.00  0.00     0.045 A 
BRANCH   8  14
HETATM   14  C   UNK N   1      36.334  13.712  12.344  0.00  0.00     0.142 C 
BRANCH  14  15
HETATM   15  C   UNK N   1      36.267  14.209  13.798  0.00  0.00     0.060 C 
BRANCH  15  16
HETATM   16  C   UNK N   1      36.170  13.067  14.766  0.00  0.00    -0.041 A 
HETATM   17  C   UNK N   1      37.030  11.967  14.684  0.00  0.00     0.094 A 
HETATM   18  N   UNK N   1      36.971  10.984  15.624  0.00  0.00    -0.375 N 
HETATM   19  C   UNK N   1      36.098  11.049  16.666  0.00  0.00     0.087 A 
ATOM     20  HN  UNK N   1      37.595  10.180  15.547  1.00  0.00     0.164 HD
HETATM   21  C   UNK N   1      35.228  12.136  16.786  0.00  0.00     0.018 A 
HETATM   22  C   UNK N   1      35.267  13.147  15.828  0.00  0.00     0.010 A 
ENDBRANCH  15  16
ENDBRANCH  14  15
ENDBRANCH   8  14
ENDBRANCH   1   4
BRANCH   1  23
HETATM   23  C   UNK N   1      32.759  16.766   8.234  0.00  0.00     0.075 A 
HETATM   24  N   UNK N   1      31.945  17.321   9.178  0.00  0.00    -0.351 N 
HETATM   25  C   UNK N   1      30.659  17.453   8.710  0.00  0.00     0.050 A 
ATOM     26  HN  UNK N   1      32.252  17.602  10.109  1.00  0.00     0.166 HD
HETATM   27  C   UNK N   1      29.600  17.967   9.453  0.00  0.00     0.031 A 
HETATM   28  C   UNK N   1      30.437  16.966   7.422  0.00  0.00     0.033 A 
HETATM   29  C   UNK N   1      28.318  17.972   8.876  0.00  0.00     0.002 A 
HETATM   30  C   UNK N   1      28.111  17.459   7.576  0.00  0.00     0.002 A 
HETATM   31  C   UNK N   1      29.184  16.947   6.832  0.00  0.00     0.021 A 
HETATM   32  S   UNK N   1      31.872  16.401   6.875  0.00  0.00    -0.073 SA
ENDBRANCH   1  23
TORSDOF 5
ENDMDL
MODEL 7
REMARK VINA RESULT:      -7.3      5.873      9.971
REMARK  5 active torsions:
REMARK  status: ('A' for Active; 'I' for Inactive)
REMARK    1  A    between atoms: C_8  and  C_7 
REMARK    2  A    between atoms: C_8  and  C_9 
REMARK    3  A    between atoms: N_10  and  C_9 
REMARK       I    between atoms: N_10  and  C_11 
REMARK    4  A    between atoms: C_18  and  C_19 
REMARK    5  A    between atoms: C_19  and  C_22 
ROOT
HETATM    1  C   UNK N   1      35.081  12.663   9.913  0.00  0.00     0.200 C 
HETATM    2  C   UNK N   1      33.917  12.313   9.079  0.00  0.00     0.077 C 
HETATM    3  N   UNK N   1      33.012  12.066   8.401  0.00  0.00    -0.196 NA
ENDROOT
BRANCH   1   4
HETATM    4  C   UNK N   1      35.034  14.123  10.299  0.00  0.00     0.052 A 
HETATM    5  N   UNK N   1      34.102  14.917   9.720  0.00  0.00    -0.194 N 
HETATM    6  C   UNK N   1      34.080  16.255   9.922  0.00  0.00     0.678 A 
ATOM      7  HN  UNK N   1      33.396  14.495   9.117  1.00  0.00     0.184 HD
HETATM    8  N   UNK N   1      33.191  17.048   9.178  0.00  0.00    -0.226 N 
HETATM    9  N   UNK N   1      35.016  16.841  10.714  0.00  0.00    -0.202 N 
HETATM   10  H   UNK N   1      32.821  17.871   9.574  0.00  0.00     0.177 HD
HETATM   11  C   UNK N   1      35.994  16.100  11.293  0.00  0.00     0.108 A 
ATOM     12  HN  UNK N   1      34.981  17.848  10.876  1.00  0.00     0.183 HD
HETATM   13  C   UNK N   1      36.041  14.725  11.075  0.00  0.00     0.045 A 
BRANCH   8  14
HETATM   14  C   UNK N   1      32.814  16.664   7.835  0.00  0.00     0.142 C 
BRANCH  14  15
HETATM   15  C   UNK N   1      33.526  17.564   6.811  0.00  0.00     0.060 C 
BRANCH  15  16
HETATM   16  C   UNK N   1      33.499  16.965   5.437  0.00  0.00    -0.041 A 
HETATM   17  C   UNK N   1      34.095  15.728   5.169  0.00  0.00     0.094 A 
HETATM   18  N   UNK N   1      33.985  15.171   3.931  0.00  0.00    -0.375 N 
HETATM   19  C   UNK N   1      33.288  15.785   2.936  0.00  0.00     0.087 A 
ATOM     20  HN  UNK N   1      34.435  14.275   3.745  1.00  0.00     0.164 HD
HETATM   21  C   UNK N   1      32.674  17.018   3.167  0.00  0.00     0.018 A 
HETATM   22  C   UNK N   1      32.783  17.608   4.425  0.00  0.00     0.010 A 
ENDBRANCH  15  16
ENDBRANCH  14  15
ENDBRANCH   8  14
ENDBRANCH   1   4
BRANCH   1  23
HETATM   23  C   UNK N   1      35.158  11.799  11.134  0.00  0.00     0.075 A 
HETATM   24  N   UNK N   1      34.145  11.669  12.039  0.00  0.00    -0.351 N 
HETATM   25  C   UNK N   1      34.602  11.149  13.226  0.00  0.00     0.050 A 
ATOM     26  HN  UNK N   1      33.175  11.926  11.857  1.00  0.00     0.166 HD
HETATM   27  C   UNK N   1      33.805  10.923  14.345  0.00  0.00     0.031 A 
HETATM   28  C   UNK N   1      35.975  10.908  13.286  0.00  0.00     0.033 A 
HETATM   29  C   UNK N   1      34.420  10.459  15.521  0.00  0.00     0.002 A 
HETATM   30  C   UNK N   1      35.814  10.236  15.567  0.00  0.00     0.002 A 
HETATM   31  C   UNK N   1      36.610  10.462  14.434  0.00  0.00     0.021 A 
HETATM   32  S   UNK N   1      36.593  11.327  11.830  0.00  0.00    -0.073 SA
ENDBRANCH   1  23
TORSDOF 5
ENDMDL
MODEL 8
REMARK VINA RESULT:      -7.2      4.478      7.502
REMARK  5 active torsions:
REMARK  status: ('A' for Active; 'I' for Inactive)
REMARK    1  A    between atoms: C_8  and  C_7 
REMARK    2  A    between atoms: C_8  and  C_9 
REMARK    3  A    between atoms: N_10  and  C_9 
REMARK       I    between atoms: N_10  and  C_11 
REMARK    4  A    between atoms: C_18  and  C_19 
REMARK    5  A    between atoms: C_19  and  C_22 
ROOT
HETATM    1  C   UNK N   1      33.861  17.589   7.004  0.00  0.00     0.200 C 
HETATM    2  C   UNK N   1      34.643  18.387   7.966  0.00  0.00     0.077 C 
HETATM    3  N   UNK N   1      35.289  19.000   8.706  0.00  0.00    -0.196 NA
ENDROOT
BRANCH   1   4
HETATM    4  C   UNK N   1      34.227  16.127   7.110  0.00  0.00     0.052 A 
HETATM    5  N   UNK N   1      34.513  15.618   8.333  0.00  0.00    -0.194 N 
HETATM    6  C   UNK N   1      34.968  14.354   8.489  0.00  0.00     0.678 A 
ATOM      7  HN  UNK N   1      34.380  16.203   9.157  1.00  0.00     0.184 HD
HETATM    8  N   UNK N   1      35.394  13.928   9.758  0.00  0.00    -0.226 N 
HETATM    9  N   UNK N   1      35.162  13.558   7.405  0.00  0.00    -0.202 N 
HETATM   10  H   UNK N   1      35.291  12.983  10.018  0.00  0.00     0.177 HD
HETATM   11  C   UNK N   1      34.925  14.026   6.153  0.00  0.00     0.108 A 
ATOM     12  HN  UNK N   1      35.488  12.600   7.533  1.00  0.00     0.183 HD
HETATM   13  C   UNK N   1      34.477  15.333   5.977  0.00  0.00     0.045 A 
BRANCH   8  14
HETATM   14  C   UNK N   1      35.982  14.870  10.688  0.00  0.00     0.142 C 
BRANCH  14  15
HETATM   15  C   UNK N   1      35.345  14.703  12.078  0.00  0.00     0.060 C 
BRANCH  15  16
HETATM   16  C   UNK N   1      36.096  13.709  12.913  0.00  0.00    -0.041 A 
HETATM   17  C   UNK N   1      36.995  12.805  12.336  0.00  0.00     0.094 A 
HETATM   18  N   UNK N   1      37.722  11.968  13.127  0.00  0.00    -0.375 N 
HETATM   19  C   UNK N   1      37.610  11.997  14.484  0.00  0.00     0.087 A 
ATOM     20  HN  UNK N   1      38.365  11.305  12.695  1.00  0.00     0.164 HD
HETATM   21  C   UNK N   1      36.728  12.891  15.096  0.00  0.00     0.018 A 
HETATM   22  C   UNK N   1      35.968  13.749  14.303  0.00  0.00     0.010 A 
ENDBRANCH  15  16
ENDBRANCH  14  15
ENDBRANCH   8  14
ENDBRANCH   1   4
BRANCH   1  23
HETATM   23  C   UNK N   1      32.389  17.778   7.207  0.00  0.00     0.075 A 
HETATM   24  N   UNK N   1      31.828  18.159   8.390  0.00  0.00    -0.351 N 
HETATM   25  C   UNK N   1      30.481  17.883   8.413  0.00  0.00     0.050 A 
ATOM     26  HN  UNK N   1      32.341  18.591   9.158  1.00  0.00     0.166 HD
HETATM   27  C   UNK N   1      29.644  18.138   9.495  0.00  0.00     0.031 A 
HETATM   28  C   UNK N   1      29.980  17.247   7.278  0.00  0.00     0.033 A 
HETATM   29  C   UNK N   1      28.299  17.734   9.412  0.00  0.00     0.002 A 
HETATM   30  C   UNK N   1      27.815  17.076   8.259  0.00  0.00     0.002 A 
HETATM   31  C   UNK N   1      28.664  16.827   7.170  0.00  0.00     0.021 A 
HETATM   32  S   UNK N   1      31.235  17.065   6.244  0.00  0.00    -0.073 SA
ENDBRANCH   1  23
TORSDOF 5
ENDMDL
MODEL 9
REMARK VINA RESULT:      -7.2      5.441      9.762
REMARK  5 active torsions:
REMARK  status: ('A' for Active; 'I' for Inactive)
REMARK    1  A    between atoms: C_8  and  C_7 
REMARK    2  A    between atoms: C_8  and  C_9 
REMARK    3  A    between atoms: N_10  and  C_9 
REMARK       I    between atoms: N_10  and  C_11 
REMARK    4  A    between atoms: C_18  and  C_19 
REMARK    5  A    between atoms: C_19  and  C_22 
ROOT
HETATM    1  C   UNK N   1      21.785  18.711   4.537  0.00  0.00     0.200 C 
HETATM    2  C   UNK N   1      21.045  19.590   3.613  0.00  0.00     0.077 C 
HETATM    3  N   UNK N   1      20.433  20.270   2.904  0.00  0.00    -0.196 NA
ENDROOT
BRANCH   1   4
HETATM    4  C   UNK N   1      21.259  17.297   4.454  0.00  0.00     0.052 A 
HETATM    5  N   UNK N   1      20.866  16.683   5.597  0.00  0.00    -0.194 N 
HETATM    6  C   UNK N   1      20.504  15.380   5.618  0.00  0.00     0.678 A 
ATOM      7  HN  UNK N   1      20.842  17.218   6.464  1.00  0.00     0.184 HD
HETATM    8  N   UNK N   1      20.254  14.755   6.850  0.00  0.00    -0.226 N 
HETATM    9  N   UNK N   1      20.537  14.643   4.476  0.00  0.00    -0.202 N 
HETATM   10  H   UNK N   1      19.591  14.028   6.905  0.00  0.00     0.177 HD
HETATM   11  C   UNK N   1      20.954  15.196   3.309  0.00  0.00     0.108 A 
ATOM     12  HN  UNK N   1      20.245  13.666   4.496  1.00  0.00     0.183 HD
HETATM   13  C   UNK N   1      21.352  16.530   3.279  0.00  0.00     0.045 A 
BRANCH   8  14
HETATM   14  C   UNK N   1      20.964  15.172   8.041  0.00  0.00     0.142 C 
BRANCH  14  15
HETATM   15  C   UNK N   1      20.312  14.551   9.287  0.00  0.00     0.060 C 
BRANCH  15  16
HETATM   16  C   UNK N   1      21.235  13.585   9.968  0.00  0.00    -0.041 A 
HETATM   17  C   UNK N   1      20.752  12.619  10.858  0.00  0.00     0.094 A 
HETATM   18  N   UNK N   1      21.603  11.704  11.400  0.00  0.00    -0.375 N 
HETATM   19  C   UNK N   1      22.927  11.693  11.085  0.00  0.00     0.087 A 
ATOM     20  HN  UNK N   1      21.241  11.013  12.056  1.00  0.00     0.164 HD
HETATM   21  C   UNK N   1      23.445  12.638  10.195  0.00  0.00     0.018 A 
HETATM   22  C   UNK N   1      22.592  13.588   9.638  0.00  0.00     0.010 A 
ENDBRANCH  15  16
ENDBRANCH  14  15
ENDBRANCH   8  14
ENDBRANCH   1   4
BRANCH   1  23
HETATM   23  C   UNK N   1      23.256  18.740   4.259  0.00  0.00     0.075 A 
HETATM   24  N   UNK N   1      24.187  18.093   5.019  0.00  0.00    -0.351 N 
HETATM   25  C   UNK N   1      25.448  18.588   4.788  0.00  0.00     0.050 A 
ATOM     26  HN  UNK N   1      23.973  17.341   5.673  1.00  0.00     0.166 HD
HETATM   27  C   UNK N   1      26.598  18.143   5.433  0.00  0.00     0.031 A 
HETATM   28  C   UNK N   1      25.520  19.651   3.887  0.00  0.00     0.033 A 
HETATM   29  C   UNK N   1      27.815  18.793   5.157  0.00  0.00     0.002 A 
HETATM   30  C   UNK N   1      27.863  19.877   4.253  0.00  0.00     0.002 A 
HETATM   31  C   UNK N   1      26.701  20.317   3.604  0.00  0.00     0.021 A 
HETATM   32  S   UNK N   1      23.994  19.935   3.368  0.00  0.00    -0.073 SA
ENDBRANCH   1  23
TORSDOF 5
ENDMDL
