REMARK  5 active torsions:
REMARK  status: ('A' for Active; 'I' for Inactive)
REMARK    1  A    between atoms: C_8  and  C_7 
REMARK    2  A    between atoms: C_8  and  C_9 
REMARK    3  A    between atoms: N_10  and  C_9 
REMARK       I    between atoms: N_10  and  C_11 
REMARK    4  A    between atoms: C_18  and  C_19 
REMARK    5  A    between atoms: C_19  and  C_22 
ROOT
HETATM    1  C   UNK N   1       0.706   2.113   0.943  0.00  0.00     0.200 C 
HETATM    2  C   UNK N   1       0.101   3.410   0.589  0.00  0.00     0.077 C 
HETATM    3  N   UNK N   1      -0.408   4.414   0.319  0.00  0.00    -0.196 NA
ENDROOT
BRANCH   1   4
HETATM    4  C   UNK N   1       0.107   1.006   0.107  0.00  0.00     0.052 A 
HETATM    5  N   UNK N   1      -1.176   1.130  -0.310  0.00  0.00    -0.194 N 
HETATM    6  C   UNK N   1      -1.817   0.127  -0.953  0.00  0.00     0.678 A 
ATOM      7  HN  UNK N   1      -1.672   2.004  -0.136  1.00  0.00     0.184 HD
HETATM    8  N   UNK N   1      -3.189   0.251  -1.226  0.00  0.00    -0.226 N 
HETATM    9  N   UNK N   1      -1.180  -1.050  -1.188  0.00  0.00    -0.202 N 
HETATM   10  H   UNK N   1      -3.569  -0.177  -2.028  0.00  0.00     0.177 HD
HETATM   11  C   UNK N   1       0.094  -1.244  -0.763  0.00  0.00     0.108 A 
ATOM     12  HN  UNK N   1      -1.664  -1.795  -1.690  1.00  0.00     0.183 HD
HETATM   13  C   UNK N   1       0.757  -0.227  -0.080  0.00  0.00     0.045 A 
BRANCH   8  14
HETATM   14  C   UNK N   1      -4.048   1.004  -0.337  0.00  0.00     0.142 C 
BRANCH  14  15
HETATM   15  C   UNK N   1      -4.489   0.120   0.842  0.00  0.00     0.060 C 
BRANCH  15  16
HETATM   16  C   UNK N   1      -4.741  -1.293   0.407  0.00  0.00    -0.041 A 
HETATM   17  C   UNK N   1      -5.837  -1.623  -0.398  0.00  0.00     0.094 A 
HETATM   18  N   UNK N   1      -5.996  -2.900  -0.843  0.00  0.00    -0.375 N 
HETATM   19  C   UNK N   1      -5.098  -3.876  -0.536  0.00  0.00     0.087 A 
ATOM     20  HN  UNK N   1      -6.805  -3.131  -1.419  1.00  0.00     0.164 HD
HETATM   21  C   UNK N   1      -3.988  -3.583   0.260  0.00  0.00     0.018 A 
HETATM   22  C   UNK N   1      -3.813  -2.284   0.733  0.00  0.00     0.010 A 
ENDBRANCH  15  16
ENDBRANCH  14  15
ENDBRANCH   8  14
ENDBRANCH   1   4
BRANCH   1  23
HETATM   23  C   UNK N   1       2.195   2.143   0.784  0.00  0.00     0.075 A 
HETATM   24  N   UNK N   1       2.839   2.800  -0.223  0.00  0.00    -0.351 N 
HETATM   25  C   UNK N   1       4.133   2.356  -0.359  0.00  0.00     0.050 A 
ATOM     26  HN  UNK N   1       2.415   3.526  -0.800  1.00  0.00     0.166 HD
HETATM   27  C   UNK N   1       5.029   2.823  -1.316  0.00  0.00     0.031 A 
HETATM   28  C   UNK N   1       4.505   1.322   0.500  0.00  0.00     0.033 A 
HETATM   29  C   UNK N   1       6.299   2.224  -1.393  0.00  0.00     0.002 A 
HETATM   30  C   UNK N   1       6.651   1.167  -0.524  0.00  0.00     0.002 A 
HETATM   31  C   UNK N   1       5.744   0.705   0.441  0.00  0.00     0.021 A 
HETATM   32  S   UNK N   1       3.207   0.999   1.443  0.00  0.00    -0.073 SA
ENDBRANCH   1  23
TORSDOF 5
