MODEL 1
REMARK VINA RESULT:      -7.0      0.000      0.000
REMARK  2 active torsions:
REMARK  status: ('A' for Active; 'I' for Inactive)
REMARK       I    between atoms: N_2  and  C_3 
REMARK    1  A    between atoms: N_2  and  C_21 
REMARK    2  A    between atoms: C_6  and  C_7 
ROOT
HETATM    1  C   UNK N   1      35.583  15.013   6.478  0.00  0.00     0.169 C 
HETATM    2  N   UNK N   1      35.243  14.986   7.881  0.00  0.00    -0.217 N 
HETATM    3  C   UNK N   1      36.013  14.144   8.755  0.00  0.00     0.680 A 
HETATM    4  N   UNK N   1      35.692  14.037  10.066  0.00  0.00    -0.189 N 
ATOM      5  HN  UNK N   1      34.894  14.562  10.419  1.00  0.00     0.184 HD
HETATM    6  C   UNK N   1      36.391  13.261  10.927  0.00  0.00     0.079 A 
HETATM    7  C   UNK N   1      37.483  12.533  10.451  0.00  0.00     0.050 A 
HETATM    8  C   UNK N   1      37.809  12.634   9.095  0.00  0.00     0.108 A 
HETATM    9  N   UNK N   1      37.073  13.432   8.273  0.00  0.00    -0.202 N 
ATOM     10  HN  UNK N   1      37.316  13.498   7.285  1.00  0.00     0.183 HD
ENDROOT
BRANCH   6  11
HETATM   11  C   UNK N   1      35.958  13.230  12.337  0.00  0.00     0.083 A 
HETATM   12  N   UNK N   1      35.197  12.305  12.946  0.00  0.00    -0.305 N 
HETATM   13  C   UNK N   1      35.081  12.709  14.221  0.00  0.00     0.111 A 
HETATM   14  C   UNK N   1      34.619  11.169  12.476  0.00  0.00     0.099 A 
HETATM   15  C   UNK N   1      34.351  11.980  15.151  0.00  0.00     0.049 A 
HETATM   16  N   UNK N   1      35.737  13.860  14.461  0.00  0.00    -0.350 N 
HETATM   17  C   UNK N   1      33.736  10.799  14.710  0.00  0.00     0.005 A 
HETATM   18  C   UNK N   1      33.868  10.389  13.368  0.00  0.00     0.018 A 
HETATM   19  C   UNK N   1      36.297  14.199  13.276  0.00  0.00     0.122 A 
ATOM     20  HN  UNK N   1      35.799  14.366  15.344  1.00  0.00     0.166 HD
ENDBRANCH   6  11
BRANCH   2  21
HETATM   21  C   UNK N   1      34.134  15.843   8.319  0.00  0.00     0.101 C 
HETATM   22  C   UNK N   1      34.240  17.226   7.667  0.00  0.00     0.026 C 
HETATM   23  C   UNK N   1      33.155  18.161   8.199  0.00  0.00     0.002 C 
HETATM   24  C   UNK N   1      31.775  17.575   7.927  0.00  0.00     0.000 C 
HETATM   25  C   UNK N   1      31.645  16.229   8.628  0.00  0.00     0.002 C 
HETATM   26  C   UNK N   1      32.718  15.273   8.121  0.00  0.00     0.026 C 
ENDBRANCH   2  21
TORSDOF 2
ENDMDL
MODEL 2
REMARK VINA RESULT:      -6.8      1.813      6.691
REMARK  2 active torsions:
REMARK  status: ('A' for Active; 'I' for Inactive)
REMARK       I    between atoms: N_2  and  C_3 
REMARK    1  A    between atoms: N_2  and  C_21 
REMARK    2  A    between atoms: C_6  and  C_7 
ROOT
HETATM    1  C   UNK N   1      37.883  10.098  12.635  0.00  0.00     0.169 C 
HETATM    2  N   UNK N   1      37.057  11.270  12.466  0.00  0.00    -0.217 N 
HETATM    3  C   UNK N   1      37.313  12.131  11.344  0.00  0.00     0.680 A 
HETATM    4  N   UNK N   1      36.607  13.275  11.178  0.00  0.00    -0.189 N 
ATOM      5  HN  UNK N   1      35.894  13.513  11.866  1.00  0.00     0.184 HD
HETATM    6  C   UNK N   1      36.810  14.113  10.136  0.00  0.00     0.079 A 
HETATM    7  C   UNK N   1      37.789  13.798   9.191  0.00  0.00     0.050 A 
HETATM    8  C   UNK N   1      38.526  12.623   9.367  0.00  0.00     0.108 A 
HETATM    9  N   UNK N   1      38.279  11.814  10.434  0.00  0.00    -0.202 N 
ATOM     10  HN  UNK N   1      38.823  10.960  10.555  1.00  0.00     0.183 HD
ENDROOT
BRANCH   6  11
HETATM   11  C   UNK N   1      35.972  15.325  10.050  0.00  0.00     0.083 A 
HETATM   12  N   UNK N   1      35.304  15.790   8.981  0.00  0.00    -0.305 N 
HETATM   13  C   UNK N   1      34.691  16.911   9.393  0.00  0.00     0.111 A 
HETATM   14  C   UNK N   1      35.198  15.315   7.713  0.00  0.00     0.099 A 
HETATM   15  C   UNK N   1      33.899  17.665   8.536  0.00  0.00     0.049 A 
HETATM   16  N   UNK N   1      34.935  17.189  10.687  0.00  0.00    -0.350 N 
HETATM   17  C   UNK N   1      33.761  17.211   7.216  0.00  0.00     0.005 A 
HETATM   18  C   UNK N   1      34.412  16.032   6.799  0.00  0.00     0.018 A 
HETATM   19  C   UNK N   1      35.745  16.191  11.114  0.00  0.00     0.122 A 
ATOM     20  HN  UNK N   1      34.587  17.979  11.229  1.00  0.00     0.166 HD
ENDBRANCH   6  11
BRANCH   2  21
HETATM   21  C   UNK N   1      35.993  11.489  13.455  0.00  0.00     0.101 C 
HETATM   22  C   UNK N   1      34.917  10.406  13.327  0.00  0.00     0.026 C 
HETATM   23  C   UNK N   1      33.752  10.685  14.276  0.00  0.00     0.002 C 
HETATM   24  C   UNK N   1      34.248  10.744  15.715  0.00  0.00     0.000 C 
HETATM   25  C   UNK N   1      35.271  11.862  15.858  0.00  0.00     0.002 C 
HETATM   26  C   UNK N   1      36.446  11.614  14.920  0.00  0.00     0.026 C 
ENDBRANCH   2  21
TORSDOF 2
ENDMDL
MODEL 3
REMARK VINA RESULT:      -6.8      8.177     11.948
REMARK  2 active torsions:
REMARK  status: ('A' for Active; 'I' for Inactive)
REMARK       I    between atoms: N_2  and  C_3 
REMARK    1  A    between atoms: N_2  and  C_21 
REMARK    2  A    between atoms: C_6  and  C_7 
ROOT
HETATM    1  C   UNK N   1      22.364  19.006   3.470  0.00  0.00     0.169 C 
HETATM    2  N   UNK N   1      23.307  18.670   4.511  0.00  0.00    -0.217 N 
HETATM    3  C   UNK N   1      24.655  19.154   4.393  0.00  0.00     0.680 A 
HETATM    4  N   UNK N   1      25.592  18.813   5.311  0.00  0.00    -0.189 N 
ATOM      5  HN  UNK N   1      25.322  18.206   6.082  1.00  0.00     0.184 HD
HETATM    6  C   UNK N   1      26.871  19.248   5.244  0.00  0.00     0.079 A 
HETATM    7  C   UNK N   1      27.252  20.077   4.186  0.00  0.00     0.050 A 
HETATM    8  C   UNK N   1      26.289  20.421   3.233  0.00  0.00     0.108 A 
HETATM    9  N   UNK N   1      25.014  19.957   3.349  0.00  0.00    -0.202 N 
ATOM     10  HN  UNK N   1      24.319  20.211   2.649  1.00  0.00     0.183 HD
ENDROOT
BRANCH   6  11
HETATM   11  C   UNK N   1      27.802  18.823   6.306  0.00  0.00     0.083 A 
HETATM   12  N   UNK N   1      28.757  17.880   6.236  0.00  0.00    -0.305 N 
HETATM   13  C   UNK N   1      29.338  17.858   7.446  0.00  0.00     0.111 A 
HETATM   14  C   UNK N   1      29.141  17.067   5.217  0.00  0.00     0.099 A 
HETATM   15  C   UNK N   1      30.383  16.989   7.735  0.00  0.00     0.049 A 
HETATM   16  N   UNK N   1      28.797  18.749   8.296  0.00  0.00    -0.350 N 
HETATM   17  C   UNK N   1      30.813  16.130   6.713  0.00  0.00     0.005 A 
HETATM   18  C   UNK N   1      30.192  16.167   5.448  0.00  0.00     0.018 A 
HETATM   19  C   UNK N   1      27.824  19.367   7.586  0.00  0.00     0.122 A 
ATOM     20  HN  UNK N   1      29.062  18.923   9.265  1.00  0.00     0.166 HD
ENDBRANCH   6  11
BRANCH   2  21
HETATM   21  C   UNK N   1      22.809  17.864   5.633  0.00  0.00     0.101 C 
HETATM   22  C   UNK N   1      21.348  18.214   5.933  0.00  0.00     0.026 C 
HETATM   23  C   UNK N   1      20.853  17.462   7.168  0.00  0.00     0.002 C 
HETATM   24  C   UNK N   1      20.983  15.958   6.955  0.00  0.00     0.000 C 
HETATM   25  C   UNK N   1      22.445  15.600   6.720  0.00  0.00     0.002 C 
HETATM   26  C   UNK N   1      22.970  16.340   5.495  0.00  0.00     0.026 C 
ENDBRANCH   2  21
TORSDOF 2
ENDMDL
MODEL 4
REMARK VINA RESULT:      -6.8      5.349      9.218
REMARK  2 active torsions:
REMARK  status: ('A' for Active; 'I' for Inactive)
REMARK       I    between atoms: N_2  and  C_3 
REMARK    1  A    between atoms: N_2  and  C_21 
REMARK    2  A    between atoms: C_6  and  C_7 
ROOT
HETATM    1  C   UNK N   1      32.779  13.524   5.554  0.00  0.00     0.169 C 
HETATM    2  N   UNK N   1      32.191  14.714   6.125  0.00  0.00    -0.217 N 
HETATM    3  C   UNK N   1      30.784  14.939   5.937  0.00  0.00     0.680 A 
HETATM    4  N   UNK N   1      30.200  16.070   6.400  0.00  0.00    -0.189 N 
ATOM      5  HN  UNK N   1      30.778  16.758   6.880  1.00  0.00     0.184 HD
HETATM    6  C   UNK N   1      28.879  16.323   6.251  0.00  0.00     0.079 A 
HETATM    7  C   UNK N   1      28.080  15.388   5.590  0.00  0.00     0.050 A 
HETATM    8  C   UNK N   1      28.684  14.225   5.103  0.00  0.00     0.108 A 
HETATM    9  N   UNK N   1      30.018  14.020   5.282  0.00  0.00    -0.202 N 
ATOM     10  HN  UNK N   1      30.450  13.169   4.921  1.00  0.00     0.183 HD
ENDROOT
BRANCH   6  11
HETATM   11  C   UNK N   1      28.350  17.582   6.806  0.00  0.00     0.083 A 
HETATM   12  N   UNK N   1      27.966  18.681   6.135  0.00  0.00    -0.305 N 
HETATM   13  C   UNK N   1      27.558  19.556   7.069  0.00  0.00     0.111 A 
HETATM   14  C   UNK N   1      27.949  18.960   4.806  0.00  0.00     0.099 A 
HETATM   15  C   UNK N   1      27.087  20.818   6.728  0.00  0.00     0.049 A 
HETATM   16  N   UNK N   1      27.663  19.065   8.318  0.00  0.00    -0.350 N 
HETATM   17  C   UNK N   1      27.052  21.149   5.366  0.00  0.00     0.005 A 
HETATM   18  C   UNK N   1      27.484  20.219   4.398  0.00  0.00     0.018 A 
HETATM   19  C   UNK N   1      28.162  17.816   8.164  0.00  0.00     0.122 A 
ATOM     20  HN  UNK N   1      27.419  19.533   9.191  1.00  0.00     0.166 HD
ENDBRANCH   6  11
BRANCH   2  21
HETATM   21  C   UNK N   1      33.082  15.606   6.878  0.00  0.00     0.101 C 
HETATM   22  C   UNK N   1      33.181  16.969   6.184  0.00  0.00     0.026 C 
HETATM   23  C   UNK N   1      34.189  17.869   6.897  0.00  0.00     0.002 C 
HETATM   24  C   UNK N   1      33.780  18.067   8.352  0.00  0.00     0.000 C 
HETATM   25  C   UNK N   1      33.743  16.719   9.061  0.00  0.00     0.002 C 
HETATM   26  C   UNK N   1      32.748  15.796   8.369  0.00  0.00     0.026 C 
ENDBRANCH   2  21
TORSDOF 2
ENDMDL
MODEL 5
REMARK VINA RESULT:      -6.6     16.000     19.607
REMARK  2 active torsions:
REMARK  status: ('A' for Active; 'I' for Inactive)
REMARK       I    between atoms: N_2  and  C_3 
REMARK    1  A    between atoms: N_2  and  C_21 
REMARK    2  A    between atoms: C_6  and  C_7 
ROOT
HETATM    1  C   UNK N   1      25.996  22.921  -8.829  0.00  0.00     0.169 C 
HETATM    2  N   UNK N   1      26.869  23.093  -7.691  0.00  0.00    -0.217 N 
HETATM    3  C   UNK N   1      27.875  22.096  -7.445  0.00  0.00     0.680 A 
HETATM    4  N   UNK N   1      28.675  22.181  -6.355  0.00  0.00    -0.189 N 
ATOM      5  HN  UNK N   1      28.547  22.961  -5.713  1.00  0.00     0.184 HD
HETATM    6  C   UNK N   1      29.638  21.269  -6.085  0.00  0.00     0.079 A 
HETATM    7  C   UNK N   1      29.817  20.192  -6.956  0.00  0.00     0.050 A 
HETATM    8  C   UNK N   1      28.985  20.099  -8.076  0.00  0.00     0.108 A 
HETATM    9  N   UNK N   1      28.032  21.045  -8.300  0.00  0.00    -0.202 N 
ATOM     10  HN  UNK N   1      27.428  20.968  -9.118  1.00  0.00     0.183 HD
ENDROOT
BRANCH   6  11
HETATM   11  C   UNK N   1      30.459  21.469  -4.876  0.00  0.00     0.083 A 
HETATM   12  N   UNK N   1      31.694  21.000  -4.632  0.00  0.00    -0.305 N 
HETATM   13  C   UNK N   1      32.020  21.445  -3.408  0.00  0.00     0.111 A 
HETATM   14  C   UNK N   1      32.528  20.236  -5.385  0.00  0.00     0.099 A 
HETATM   15  C   UNK N   1      33.246  21.147  -2.828  0.00  0.00     0.049 A 
HETATM   16  N   UNK N   1      31.043  22.184  -2.850  0.00  0.00    -0.350 N 
HETATM   17  C   UNK N   1      34.139  20.360  -3.569  0.00  0.00     0.005 A 
HETATM   18  C   UNK N   1      33.782  19.900  -4.853  0.00  0.00     0.018 A 
HETATM   19  C   UNK N   1      30.050  22.207  -3.770  0.00  0.00     0.122 A 
ATOM     20  HN  UNK N   1      31.049  22.631  -1.934  1.00  0.00     0.166 HD
ENDBRANCH   6  11
BRANCH   2  21
HETATM   21  C   UNK N   1      26.672  24.295  -6.870  0.00  0.00     0.101 C 
HETATM   22  C   UNK N   1      26.060  25.420  -7.711  0.00  0.00     0.026 C 
HETATM   23  C   UNK N   1      25.953  26.709  -6.897  0.00  0.00     0.002 C 
HETATM   24  C   UNK N   1      25.098  26.478  -5.656  0.00  0.00     0.000 C 
HETATM   25  C   UNK N   1      25.739  25.404  -4.787  0.00  0.00     0.002 C 
HETATM   26  C   UNK N   1      25.864  24.105  -5.574  0.00  0.00     0.026 C 
ENDBRANCH   2  21
TORSDOF 2
ENDMDL
MODEL 6
REMARK VINA RESULT:      -6.5     11.574     13.784
REMARK  2 active torsions:
REMARK  status: ('A' for Active; 'I' for Inactive)
REMARK       I    between atoms: N_2  and  C_3 
REMARK    1  A    between atoms: N_2  and  C_21 
REMARK    2  A    between atoms: C_6  and  C_7 
ROOT
HETATM    1  C   UNK N   1      23.922  20.652   2.996  0.00  0.00     0.169 C 
HETATM    2  N   UNK N   1      24.075  19.495   3.846  0.00  0.00    -0.217 N 
HETATM    3  C   UNK N   1      22.967  18.589   3.975  0.00  0.00     0.680 A 
HETATM    4  N   UNK N   1      23.041  17.524   4.808  0.00  0.00    -0.189 N 
ATOM      5  HN  UNK N   1      23.896  17.380   5.343  1.00  0.00     0.184 HD
HETATM    6  C   UNK N   1      22.025  16.643   4.958  0.00  0.00     0.079 A 
HETATM    7  C   UNK N   1      20.847  16.835   4.233  0.00  0.00     0.050 A 
HETATM    8  C   UNK N   1      20.766  17.940   3.380  0.00  0.00     0.108 A 
HETATM    9  N   UNK N   1      21.819  18.795   3.266  0.00  0.00    -0.202 N 
ATOM     10  HN  UNK N   1      21.750  19.599   2.643  1.00  0.00     0.183 HD
ENDROOT
BRANCH   6  11
HETATM   11  C   UNK N   1      22.222  15.512   5.885  0.00  0.00     0.083 A 
HETATM   12  N   UNK N   1      21.645  15.318   7.082  0.00  0.00    -0.305 N 
HETATM   13  C   UNK N   1      22.135  14.155   7.540  0.00  0.00     0.111 A 
HETATM   14  C   UNK N   1      20.746  16.064   7.776  0.00  0.00     0.099 A 
HETATM   15  C   UNK N   1      21.749  13.637   8.770  0.00  0.00     0.049 A 
HETATM   16  N   UNK N   1      23.008  13.589   6.686  0.00  0.00    -0.350 N 
HETATM   17  C   UNK N   1      20.823  14.374   9.521  0.00  0.00     0.005 A 
HETATM   18  C   UNK N   1      20.317  15.593   9.026  0.00  0.00     0.018 A 
HETATM   19  C   UNK N   1      23.071  14.439   5.634  0.00  0.00     0.122 A 
ATOM     20  HN  UNK N   1      23.512  12.711   6.805  1.00  0.00     0.166 HD
ENDBRANCH   6  11
BRANCH   2  21
HETATM   21  C   UNK N   1      25.374  19.317   4.510  0.00  0.00     0.101 C 
HETATM   22  C   UNK N   1      26.336  18.548   3.599  0.00  0.00     0.026 C 
HETATM   23  C   UNK N   1      27.653  18.261   4.319  0.00  0.00     0.002 C 
HETATM   24  C   UNK N   1      28.304  19.566   4.763  0.00  0.00     0.000 C 
HETATM   25  C   UNK N   1      27.375  20.302   5.720  0.00  0.00     0.002 C 
HETATM   26  C   UNK N   1      26.049  20.598   5.030  0.00  0.00     0.026 C 
ENDBRANCH   2  21
TORSDOF 2
ENDMDL
MODEL 7
REMARK VINA RESULT:      -6.5      1.967      7.145
REMARK  2 active torsions:
REMARK  status: ('A' for Active; 'I' for Inactive)
REMARK       I    between atoms: N_2  and  C_3 
REMARK    1  A    between atoms: N_2  and  C_21 
REMARK    2  A    between atoms: C_6  and  C_7 
ROOT
HETATM    1  C   UNK N   1      36.211  14.188  13.878  0.00  0.00     0.169 C 
HETATM    2  N   UNK N   1      35.391  13.786  12.759  0.00  0.00    -0.217 N 
HETATM    3  C   UNK N   1      35.205  14.717  11.679  0.00  0.00     0.680 A 
HETATM    4  N   UNK N   1      34.395  14.410  10.638  0.00  0.00    -0.189 N 
ATOM      5  HN  UNK N   1      33.918  13.509  10.637  1.00  0.00     0.184 HD
HETATM    6  C   UNK N   1      34.193  15.251   9.598  0.00  0.00     0.079 A 
HETATM    7  C   UNK N   1      34.837  16.490   9.592  0.00  0.00     0.050 A 
HETATM    8  C   UNK N   1      35.666  16.812  10.671  0.00  0.00     0.108 A 
HETATM    9  N   UNK N   1      35.835  15.927  11.692  0.00  0.00    -0.202 N 
ATOM     10  HN  UNK N   1      36.439  16.171  12.476  1.00  0.00     0.183 HD
ENDROOT
BRANCH   6  11
HETATM   11  C   UNK N   1      33.299  14.807   8.512  0.00  0.00     0.083 A 
HETATM   12  N   UNK N   1      32.335  15.513   7.898  0.00  0.00    -0.305 N 
HETATM   13  C   UNK N   1      31.802  14.686   6.984  0.00  0.00     0.111 A 
HETATM   14  C   UNK N   1      31.906  16.789   8.076  0.00  0.00     0.099 A 
HETATM   15  C   UNK N   1      30.764  15.090   6.154  0.00  0.00     0.049 A 
HETATM   16  N   UNK N   1      32.384  13.472   6.982  0.00  0.00    -0.350 N 
HETATM   17  C   UNK N   1      30.289  16.401   6.304  0.00  0.00     0.005 A 
HETATM   18  C   UNK N   1      30.859  17.257   7.268  0.00  0.00     0.018 A 
HETATM   19  C   UNK N   1      33.334  13.537   7.945  0.00  0.00     0.122 A 
ATOM     20  HN  UNK N   1      32.159  12.677   6.386  1.00  0.00     0.166 HD
ENDBRANCH   6  11
BRANCH   2  21
HETATM   21  C   UNK N   1      34.815  12.436  12.799  0.00  0.00     0.101 C 
HETATM   22  C   UNK N   1      35.731  11.445  12.073  0.00  0.00     0.026 C 
HETATM   23  C   UNK N   1      35.092  10.058  12.014  0.00  0.00     0.002 C 
HETATM   24  C   UNK N   1      34.805   9.550  13.421  0.00  0.00     0.000 C 
HETATM   25  C   UNK N   1      33.843  10.501  14.122  0.00  0.00     0.002 C 
HETATM   26  C   UNK N   1      34.452  11.896  14.194  0.00  0.00     0.026 C 
ENDBRANCH   2  21
TORSDOF 2
ENDMDL
MODEL 8
REMARK VINA RESULT:      -6.5     17.153     21.107
REMARK  2 active torsions:
REMARK  status: ('A' for Active; 'I' for Inactive)
REMARK       I    between atoms: N_2  and  C_3 
REMARK    1  A    between atoms: N_2  and  C_21 
REMARK    2  A    between atoms: C_6  and  C_7 
ROOT
HETATM    1  C   UNK N   1      29.707  20.576  -7.015  0.00  0.00     0.169 C 
HETATM    2  N   UNK N   1      29.522  21.758  -6.207  0.00  0.00    -0.217 N 
HETATM    3  C   UNK N   1      28.321  22.528  -6.387  0.00  0.00     0.680 A 
HETATM    4  N   UNK N   1      28.131  23.678  -5.698  0.00  0.00    -0.189 N 
ATOM      5  HN  UNK N   1      28.857  23.988  -5.053  1.00  0.00     0.184 HD
HETATM    6  C   UNK N   1      27.016  24.432  -5.831  0.00  0.00     0.079 A 
HETATM    7  C   UNK N   1      26.018  24.018  -6.716  0.00  0.00     0.050 A 
HETATM    8  C   UNK N   1      26.218  22.836  -7.435  0.00  0.00     0.108 A 
HETATM    9  N   UNK N   1      27.359  22.114  -7.262  0.00  0.00    -0.202 N 
ATOM     10  HN  UNK N   1      27.497  21.255  -7.792  1.00  0.00     0.183 HD
ENDROOT
BRANCH   6  11
HETATM   11  C   UNK N   1      26.911  25.660  -5.020  0.00  0.00     0.083 A 
HETATM   12  N   UNK N   1      27.203  26.919  -5.390  0.00  0.00    -0.305 N 
HETATM   13  C   UNK N   1      26.946  27.684  -4.317  0.00  0.00     0.111 A 
HETATM   14  C   UNK N   1      27.663  27.425  -6.564  0.00  0.00     0.099 A 
HETATM   15  C   UNK N   1      27.138  29.060  -4.342  0.00  0.00     0.049 A 
HETATM   16  N   UNK N   1      26.499  26.970  -3.267  0.00  0.00    -0.350 N 
HETATM   17  C   UNK N   1      27.612  29.626  -5.534  0.00  0.00     0.005 A 
HETATM   18  C   UNK N   1      27.876  28.808  -6.652  0.00  0.00     0.018 A 
HETATM   19  C   UNK N   1      26.472  25.687  -3.701  0.00  0.00     0.122 A 
ATOM     20  HN  UNK N   1      26.237  27.318  -2.346  1.00  0.00     0.166 HD
ENDBRANCH   6  11
BRANCH   2  21
HETATM   21  C   UNK N   1      30.578  22.082  -5.239  0.00  0.00     0.101 C 
HETATM   22  C   UNK N   1      30.410  21.244  -3.967  0.00  0.00     0.026 C 
HETATM   23  C   UNK N   1      31.437  21.649  -2.911  0.00  0.00     0.002 C 
HETATM   24  C   UNK N   1      32.849  21.473  -3.454  0.00  0.00     0.000 C 
HETATM   25  C   UNK N   1      33.039  22.355  -4.681  0.00  0.00     0.002 C 
HETATM   26  C   UNK N   1      32.025  21.977  -5.754  0.00  0.00     0.026 C 
ENDBRANCH   2  21
TORSDOF 2
ENDMDL
MODEL 9
REMARK VINA RESULT:      -6.4     16.188     20.117
REMARK  2 active torsions:
REMARK  status: ('A' for Active; 'I' for Inactive)
REMARK       I    between atoms: N_2  and  C_3 
REMARK    1  A    between atoms: N_2  and  C_21 
REMARK    2  A    between atoms: C_6  and  C_7 
ROOT
HETATM    1  C   UNK N   1      25.737  26.307  -7.578  0.00  0.00     0.169 C 
HETATM    2  N   UNK N   1      26.664  25.989  -6.518  0.00  0.00    -0.217 N 
HETATM    3  C   UNK N   1      27.309  24.705  -6.537  0.00  0.00     0.680 A 
HETATM    4  N   UNK N   1      28.139  24.336  -5.531  0.00  0.00    -0.189 N 
ATOM      5  HN  UNK N   1      28.293  24.986  -4.762  1.00  0.00     0.184 HD
HETATM    6  C   UNK N   1      28.771  23.140  -5.509  0.00  0.00     0.079 A 
HETATM    7  C   UNK N   1      28.561  22.241  -6.556  0.00  0.00     0.050 A 
HETATM    8  C   UNK N   1      27.697  22.617  -7.590  0.00  0.00     0.108 A 
HETATM    9  N   UNK N   1      27.088  23.834  -7.563  0.00  0.00    -0.202 N 
ATOM     10  HN  UNK N   1      26.458  24.098  -8.320  1.00  0.00     0.183 HD
ENDROOT
BRANCH   6  11
HETATM   11  C   UNK N   1      29.662  22.851  -4.369  0.00  0.00     0.083 A 
HETATM   12  N   UNK N   1      30.821  22.172  -4.381  0.00  0.00    -0.305 N 
HETATM   13  C   UNK N   1      31.260  22.175  -3.112  0.00  0.00     0.111 A 
HETATM   14  C   UNK N   1      31.498  21.571  -5.394  0.00  0.00     0.099 A 
HETATM   15  C   UNK N   1      32.450  21.555  -2.753  0.00  0.00     0.049 A 
HETATM   16  N   UNK N   1      30.430  22.830  -2.279  0.00  0.00    -0.350 N 
HETATM   17  C   UNK N   1      33.182  20.921  -3.767  0.00  0.00     0.005 A 
HETATM   18  C   UNK N   1      32.708  20.927  -5.094  0.00  0.00     0.018 A 
HETATM   19  C   UNK N   1      29.415  23.263  -3.064  0.00  0.00     0.122 A 
ATOM     20  HN  UNK N   1      30.542  22.970  -1.276  1.00  0.00     0.166 HD
ENDBRANCH   6  11
BRANCH   2  21
HETATM   21  C   UNK N   1      26.895  27.019  -5.497  0.00  0.00     0.101 C 
HETATM   22  C   UNK N   1      27.311  28.339  -6.157  0.00  0.00     0.026 C 
HETATM   23  C   UNK N   1      27.660  29.387  -5.101  0.00  0.00     0.002 C 
HETATM   24  C   UNK N   1      26.466  29.629  -4.185  0.00  0.00     0.000 C 
HETATM   25  C   UNK N   1      26.092  28.332  -3.479  0.00  0.00     0.002 C 
HETATM   26  C   UNK N   1      25.742  27.263  -4.508  0.00  0.00     0.026 C 
ENDBRANCH   2  21
TORSDOF 2
ENDMDL
