MODEL 1
REMARK VINA RESULT:      -7.1      0.000      0.000
REMARK  7 active torsions:
REMARK  status: ('A' for Active; 'I' for Inactive)
REMARK       I    between atoms: N_1  and  C_6 
REMARK    1  A    between atoms: C_2  and  C_23 
REMARK    2  A    between atoms: C_6  and  C_7 
REMARK    3  A    between atoms: C_7  and  N_9 
REMARK    4  A    between atoms: C_7  and  C_10 
REMARK    5  A    between atoms: C_10  and  C_14 
REMARK    6  A    between atoms: C_11  and  C_20 
REMARK    7  A    between atoms: C_23  and  N_24 
ROOT
HETATM    1  C   UNK N   1      20.007  16.503   3.759  0.00  0.00     0.171 C 
ENDROOT
BRANCH   1   2
HETATM    2  C   UNK N   1      19.926  17.910   3.206  0.00  0.00     0.242 C 
HETATM    3  N   UNK N   1      21.038  18.708   3.156  0.00  0.00    -0.344 N 
HETATM    4  C   UNK N   1      21.020  20.060   2.644  0.00  0.00     0.104 C 
HETATM    5  C   UNK N   1      22.315  18.288   3.664  0.00  0.00     0.126 C 
HETATM    6  C   UNK N   1      22.355  20.637   3.078  0.00  0.00     0.028 C 
HETATM    7  C   UNK N   1      23.256  19.440   3.361  0.00  0.00     0.022 C 
HETATM    8  O   UNK N   1      18.846  18.345   2.838  0.00  0.00    -0.271 OA
BRANCH   4   9
HETATM    9  C   UNK N   1      20.961  20.088   1.113  0.00  0.00     0.136 C 
BRANCH   9  10
HETATM   10  N   UNK N   1      20.261  21.257   0.613  0.00  0.00    -0.428 N 
HETATM   11  H   UNK N   1      20.671  22.184   0.723  0.00  0.00     0.149 HD
HETATM   12  H   UNK N   1      19.357  21.152   0.152  0.00  0.00     0.149 HD
ENDBRANCH   9  10
ENDBRANCH   4   9
ENDBRANCH   1   2
BRANCH   1  13
HETATM   13  N   UNK N   1      19.586  15.550   2.742  0.00  0.00    -0.418 N 
HETATM   14  H   UNK N   1      19.559  14.907   1.950  0.00  0.00     0.150 HD
HETATM   15  H   UNK N   1      18.613  15.458   3.031  0.00  0.00     0.150 HD
ENDBRANCH   1  13
BRANCH   1  16
HETATM   16  C   UNK N   1      19.135  16.336   5.015  0.00  0.00     0.072 C 
BRANCH  16  17
HETATM   17  C   UNK N   1      19.861  15.613   6.100  0.00  0.00    -0.056 A 
HETATM   18  C   UNK N   1      20.227  16.278   7.275  0.00  0.00     0.008 A 
HETATM   19  C   UNK N   1      20.861  15.576   8.306  0.00  0.00     0.013 A 
HETATM   20  C   UNK N   1      21.124  14.201   8.171  0.00  0.00    -0.026 A 
HETATM   21  C   UNK N   1      20.776  13.553   6.977  0.00  0.00     0.013 A 
HETATM   22  C   UNK N   1      20.158  14.255   5.948  0.00  0.00     0.008 A 
BRANCH  20  23
HETATM   23  C   UNK N   1      21.701  13.422   9.289  0.00  0.00    -0.026 A 
HETATM   24  C   UNK N   1      23.085  13.207   9.377  0.00  0.00     0.012 A 
HETATM   25  C   UNK N   1      23.624  12.515  10.465  0.00  0.00     0.001 A 
HETATM   26  C   UNK N   1      22.786  12.043  11.480  0.00  0.00     0.000 A 
HETATM   27  C   UNK N   1      21.408  12.253  11.402  0.00  0.00     0.001 A 
HETATM   28  C   UNK N   1      20.867  12.936  10.311  0.00  0.00     0.012 A 
ENDBRANCH  20  23
ENDBRANCH  16  17
ENDBRANCH   1  16
TORSDOF 7
ENDMDL
MODEL 2
REMARK VINA RESULT:      -7.1     13.093     15.549
REMARK  7 active torsions:
REMARK  status: ('A' for Active; 'I' for Inactive)
REMARK       I    between atoms: N_1  and  C_6 
REMARK    1  A    between atoms: C_2  and  C_23 
REMARK    2  A    between atoms: C_6  and  C_7 
REMARK    3  A    between atoms: C_7  and  N_9 
REMARK    4  A    between atoms: C_7  and  C_10 
REMARK    5  A    between atoms: C_10  and  C_14 
REMARK    6  A    between atoms: C_11  and  C_20 
REMARK    7  A    between atoms: C_23  and  N_24 
ROOT
HETATM    1  C   UNK N   1      34.532  14.271  10.118  0.00  0.00     0.171 C 
ENDROOT
BRANCH   1   2
HETATM    2  C   UNK N   1      34.862  15.476   9.262  0.00  0.00     0.242 C 
HETATM    3  N   UNK N   1      34.174  15.722   8.103  0.00  0.00    -0.344 N 
HETATM    4  C   UNK N   1      34.448  16.853   7.246  0.00  0.00     0.104 C 
HETATM    5  C   UNK N   1      33.152  14.841   7.609  0.00  0.00     0.126 C 
HETATM    6  C   UNK N   1      33.690  16.538   5.969  0.00  0.00     0.028 C 
HETATM    7  C   UNK N   1      32.630  15.514   6.353  0.00  0.00     0.022 C 
HETATM    8  O   UNK N   1      35.778  16.211   9.596  0.00  0.00    -0.271 OA
BRANCH   4   9
HETATM    9  C   UNK N   1      33.889  18.156   7.826  0.00  0.00     0.136 C 
BRANCH   9  10
HETATM   10  N   UNK N   1      34.914  18.946   8.485  0.00  0.00    -0.428 N 
HETATM   11  H   UNK N   1      34.880  19.964   8.443  0.00  0.00     0.149 HD
HETATM   12  H   UNK N   1      35.669  18.481   8.990  0.00  0.00     0.149 HD
ENDBRANCH   9  10
ENDBRANCH   4   9
ENDBRANCH   1   2
BRANCH   1  13
HETATM   13  N   UNK N   1      33.624  14.660  11.186  0.00  0.00    -0.418 N 
HETATM   14  H   UNK N   1      32.795  14.885  11.736  0.00  0.00     0.150 HD
HETATM   15  H   UNK N   1      34.323  14.828  11.909  0.00  0.00     0.150 HD
ENDBRANCH   1  13
BRANCH   1  16
HETATM   16  C   UNK N   1      35.799  13.640  10.721  0.00  0.00     0.072 C 
BRANCH  16  17
HETATM   17  C   UNK N   1      35.644  13.377  12.182  0.00  0.00    -0.056 A 
HETATM   18  C   UNK N   1      34.967  12.239  12.630  0.00  0.00     0.008 A 
HETATM   19  C   UNK N   1      34.875  11.977  14.002  0.00  0.00     0.013 A 
HETATM   20  C   UNK N   1      35.467  12.849  14.933  0.00  0.00    -0.026 A 
HETATM   21  C   UNK N   1      36.119  14.001  14.470  0.00  0.00     0.013 A 
HETATM   22  C   UNK N   1      36.199  14.267  13.107  0.00  0.00     0.008 A 
BRANCH  20  23
HETATM   23  C   UNK N   1      35.465  12.536  16.379  0.00  0.00    -0.026 A 
HETATM   24  C   UNK N   1      35.219  13.537  17.331  0.00  0.00     0.012 A 
HETATM   25  C   UNK N   1      35.168  13.218  18.692  0.00  0.00     0.001 A 
HETATM   26  C   UNK N   1      35.349  11.897  19.110  0.00  0.00     0.000 A 
HETATM   27  C   UNK N   1      35.594  10.894  18.170  0.00  0.00     0.001 A 
HETATM   28  C   UNK N   1      35.654  11.212  16.811  0.00  0.00     0.012 A 
ENDBRANCH  20  23
ENDBRANCH  16  17
ENDBRANCH   1  16
TORSDOF 7
ENDMDL
MODEL 3
REMARK VINA RESULT:      -6.9     13.923     16.550
REMARK  7 active torsions:
REMARK  status: ('A' for Active; 'I' for Inactive)
REMARK       I    between atoms: N_1  and  C_6 
REMARK    1  A    between atoms: C_2  and  C_23 
REMARK    2  A    between atoms: C_6  and  C_7 
REMARK    3  A    between atoms: C_7  and  N_9 
REMARK    4  A    between atoms: C_7  and  C_10 
REMARK    5  A    between atoms: C_10  and  C_14 
REMARK    6  A    between atoms: C_11  and  C_20 
REMARK    7  A    between atoms: C_23  and  N_24 
ROOT
HETATM    1  C   UNK N   1      37.043  14.073  10.391  0.00  0.00     0.171 C 
ENDROOT
BRANCH   1   2
HETATM    2  C   UNK N   1      36.118  14.057   9.192  0.00  0.00     0.242 C 
HETATM    3  N   UNK N   1      35.290  15.116   8.931  0.00  0.00    -0.344 N 
HETATM    4  C   UNK N   1      34.385  15.154   7.805  0.00  0.00     0.104 C 
HETATM    5  C   UNK N   1      35.209  16.265   9.791  0.00  0.00     0.126 C 
HETATM    6  C   UNK N   1      33.476  16.333   8.103  0.00  0.00     0.028 C 
HETATM    7  C   UNK N   1      34.228  17.198   9.106  0.00  0.00     0.022 C 
HETATM    8  O   UNK N   1      36.089  13.068   8.476  0.00  0.00    -0.271 OA
BRANCH   4   9
HETATM    9  C   UNK N   1      35.121  15.437   6.492  0.00  0.00     0.136 C 
BRANCH   9  10
HETATM   10  N   UNK N   1      34.284  16.136   5.533  0.00  0.00    -0.428 N 
HETATM   11  H   UNK N   1      33.454  16.637   5.850  0.00  0.00     0.149 HD
HETATM   12  H   UNK N   1      34.525  16.125   4.542  0.00  0.00     0.149 HD
ENDBRANCH   9  10
ENDBRANCH   4   9
ENDBRANCH   1   2
BRANCH   1  13
HETATM   13  N   UNK N   1      38.346  14.589  10.001  0.00  0.00    -0.418 N 
HETATM   14  H   UNK N   1      39.173  14.870   9.472  0.00  0.00     0.150 HD
HETATM   15  H   UNK N   1      38.662  14.885  10.924  0.00  0.00     0.150 HD
ENDBRANCH   1  13
BRANCH   1  16
HETATM   16  C   UNK N   1      37.205  12.670  11.001  0.00  0.00     0.072 C 
BRANCH  16  17
HETATM   17  C   UNK N   1      36.891  12.662  12.461  0.00  0.00    -0.056 A 
HETATM   18  C   UNK N   1      35.990  13.587  12.997  0.00  0.00     0.008 A 
HETATM   19  C   UNK N   1      35.664  13.535  14.357  0.00  0.00     0.013 A 
HETATM   20  C   UNK N   1      36.233  12.551  15.186  0.00  0.00    -0.026 A 
HETATM   21  C   UNK N   1      37.154  11.647  14.640  0.00  0.00     0.013 A 
HETATM   22  C   UNK N   1      37.487  11.708  13.291  0.00  0.00     0.008 A 
BRANCH  20  23
HETATM   23  C   UNK N   1      35.824  12.418  16.603  0.00  0.00    -0.026 A 
HETATM   24  C   UNK N   1      35.842  11.169  17.242  0.00  0.00     0.012 A 
HETATM   25  C   UNK N   1      35.504  11.065  18.595  0.00  0.00     0.001 A 
HETATM   26  C   UNK N   1      35.159  12.209  19.321  0.00  0.00     0.000 A 
HETATM   27  C   UNK N   1      35.140  13.455  18.694  0.00  0.00     0.001 A 
HETATM   28  C   UNK N   1      35.468  13.560  17.341  0.00  0.00     0.012 A 
ENDBRANCH  20  23
ENDBRANCH  16  17
ENDBRANCH   1  16
TORSDOF 7
ENDMDL
MODEL 4
REMARK VINA RESULT:      -6.9     13.182     16.831
REMARK  7 active torsions:
REMARK  status: ('A' for Active; 'I' for Inactive)
REMARK       I    between atoms: N_1  and  C_6 
REMARK    1  A    between atoms: C_2  and  C_23 
REMARK    2  A    between atoms: C_6  and  C_7 
REMARK    3  A    between atoms: C_7  and  N_9 
REMARK    4  A    between atoms: C_7  and  C_10 
REMARK    5  A    between atoms: C_10  and  C_14 
REMARK    6  A    between atoms: C_11  and  C_20 
REMARK    7  A    between atoms: C_23  and  N_24 
ROOT
HETATM    1  C   UNK N   1      36.064  13.945  12.069  0.00  0.00     0.171 C 
ENDROOT
BRANCH   1   2
HETATM    2  C   UNK N   1      35.743  13.461  13.468  0.00  0.00     0.242 C 
HETATM    3  N   UNK N   1      35.040  12.302  13.665  0.00  0.00    -0.344 N 
HETATM    4  C   UNK N   1      34.702  11.794  14.976  0.00  0.00     0.104 C 
HETATM    5  C   UNK N   1      34.528  11.514  12.578  0.00  0.00     0.126 C 
HETATM    6  C   UNK N   1      33.681  10.707  14.697  0.00  0.00     0.028 C 
HETATM    7  C   UNK N   1      33.876  10.313  13.238  0.00  0.00     0.022 C 
HETATM    8  O   UNK N   1      36.085  14.138  14.425  0.00  0.00    -0.271 OA
BRANCH   4   9
HETATM    9  C   UNK N   1      35.910  11.152  15.666  0.00  0.00     0.136 C 
BRANCH   9  10
HETATM   10  N   UNK N   1      35.813  11.221  17.113  0.00  0.00    -0.428 N 
HETATM   11  H   UNK N   1      35.167  10.609  17.612  0.00  0.00     0.149 HD
HETATM   12  H   UNK N   1      36.392  11.881  17.632  0.00  0.00     0.149 HD
ENDBRANCH   9  10
ENDBRANCH   4   9
ENDBRANCH   1   2
BRANCH   1  13
HETATM   13  N   UNK N   1      37.415  13.542  11.707  0.00  0.00    -0.418 N 
HETATM   14  H   UNK N   1      38.250  13.003  11.477  0.00  0.00     0.150 HD
HETATM   15  H   UNK N   1      37.819  14.474  11.617  0.00  0.00     0.150 HD
ENDBRANCH   1  13
BRANCH   1  16
HETATM   16  C   UNK N   1      35.932  15.473  11.954  0.00  0.00     0.072 C 
BRANCH  16  17
HETATM   17  C   UNK N   1      35.124  15.870  10.763  0.00  0.00    -0.056 A 
HETATM   18  C   UNK N   1      35.302  17.125  10.172  0.00  0.00     0.008 A 
HETATM   19  C   UNK N   1      34.576  17.465   9.024  0.00  0.00     0.013 A 
HETATM   20  C   UNK N   1      33.674  16.546   8.457  0.00  0.00    -0.026 A 
HETATM   21  C   UNK N   1      33.487  15.302   9.076  0.00  0.00     0.013 A 
HETATM   22  C   UNK N   1      34.199  14.971  10.224  0.00  0.00     0.008 A 
BRANCH  20  23
HETATM   23  C   UNK N   1      32.974  16.849   7.189  0.00  0.00    -0.026 A 
HETATM   24  C   UNK N   1      33.686  17.285   6.060  0.00  0.00     0.012 A 
HETATM   25  C   UNK N   1      33.020  17.517   4.853  0.00  0.00     0.001 A 
HETATM   26  C   UNK N   1      31.642  17.304   4.761  0.00  0.00     0.000 A 
HETATM   27  C   UNK N   1      30.926  16.870   5.877  0.00  0.00     0.001 A 
HETATM   28  C   UNK N   1      31.587  16.646   7.086  0.00  0.00     0.012 A 
ENDBRANCH  20  23
ENDBRANCH  16  17
ENDBRANCH   1  16
TORSDOF 7
ENDMDL
MODEL 5
REMARK VINA RESULT:      -6.9     14.240     15.768
REMARK  7 active torsions:
REMARK  status: ('A' for Active; 'I' for Inactive)
REMARK       I    between atoms: N_1  and  C_6 
REMARK    1  A    between atoms: C_2  and  C_23 
REMARK    2  A    between atoms: C_6  and  C_7 
REMARK    3  A    between atoms: C_7  and  N_9 
REMARK    4  A    between atoms: C_7  and  C_10 
REMARK    5  A    between atoms: C_10  and  C_14 
REMARK    6  A    between atoms: C_11  and  C_20 
REMARK    7  A    between atoms: C_23  and  N_24 
ROOT
HETATM    1  C   UNK N   1      26.624  25.900  -4.660  0.00  0.00     0.171 C 
ENDROOT
BRANCH   1   2
HETATM    2  C   UNK N   1      26.617  27.215  -3.908  0.00  0.00     0.242 C 
HETATM    3  N   UNK N   1      27.788  27.871  -3.633  0.00  0.00    -0.344 N 
HETATM    4  C   UNK N   1      27.842  29.125  -2.916  0.00  0.00     0.104 C 
HETATM    5  C   UNK N   1      29.075  27.338  -3.986  0.00  0.00     0.126 C 
HETATM    6  C   UNK N   1      29.312  29.292  -2.577  0.00  0.00     0.028 C 
HETATM    7  C   UNK N   1      30.070  28.397  -3.550  0.00  0.00     0.022 C 
HETATM    8  O   UNK N   1      25.555  27.670  -3.514  0.00  0.00    -0.271 OA
BRANCH   4   9
HETATM    9  C   UNK N   1      27.417  30.304  -3.798  0.00  0.00     0.136 C 
BRANCH   9  10
HETATM   10  N   UNK N   1      26.052  30.721  -3.533  0.00  0.00    -0.428 N 
HETATM   11  H   UNK N   1      25.460  30.169  -2.913  0.00  0.00     0.149 HD
HETATM   12  H   UNK N   1      25.684  31.568  -3.968  0.00  0.00     0.149 HD
ENDBRANCH   9  10
ENDBRANCH   4   9
ENDBRANCH   1   2
BRANCH   1  13
HETATM   13  N   UNK N   1      25.483  25.843  -5.561  0.00  0.00    -0.418 N 
HETATM   14  H   UNK N   1      24.726  26.080  -6.202  0.00  0.00     0.150 HD
HETATM   15  H   UNK N   1      25.329  24.835  -5.528  0.00  0.00     0.150 HD
ENDBRANCH   1  13
BRANCH   1  16
HETATM   16  C   UNK N   1      26.586  24.699  -3.700  0.00  0.00     0.072 C 
BRANCH  16  17
HETATM   17  C   UNK N   1      27.867  23.933  -3.721  0.00  0.00    -0.056 A 
HETATM   18  C   UNK N   1      28.460  23.510  -2.526  0.00  0.00     0.008 A 
HETATM   19  C   UNK N   1      29.633  22.748  -2.562  0.00  0.00     0.013 A 
HETATM   20  C   UNK N   1      30.214  22.397  -3.794  0.00  0.00    -0.026 A 
HETATM   21  C   UNK N   1      29.624  22.850  -4.981  0.00  0.00     0.013 A 
HETATM   22  C   UNK N   1      28.465  23.619  -4.944  0.00  0.00     0.008 A 
BRANCH  20  23
HETATM   23  C   UNK N   1      31.397  21.509  -3.853  0.00  0.00    -0.026 A 
HETATM   24  C   UNK N   1      31.494  20.505  -4.830  0.00  0.00     0.012 A 
HETATM   25  C   UNK N   1      32.639  19.707  -4.908  0.00  0.00     0.001 A 
HETATM   26  C   UNK N   1      33.700  19.914  -4.022  0.00  0.00     0.000 A 
HETATM   27  C   UNK N   1      33.612  20.909  -3.048  0.00  0.00     0.001 A 
HETATM   28  C   UNK N   1      32.466  21.702  -2.962  0.00  0.00     0.012 A 
ENDBRANCH  20  23
ENDBRANCH  16  17
ENDBRANCH   1  16
TORSDOF 7
ENDMDL
MODEL 6
REMARK VINA RESULT:      -6.9     12.564     15.984
REMARK  7 active torsions:
REMARK  status: ('A' for Active; 'I' for Inactive)
REMARK       I    between atoms: N_1  and  C_6 
REMARK    1  A    between atoms: C_2  and  C_23 
REMARK    2  A    between atoms: C_6  and  C_7 
REMARK    3  A    between atoms: C_7  and  N_9 
REMARK    4  A    between atoms: C_7  and  C_10 
REMARK    5  A    between atoms: C_10  and  C_14 
REMARK    6  A    between atoms: C_11  and  C_20 
REMARK    7  A    between atoms: C_23  and  N_24 
ROOT
HETATM    1  C   UNK N   1      36.086  14.957  10.690  0.00  0.00     0.171 C 
ENDROOT
BRANCH   1   2
HETATM    2  C   UNK N   1      35.946  14.491  12.124  0.00  0.00     0.242 C 
HETATM    3  N   UNK N   1      35.462  13.241  12.410  0.00  0.00    -0.344 N 
HETATM    4  C   UNK N   1      35.303  12.744  13.758  0.00  0.00     0.104 C 
HETATM    5  C   UNK N   1      35.016  12.333  11.390  0.00  0.00     0.126 C 
HETATM    6  C   UNK N   1      34.461  11.492  13.592  0.00  0.00     0.028 C 
HETATM    7  C   UNK N   1      34.620  11.071  12.136  0.00  0.00     0.022 C 
HETATM    8  O   UNK N   1      36.235  15.256  13.031  0.00  0.00    -0.271 OA
BRANCH   4   9
HETATM    9  C   UNK N   1      36.644  12.340  14.378  0.00  0.00     0.136 C 
BRANCH   9  10
HETATM   10  N   UNK N   1      37.252  13.428  15.124  0.00  0.00    -0.428 N 
HETATM   11  H   UNK N   1      38.264  13.460  15.247  0.00  0.00     0.149 HD
HETATM   12  H   UNK N   1      36.666  14.160  15.526  0.00  0.00     0.149 HD
ENDBRANCH   9  10
ENDBRANCH   4   9
ENDBRANCH   1   2
BRANCH   1  13
HETATM   13  N   UNK N   1      37.468  14.810  10.257  0.00  0.00    -0.418 N 
HETATM   14  H   UNK N   1      38.360  14.436   9.933  0.00  0.00     0.150 HD
HETATM   15  H   UNK N   1      37.742  15.789  10.329  0.00  0.00     0.150 HD
ENDBRANCH   1  13
BRANCH   1  16
HETATM   16  C   UNK N   1      35.647  16.423  10.526  0.00  0.00     0.072 C 
BRANCH  16  17
HETATM   17  C   UNK N   1      34.550  16.563   9.524  0.00  0.00    -0.056 A 
HETATM   18  C   UNK N   1      33.583  15.561   9.387  0.00  0.00     0.008 A 
HETATM   19  C   UNK N   1      32.530  15.728   8.480  0.00  0.00     0.013 A 
HETATM   20  C   UNK N   1      32.434  16.903   7.713  0.00  0.00    -0.026 A 
HETATM   21  C   UNK N   1      33.425  17.886   7.841  0.00  0.00     0.013 A 
HETATM   22  C   UNK N   1      34.478  17.713   8.733  0.00  0.00     0.008 A 
BRANCH  20  23
HETATM   23  C   UNK N   1      31.274  17.140   6.824  0.00  0.00    -0.026 A 
HETATM   24  C   UNK N   1      29.999  17.386   7.356  0.00  0.00     0.012 A 
HETATM   25  C   UNK N   1      28.922  17.660   6.508  0.00  0.00     0.001 A 
HETATM   26  C   UNK N   1      29.113  17.705   5.124  0.00  0.00     0.000 A 
HETATM   27  C   UNK N   1      30.378  17.463   4.586  0.00  0.00     0.001 A 
HETATM   28  C   UNK N   1      31.453  17.180   5.431  0.00  0.00     0.012 A 
ENDBRANCH  20  23
ENDBRANCH  16  17
ENDBRANCH   1  16
TORSDOF 7
ENDMDL
MODEL 7
REMARK VINA RESULT:      -6.8     18.335     20.890
REMARK  7 active torsions:
REMARK  status: ('A' for Active; 'I' for Inactive)
REMARK       I    between atoms: N_1  and  C_6 
REMARK    1  A    between atoms: C_2  and  C_23 
REMARK    2  A    between atoms: C_6  and  C_7 
REMARK    3  A    between atoms: C_7  and  N_9 
REMARK    4  A    between atoms: C_7  and  C_10 
REMARK    5  A    between atoms: C_10  and  C_14 
REMARK    6  A    between atoms: C_11  and  C_20 
REMARK    7  A    between atoms: C_23  and  N_24 
ROOT
HETATM    1  C   UNK N   1      35.015  10.665  20.405  0.00  0.00     0.171 C 
ENDROOT
BRANCH   1   2
HETATM    2  C   UNK N   1      33.737  10.273  21.116  0.00  0.00     0.242 C 
HETATM    3  N   UNK N   1      33.036   9.160  20.735  0.00  0.00    -0.344 N 
HETATM    4  C   UNK N   1      31.809   8.740  21.374  0.00  0.00     0.104 C 
HETATM    5  C   UNK N   1      33.433   8.339  19.625  0.00  0.00     0.126 C 
HETATM    6  C   UNK N   1      31.247   7.687  20.436  0.00  0.00     0.028 C 
HETATM    7  C   UNK N   1      32.422   7.207  19.594  0.00  0.00     0.022 C 
HETATM    8  O   UNK N   1      33.313  10.984  22.014  0.00  0.00    -0.271 OA
BRANCH   4   9
HETATM    9  C   UNK N   1      32.071   8.082  22.732  0.00  0.00     0.136 C 
BRANCH   9  10
HETATM   10  N   UNK N   1      31.911   9.015  23.833  0.00  0.00    -0.428 N 
HETATM   11  H   UNK N   1      32.099   8.713  24.789  0.00  0.00     0.149 HD
HETATM   12  H   UNK N   1      31.611   9.973  23.650  0.00  0.00     0.149 HD
ENDBRANCH   9  10
ENDBRANCH   4   9
ENDBRANCH   1   2
BRANCH   1  13
HETATM   13  N   UNK N   1      36.155  10.433  21.279  0.00  0.00    -0.418 N 
HETATM   14  H   UNK N   1      37.097  10.301  21.651  0.00  0.00     0.150 HD
HETATM   15  H   UNK N   1      35.642  10.325  22.154  0.00  0.00     0.150 HD
ENDBRANCH   1  13
BRANCH   1  16
HETATM   16  C   UNK N   1      34.991  12.140  19.968  0.00  0.00     0.072 C 
BRANCH  16  17
HETATM   17  C   UNK N   1      35.294  12.290  18.514  0.00  0.00    -0.056 A 
HETATM   18  C   UNK N   1      35.258  13.551  17.909  0.00  0.00     0.008 A 
HETATM   19  C   UNK N   1      35.594  13.686  16.557  0.00  0.00     0.013 A 
HETATM   20  C   UNK N   1      35.977  12.560  15.805  0.00  0.00    -0.026 A 
HETATM   21  C   UNK N   1      35.982  11.299  16.418  0.00  0.00     0.013 A 
HETATM   22  C   UNK N   1      35.635  11.165  17.758  0.00  0.00     0.008 A 
BRANCH  20  23
HETATM   23  C   UNK N   1      36.432  12.698  14.404  0.00  0.00    -0.026 A 
HETATM   24  C   UNK N   1      37.206  11.697  13.797  0.00  0.00     0.012 A 
HETATM   25  C   UNK N   1      37.585  11.815  12.457  0.00  0.00     0.001 A 
HETATM   26  C   UNK N   1      37.184  12.926  11.709  0.00  0.00     0.000 A 
HETATM   27  C   UNK N   1      36.413  13.926  12.304  0.00  0.00     0.001 A 
HETATM   28  C   UNK N   1      36.041  13.815  13.645  0.00  0.00     0.012 A 
ENDBRANCH  20  23
ENDBRANCH  16  17
ENDBRANCH   1  16
TORSDOF 7
ENDMDL
MODEL 8
REMARK VINA RESULT:      -6.4     13.159     16.726
REMARK  7 active torsions:
REMARK  status: ('A' for Active; 'I' for Inactive)
REMARK       I    between atoms: N_1  and  C_6 
REMARK    1  A    between atoms: C_2  and  C_23 
REMARK    2  A    between atoms: C_6  and  C_7 
REMARK    3  A    between atoms: C_7  and  N_9 
REMARK    4  A    between atoms: C_7  and  C_10 
REMARK    5  A    between atoms: C_10  and  C_14 
REMARK    6  A    between atoms: C_11  and  C_20 
REMARK    7  A    between atoms: C_23  and  N_24 
ROOT
HETATM    1  C   UNK N   1      34.727  14.943  11.616  0.00  0.00     0.171 C 
ENDROOT
BRANCH   1   2
HETATM    2  C   UNK N   1      35.162  13.517  11.882  0.00  0.00     0.242 C 
HETATM    3  N   UNK N   1      35.832  13.192  13.032  0.00  0.00    -0.344 N 
HETATM    4  C   UNK N   1      36.274  11.850  13.337  0.00  0.00     0.104 C 
HETATM    5  C   UNK N   1      36.205  14.172  14.013  0.00  0.00     0.126 C 
HETATM    6  C   UNK N   1      37.219  12.032  14.511  0.00  0.00     0.028 C 
HETATM    7  C   UNK N   1      36.868  13.381  15.125  0.00  0.00     0.022 C 
HETATM    8  O   UNK N   1      34.941  12.660  11.040  0.00  0.00    -0.271 OA
BRANCH   4   9
HETATM    9  C   UNK N   1      35.114  10.957  13.789  0.00  0.00     0.136 C 
BRANCH   9  10
HETATM   10  N   UNK N   1      35.118   9.671  13.116  0.00  0.00    -0.428 N 
HETATM   11  H   UNK N   1      34.428   8.962  13.365  0.00  0.00     0.149 HD
HETATM   12  H   UNK N   1      35.812   9.475  12.394  0.00  0.00     0.149 HD
ENDBRANCH   9  10
ENDBRANCH   4   9
ENDBRANCH   1   2
BRANCH   1  13
HETATM   13  N   UNK N   1      33.452  14.946  10.915  0.00  0.00    -0.418 N 
HETATM   14  H   UNK N   1      32.530  15.196  10.554  0.00  0.00     0.150 HD
HETATM   15  H   UNK N   1      33.551  14.051  10.438  0.00  0.00     0.150 HD
ENDBRANCH   1  13
BRANCH   1  16
HETATM   16  C   UNK N   1      35.773  15.709  10.787  0.00  0.00     0.072 C 
BRANCH  16  17
HETATM   17  C   UNK N   1      35.322  15.913   9.379  0.00  0.00    -0.056 A 
HETATM   18  C   UNK N   1      35.527  14.919   8.418  0.00  0.00     0.008 A 
HETATM   19  C   UNK N   1      35.053  15.101   7.114  0.00  0.00     0.013 A 
HETATM   20  C   UNK N   1      34.362  16.277   6.768  0.00  0.00    -0.026 A 
HETATM   21  C   UNK N   1      34.187  17.276   7.735  0.00  0.00     0.013 A 
HETATM   22  C   UNK N   1      34.671  17.099   9.027  0.00  0.00     0.008 A 
BRANCH  20  23
HETATM   23  C   UNK N   1      33.766  16.443   5.423  0.00  0.00    -0.026 A 
HETATM   24  C   UNK N   1      33.927  15.456   4.438  0.00  0.00     0.012 A 
HETATM   25  C   UNK N   1      33.315  15.600   3.189  0.00  0.00     0.001 A 
HETATM   26  C   UNK N   1      32.529  16.724   2.919  0.00  0.00     0.000 A 
HETATM   27  C   UNK N   1      32.362  17.710   3.893  0.00  0.00     0.001 A 
HETATM   28  C   UNK N   1      32.979  17.572   5.138  0.00  0.00     0.012 A 
ENDBRANCH  20  23
ENDBRANCH  16  17
ENDBRANCH   1  16
TORSDOF 7
ENDMDL
MODEL 9
REMARK VINA RESULT:      -6.4     11.934     14.013
REMARK  7 active torsions:
REMARK  status: ('A' for Active; 'I' for Inactive)
REMARK       I    between atoms: N_1  and  C_6 
REMARK    1  A    between atoms: C_2  and  C_23 
REMARK    2  A    between atoms: C_6  and  C_7 
REMARK    3  A    between atoms: C_7  and  N_9 
REMARK    4  A    between atoms: C_7  and  C_10 
REMARK    5  A    between atoms: C_10  and  C_14 
REMARK    6  A    between atoms: C_11  and  C_20 
REMARK    7  A    between atoms: C_23  and  N_24 
ROOT
HETATM    1  C   UNK N   1      33.460  16.627   8.400  0.00  0.00     0.171 C 
ENDROOT
BRANCH   1   2
HETATM    2  C   UNK N   1      33.649  16.962   6.936  0.00  0.00     0.242 C 
HETATM    3  N   UNK N   1      33.152  16.140   5.959  0.00  0.00    -0.344 N 
HETATM    4  C   UNK N   1      33.305  16.408   4.546  0.00  0.00     0.104 C 
HETATM    5  C   UNK N   1      32.480  14.905   6.255  0.00  0.00     0.126 C 
HETATM    6  C   UNK N   1      32.897  15.107   3.879  0.00  0.00     0.028 C 
HETATM    7  C   UNK N   1      32.058  14.356   4.905  0.00  0.00     0.022 C 
HETATM    8  O   UNK N   1      34.284  17.960   6.630  0.00  0.00    -0.271 OA
BRANCH   4   9
HETATM    9  C   UNK N   1      32.354  17.510   4.069  0.00  0.00     0.136 C 
BRANCH   9  10
HETATM   10  N   UNK N   1      31.882  17.279   2.716  0.00  0.00    -0.428 N 
HETATM   11  H   UNK N   1      31.749  18.065   2.080  0.00  0.00     0.149 HD
HETATM   12  H   UNK N   1      31.682  16.329   2.401  0.00  0.00     0.149 HD
ENDBRANCH   9  10
ENDBRANCH   4   9
ENDBRANCH   1   2
BRANCH   1  13
HETATM   13  N   UNK N   1      32.340  17.384   8.938  0.00  0.00    -0.418 N 
HETATM   14  H   UNK N   1      31.430  17.825   9.079  0.00  0.00     0.150 HD
HETATM   15  H   UNK N   1      32.787  17.706   9.795  0.00  0.00     0.150 HD
ENDBRANCH   1  13
BRANCH   1  16
HETATM   16  C   UNK N   1      34.728  16.929   9.218  0.00  0.00     0.072 C 
BRANCH  16  17
HETATM   17  C   UNK N   1      34.997  15.868  10.233  0.00  0.00    -0.056 A 
HETATM   18  C   UNK N   1      35.685  16.173  11.412  0.00  0.00     0.008 A 
HETATM   19  C   UNK N   1      35.885  15.182  12.379  0.00  0.00     0.013 A 
HETATM   20  C   UNK N   1      35.388  13.881  12.176  0.00  0.00    -0.026 A 
HETATM   21  C   UNK N   1      34.723  13.584  10.978  0.00  0.00     0.013 A 
HETATM   22  C   UNK N   1      34.537  14.567  10.012  0.00  0.00     0.008 A 
BRANCH  20  23
HETATM   23  C   UNK N   1      35.502  12.848  13.230  0.00  0.00    -0.026 A 
HETATM   24  C   UNK N   1      34.539  11.834  13.349  0.00  0.00     0.012 A 
HETATM   25  C   UNK N   1      34.686  10.834  14.315  0.00  0.00     0.001 A 
HETATM   26  C   UNK N   1      35.800  10.832  15.159  0.00  0.00     0.000 A 
HETATM   27  C   UNK N   1      36.763  11.836  15.047  0.00  0.00     0.001 A 
HETATM   28  C   UNK N   1      36.614  12.841  14.089  0.00  0.00     0.012 A 
ENDBRANCH  20  23
ENDBRANCH  16  17
ENDBRANCH   1  16
TORSDOF 7
ENDMDL
