REMARK  7 active torsions:
REMARK  status: ('A' for Active; 'I' for Inactive)
REMARK       I    between atoms: N_1  and  C_6 
REMARK    1  A    between atoms: C_2  and  C_23 
REMARK    2  A    between atoms: C_6  and  C_7 
REMARK    3  A    between atoms: C_7  and  N_9 
REMARK    4  A    between atoms: C_7  and  C_10 
REMARK    5  A    between atoms: C_10  and  C_14 
REMARK    6  A    between atoms: C_11  and  C_20 
REMARK    7  A    between atoms: C_23  and  N_24 
ROOT
HETATM    1  C   UNK N   1      -0.525  -1.561  -0.103  0.00  0.00     0.171 C 
ENDROOT
BRANCH   1   2
HETATM    2  C   UNK N   1      -0.944  -2.995   0.142  0.00  0.00     0.242 C 
HETATM    3  N   UNK N   1      -2.247  -3.383  -0.026  0.00  0.00    -0.344 N 
HETATM    4  C   UNK N   1      -2.705  -4.736   0.197  0.00  0.00     0.104 C 
HETATM    5  C   UNK N   1      -3.288  -2.461  -0.387  0.00  0.00     0.126 C 
HETATM    6  C   UNK N   1      -4.218  -4.616   0.205  0.00  0.00     0.028 C 
HETATM    7  C   UNK N   1      -4.538  -3.312  -0.515  0.00  0.00     0.022 C 
HETATM    8  O   UNK N   1      -0.112  -3.801   0.530  0.00  0.00    -0.271 OA
BRANCH   4   9
HETATM    9  C   UNK N   1      -2.304  -5.669  -0.950  0.00  0.00     0.136 C 
BRANCH   9  10
HETATM   10  N   UNK N   1      -0.872  -5.905  -0.989  0.00  0.00    -0.428 N 
HETATM   11  H   UNK N   1      -0.512  -6.859  -1.016  0.00  0.00     0.149 HD
HETATM   12  H   UNK N   1      -0.225  -5.116  -0.989  0.00  0.00     0.149 HD
ENDBRANCH   9  10
ENDBRANCH   4   9
ENDBRANCH   1   2
BRANCH   1  13
HETATM   13  N   UNK N   1      -0.735  -1.219  -1.502  0.00  0.00    -0.418 N 
HETATM   14  H   UNK N   1      -0.601  -0.972  -2.483  0.00  0.00     0.150 HD
HETATM   15  H   UNK N   1      -1.754  -1.248  -1.502  0.00  0.00     0.150 HD
ENDBRANCH   1  13
BRANCH   1  16
HETATM   16  C   UNK N   1       0.950  -1.330   0.269  0.00  0.00     0.072 C 
BRANCH  16  17
HETATM   17  C   UNK N   1       1.308   0.119   0.237  0.00  0.00    -0.056 A 
HETATM   18  C   UNK N   1       2.313   0.582  -0.618  0.00  0.00     0.008 A 
HETATM   19  C   UNK N   1       2.603   1.950  -0.677  0.00  0.00     0.013 A 
HETATM   20  C   UNK N   1       1.882   2.863   0.114  0.00  0.00    -0.026 A 
HETATM   21  C   UNK N   1       0.896   2.381   0.986  0.00  0.00     0.013 A 
HETATM   22  C   UNK N   1       0.618   1.020   1.053  0.00  0.00     0.008 A 
BRANCH  20  23
HETATM   23  C   UNK N   1       2.106   4.321  -0.009  0.00  0.00    -0.026 A 
HETATM   24  C   UNK N   1       3.107   4.826  -0.853  0.00  0.00     0.012 A 
HETATM   25  C   UNK N   1       3.274   6.206  -1.001  0.00  0.00     0.001 A 
HETATM   26  C   UNK N   1       2.435   7.091  -0.318  0.00  0.00     0.000 A 
HETATM   27  C   UNK N   1       1.436   6.598   0.523  0.00  0.00     0.001 A 
HETATM   28  C   UNK N   1       1.273   5.220   0.679  0.00  0.00     0.012 A 
ENDBRANCH  20  23
ENDBRANCH  16  17
ENDBRANCH   1  16
TORSDOF 7
