REMARK  6 active torsions:
REMARK  status: ('A' for Active; 'I' for Inactive)
REMARK    1  A    between atoms: C_1  and  C_2 
REMARK    2  A    between atoms: C_7  and  N_11 
REMARK    3  A    between atoms: C_9  and  N_14 
REMARK    4  A    between atoms: N_11  and  C_17 
REMARK       I    between atoms: N_14  and  C_18 
REMARK    5  A    between atoms: C_21  and  C_18 
REMARK    6  A    between atoms: C_30  and  O_31 
ROOT
HETATM    1  C   UNK N   1      -2.508  -0.178  -0.249  0.00  0.00    -0.021 A 
HETATM    2  C   UNK N   1      -1.497  -1.035   0.117  0.00  0.00     0.060 A 
HETATM    3  C   UNK N   1      -3.831  -0.645  -0.245  0.00  0.00     0.029 A 
HETATM    4  C   UNK N   1      -1.793  -2.328   0.508  0.00  0.00     0.108 A 
HETATM    5  C   UNK N   1      -4.093  -1.969   0.124  0.00  0.00     0.090 A 
HETATM    6  N   UNK N   1      -3.069  -2.786   0.507  0.00  0.00    -0.352 N 
ATOM      7  HN  UNK N   1      -3.264  -3.745   0.793  1.00  0.00     0.166 HD
ENDROOT
BRANCH   1   8
HETATM    8  C   UNK N   1      -2.184   1.233  -0.449  0.00  0.00    -0.021 A 
HETATM    9  C   UNK N   1      -3.216   2.148  -0.372  0.00  0.00     0.060 A 
HETATM   10  C   UNK N   1      -2.938   3.494  -0.331  0.00  0.00     0.106 A 
HETATM   11  N   UNK N   1      -1.646   3.932  -0.378  0.00  0.00    -0.352 N 
HETATM   12  C   UNK N   1      -0.606   3.062  -0.489  0.00  0.00     0.090 A 
ATOM     13  HN  UNK N   1      -1.457   4.933  -0.328  1.00  0.00     0.166 HD
HETATM   14  C   UNK N   1      -0.855   1.690  -0.497  0.00  0.00     0.029 A 
BRANCH  10  15
HETATM   15  N   UNK N   1      -4.008   4.371  -0.054  0.00  0.00    -0.342 N 
HETATM   16  H   UNK N   1      -4.896   3.980   0.111  0.00  0.00     0.167 HD
BRANCH  15  17
HETATM   17  C   UNK N   1      -3.880   5.769   0.002  0.00  0.00     0.033 A 
HETATM   18  C   UNK N   1      -4.730   6.486   0.844  0.00  0.00     0.032 A 
HETATM   19  C   UNK N   1      -4.608   7.871   0.938  0.00  0.00     0.044 A 
HETATM   20  C   UNK N   1      -3.646   8.539   0.175  0.00  0.00     0.116 A 
HETATM   21  C   UNK N   1      -2.806   7.824  -0.681  0.00  0.00     0.044 A 
HETATM   22  F   UNK N   1      -3.530   9.882   0.263  0.00  0.00    -0.206 F 
HETATM   23  C   UNK N   1      -2.919   6.439  -0.763  0.00  0.00     0.032 A 
ENDBRANCH  15  17
ENDBRANCH  10  15
ENDBRANCH   1   8
BRANCH   4  24
HETATM   24  N   UNK N   1      -0.705  -3.174   0.780  0.00  0.00    -0.313 N 
HETATM   25  C   UNK N   1       0.127  -3.457  -0.245  0.00  0.00     0.227 C 
HETATM   26  O   UNK N   1      -0.241  -3.309  -1.402  0.00  0.00    -0.273 OA
HETATM   27  H   UNK N   1      -0.555  -3.545   1.679  0.00  0.00     0.170 HD
BRANCH  25  28
HETATM   28  C   UNK N   1       1.534  -3.832   0.023  0.00  0.00     0.078 C 
HETATM   29  C   UNK N   1       2.403  -2.761  -0.660  0.00  0.00     0.016 C 
HETATM   30  C   UNK N   1       3.875  -3.148  -0.815  0.00  0.00     0.033 C 
HETATM   31  C   UNK N   1       4.222  -4.424  -0.058  0.00  0.00     0.120 C 
HETATM   32  C   UNK N   1       3.310  -5.567  -0.543  0.00  0.00     0.033 C 
HETATM   33  C   UNK N   1       1.817  -5.215  -0.554  0.00  0.00     0.016 C 
BRANCH  31  34
HETATM   34  O   UNK N   1       5.569  -4.733  -0.310  0.00  0.00    -0.391 OA
HETATM   35  C   UNK N   1       5.993  -5.643   0.669  0.00  0.00     0.202 C 
ENDBRANCH  31  34
ENDBRANCH  25  28
ENDBRANCH   4  24
TORSDOF 6
