MODEL 1
REMARK VINA RESULT:      -8.7      0.000      0.000
REMARK  6 active torsions:
REMARK  status: ('A' for Active; 'I' for Inactive)
REMARK    1  A    between atoms: C_1  and  C_2 
REMARK    2  A    between atoms: C_7  and  N_11 
REMARK    3  A    between atoms: C_9  and  N_14 
REMARK    4  A    between atoms: N_11  and  C_17 
REMARK       I    between atoms: N_14  and  C_18 
REMARK    5  A    between atoms: C_21  and  C_18 
REMARK    6  A    between atoms: C_30  and  O_31 
ROOT
HETATM    1  C   UNK N   1      33.176  17.327   7.342  0.00  0.00    -0.021 A 
HETATM    2  C   UNK N   1      33.090  16.335   8.290  0.00  0.00     0.060 A 
HETATM    3  C   UNK N   1      34.111  18.358   7.518  0.00  0.00     0.029 A 
HETATM    4  C   UNK N   1      33.937  16.348   9.384  0.00  0.00     0.108 A 
HETATM    5  C   UNK N   1      34.929  18.359   8.653  0.00  0.00     0.090 A 
HETATM    6  N   UNK N   1      34.837  17.345   9.562  0.00  0.00    -0.352 N 
ATOM      7  HN  UNK N   1      35.447  17.338  10.379  1.00  0.00     0.166 HD
ENDROOT
BRANCH   1   8
HETATM    8  C   UNK N   1      32.421  17.169   6.101  0.00  0.00    -0.021 A 
HETATM    9  C   UNK N   1      31.044  17.099   6.189  0.00  0.00     0.060 A 
HETATM   10  C   UNK N   1      30.278  17.173   5.050  0.00  0.00     0.106 A 
HETATM   11  N   UNK N   1      30.873  17.304   3.828  0.00  0.00    -0.352 N 
HETATM   12  C   UNK N   1      32.227  17.342   3.699  0.00  0.00     0.090 A 
ATOM     13  HN  UNK N   1      30.290  17.376   2.995  1.00  0.00     0.166 HD
HETATM   14  C   UNK N   1      33.028  17.304   4.840  0.00  0.00     0.029 A 
BRANCH  10  15
HETATM   15  N   UNK N   1      28.882  17.296   5.211  0.00  0.00    -0.342 N 
HETATM   16  H   UNK N   1      28.335  16.480   5.147  0.00  0.00     0.167 HD
BRANCH  15  17
HETATM   17  C   UNK N   1      28.226  18.513   5.458  0.00  0.00     0.033 A 
HETATM   18  C   UNK N   1      28.032  18.912   6.780  0.00  0.00     0.032 A 
HETATM   19  C   UNK N   1      27.407  20.128   7.054  0.00  0.00     0.044 A 
HETATM   20  C   UNK N   1      26.962  20.934   6.003  0.00  0.00     0.116 A 
HETATM   21  C   UNK N   1      27.141  20.528   4.680  0.00  0.00     0.044 A 
HETATM   22  F   UNK N   1      26.353  22.111   6.268  0.00  0.00    -0.206 F 
HETATM   23  C   UNK N   1      27.778  19.321   4.407  0.00  0.00     0.032 A 
ENDBRANCH  15  17
ENDBRANCH  10  15
ENDBRANCH   1   8
BRANCH   4  24
HETATM   24  N   UNK N   1      33.731  15.355  10.357  0.00  0.00    -0.313 N 
HETATM   25  C   UNK N   1      34.797  14.602  10.703  0.00  0.00     0.227 C 
HETATM   26  O   UNK N   1      35.768  14.523   9.964  0.00  0.00    -0.273 OA
HETATM   27  H   UNK N   1      32.849  15.214  10.768  0.00  0.00     0.170 HD
BRANCH  25  28
HETATM   28  C   UNK N   1      34.852  13.964  12.038  0.00  0.00     0.078 C 
HETATM   29  C   UNK N   1      35.958  14.695  12.820  0.00  0.00     0.016 C 
HETATM   30  C   UNK N   1      36.425  13.966  14.082  0.00  0.00     0.033 C 
HETATM   31  C   UNK N   1      35.540  12.774  14.424  0.00  0.00     0.120 C 
HETATM   32  C   UNK N   1      35.503  11.807  13.226  0.00  0.00     0.033 C 
HETATM   33  C   UNK N   1      35.178  12.482  11.887  0.00  0.00     0.016 C 
BRANCH  31  34
HETATM   34  O   UNK N   1      36.080  12.134  15.552  0.00  0.00    -0.391 OA
HETATM   35  C   UNK N   1      35.298  12.484  16.662  0.00  0.00     0.202 C 
ENDBRANCH  31  34
ENDBRANCH  25  28
ENDBRANCH   4  24
TORSDOF 6
ENDMDL
MODEL 2
REMARK VINA RESULT:      -8.5      7.850     11.264
REMARK  6 active torsions:
REMARK  status: ('A' for Active; 'I' for Inactive)
REMARK    1  A    between atoms: C_1  and  C_2 
REMARK    2  A    between atoms: C_7  and  N_11 
REMARK    3  A    between atoms: C_9  and  N_14 
REMARK    4  A    between atoms: N_11  and  C_17 
REMARK       I    between atoms: N_14  and  C_18 
REMARK    5  A    between atoms: C_21  and  C_18 
REMARK    6  A    between atoms: C_30  and  O_31 
ROOT
HETATM    1  C   UNK N   1      21.149  17.497   4.760  0.00  0.00    -0.021 A 
HETATM    2  C   UNK N   1      21.286  17.090   6.066  0.00  0.00     0.060 A 
HETATM    3  C   UNK N   1      20.057  17.031   4.013  0.00  0.00     0.029 A 
HETATM    4  C   UNK N   1      20.340  16.256   6.634  0.00  0.00     0.108 A 
HETATM    5  C   UNK N   1      19.136  16.162   4.608  0.00  0.00     0.090 A 
HETATM    6  N   UNK N   1      19.286  15.798   5.915  0.00  0.00    -0.352 N 
ATOM      7  HN  UNK N   1      18.604  15.179   6.351  1.00  0.00     0.166 HD
ENDROOT
BRANCH   1   8
HETATM    8  C   UNK N   1      22.043  18.540   4.261  0.00  0.00    -0.021 A 
HETATM    9  C   UNK N   1      23.402  18.355   4.422  0.00  0.00     0.060 A 
HETATM   10  C   UNK N   1      24.289  19.188   3.781  0.00  0.00     0.106 A 
HETATM   11  N   UNK N   1      23.832  20.205   2.994  0.00  0.00    -0.352 N 
HETATM   12  C   UNK N   1      22.501  20.439   2.839  0.00  0.00     0.090 A 
ATOM     13  HN  UNK N   1      24.503  20.802   2.511  1.00  0.00     0.166 HD
HETATM   14  C   UNK N   1      21.578  19.589   3.448  0.00  0.00     0.029 A 
BRANCH  10  15
HETATM   15  N   UNK N   1      25.655  18.837   3.819  0.00  0.00    -0.342 N 
HETATM   16  H   UNK N   1      26.067  18.492   2.995  0.00  0.00     0.167 HD
BRANCH  15  17
HETATM   17  C   UNK N   1      26.461  18.953   4.964  0.00  0.00     0.033 A 
HETATM   18  C   UNK N   1      27.051  17.802   5.487  0.00  0.00     0.032 A 
HETATM   19  C   UNK N   1      27.876  17.892   6.606  0.00  0.00     0.044 A 
HETATM   20  C   UNK N   1      28.095  19.132   7.213  0.00  0.00     0.116 A 
HETATM   21  C   UNK N   1      27.491  20.282   6.700  0.00  0.00     0.044 A 
HETATM   22  F   UNK N   1      28.891  19.219   8.300  0.00  0.00    -0.206 F 
HETATM   23  C   UNK N   1      26.679  20.193   5.573  0.00  0.00     0.032 A 
ENDBRANCH  15  17
ENDBRANCH  10  15
ENDBRANCH   1   8
BRANCH   4  24
HETATM   24  N   UNK N   1      20.592  15.808   7.942  0.00  0.00    -0.313 N 
HETATM   25  C   UNK N   1      20.721  14.476   8.123  0.00  0.00     0.227 C 
HETATM   26  O   UNK N   1      20.276  13.692   7.297  0.00  0.00    -0.273 OA
HETATM   27  H   UNK N   1      20.670  16.437   8.694  0.00  0.00     0.170 HD
BRANCH  25  28
HETATM   28  C   UNK N   1      21.511  13.955   9.262  0.00  0.00     0.078 C 
HETATM   29  C   UNK N   1      22.605  13.060   8.654  0.00  0.00     0.016 C 
HETATM   30  C   UNK N   1      23.301  12.142   9.661  0.00  0.00     0.033 C 
HETATM   31  C   UNK N   1      22.920  12.467  11.100  0.00  0.00     0.120 C 
HETATM   32  C   UNK N   1      21.390  12.375  11.255  0.00  0.00     0.033 C 
HETATM   33  C   UNK N   1      20.606  13.156  10.194  0.00  0.00     0.016 C 
BRANCH  31  34
HETATM   34  O   UNK N   1      23.554  11.538  11.943  0.00  0.00    -0.391 OA
HETATM   35  C   UNK N   1      23.328  11.936  13.269  0.00  0.00     0.202 C 
ENDBRANCH  31  34
ENDBRANCH  25  28
ENDBRANCH   4  24
TORSDOF 6
ENDMDL
MODEL 3
REMARK VINA RESULT:      -8.4      6.333     12.772
REMARK  6 active torsions:
REMARK  status: ('A' for Active; 'I' for Inactive)
REMARK    1  A    between atoms: C_1  and  C_2 
REMARK    2  A    between atoms: C_7  and  N_11 
REMARK    3  A    between atoms: C_9  and  N_14 
REMARK    4  A    between atoms: N_11  and  C_17 
REMARK       I    between atoms: N_14  and  C_18 
REMARK    5  A    between atoms: C_21  and  C_18 
REMARK    6  A    between atoms: C_30  and  O_31 
ROOT
HETATM    1  C   UNK N   1      36.345  11.921  15.548  0.00  0.00    -0.021 A 
HETATM    2  C   UNK N   1      36.443  12.821  14.513  0.00  0.00     0.060 A 
HETATM    3  C   UNK N   1      36.960  10.667  15.420  0.00  0.00     0.029 A 
HETATM    4  C   UNK N   1      37.162  12.495  13.378  0.00  0.00     0.108 A 
HETATM    5  C   UNK N   1      37.653  10.356  14.245  0.00  0.00     0.090 A 
HETATM    6  N   UNK N   1      37.753  11.282  13.247  0.00  0.00    -0.352 N 
ATOM      7  HN  UNK N   1      38.274  11.060  12.399  1.00  0.00     0.166 HD
ENDROOT
BRANCH   1   8
HETATM    8  C   UNK N   1      35.763  12.375  16.810  0.00  0.00    -0.021 A 
HETATM    9  C   UNK N   1      35.579  11.438  17.808  0.00  0.00     0.060 A 
HETATM   10  C   UNK N   1      35.246  11.845  19.078  0.00  0.00     0.106 A 
HETATM   11  N   UNK N   1      35.085  13.172  19.356  0.00  0.00    -0.352 N 
HETATM   12  C   UNK N   1      35.224  14.120  18.391  0.00  0.00     0.090 A 
ATOM     13  HN  UNK N   1      34.856  13.457  20.308  1.00  0.00     0.166 HD
HETATM   14  C   UNK N   1      35.595  13.740  17.102  0.00  0.00     0.029 A 
BRANCH  10  15
HETATM   15  N   UNK N   1      35.264  10.871  20.099  0.00  0.00    -0.342 N 
HETATM   16  H   UNK N   1      36.097  10.752  20.610  0.00  0.00     0.167 HD
BRANCH  15  17
HETATM   17  C   UNK N   1      34.163  10.064  20.431  0.00  0.00     0.033 A 
HETATM   18  C   UNK N   1      33.436  10.364  21.583  0.00  0.00     0.032 A 
HETATM   19  C   UNK N   1      32.324   9.596  21.922  0.00  0.00     0.044 A 
HETATM   20  C   UNK N   1      31.952   8.515  21.117  0.00  0.00     0.116 A 
HETATM   21  C   UNK N   1      32.690   8.204  19.973  0.00  0.00     0.044 A 
HETATM   22  F   UNK N   1      30.877   7.768  21.448  0.00  0.00    -0.206 F 
HETATM   23  C   UNK N   1      33.791   8.981  19.627  0.00  0.00     0.032 A 
ENDBRANCH  15  17
ENDBRANCH  10  15
ENDBRANCH   1   8
BRANCH   4  24
HETATM   24  N   UNK N   1      37.143  13.424  12.325  0.00  0.00    -0.313 N 
HETATM   25  C   UNK N   1      36.294  13.182  11.304  0.00  0.00     0.227 C 
HETATM   26  O   UNK N   1      35.856  12.055  11.116  0.00  0.00    -0.273 OA
HETATM   27  H   UNK N   1      37.724  14.219  12.331  0.00  0.00     0.170 HD
BRANCH  25  28
HETATM   28  C   UNK N   1      35.788  14.301  10.477  0.00  0.00     0.078 C 
HETATM   29  C   UNK N   1      36.058  15.586  11.280  0.00  0.00     0.016 C 
HETATM   30  C   UNK N   1      35.297  16.814  10.778  0.00  0.00     0.033 C 
HETATM   31  C   UNK N   1      34.600  16.561   9.447  0.00  0.00     0.120 C 
HETATM   32  C   UNK N   1      33.648  15.359   9.592  0.00  0.00     0.033 C 
HETATM   33  C   UNK N   1      34.296  14.119  10.222  0.00  0.00     0.016 C 
BRANCH  31  34
HETATM   34  O   UNK N   1      33.879  17.716   9.101  0.00  0.00    -0.391 OA
HETATM   35  C   UNK N   1      34.484  18.278   7.967  0.00  0.00     0.202 C 
ENDBRANCH  31  34
ENDBRANCH  25  28
ENDBRANCH   4  24
TORSDOF 6
ENDMDL
MODEL 4
REMARK VINA RESULT:      -8.3      1.799      2.599
REMARK  6 active torsions:
REMARK  status: ('A' for Active; 'I' for Inactive)
REMARK    1  A    between atoms: C_1  and  C_2 
REMARK    2  A    between atoms: C_7  and  N_11 
REMARK    3  A    between atoms: C_9  and  N_14 
REMARK    4  A    between atoms: N_11  and  C_17 
REMARK       I    between atoms: N_14  and  C_18 
REMARK    5  A    between atoms: C_21  and  C_18 
REMARK    6  A    between atoms: C_30  and  O_31 
ROOT
HETATM    1  C   UNK N   1      31.873  17.144   7.703  0.00  0.00    -0.021 A 
HETATM    2  C   UNK N   1      32.295  16.194   8.602  0.00  0.00     0.060 A 
HETATM    3  C   UNK N   1      32.700  17.470   6.618  0.00  0.00     0.029 A 
HETATM    4  C   UNK N   1      33.508  15.556   8.416  0.00  0.00     0.108 A 
HETATM    5  C   UNK N   1      33.936  16.829   6.477  0.00  0.00     0.090 A 
HETATM    6  N   UNK N   1      34.314  15.872   7.373  0.00  0.00    -0.352 N 
ATOM      7  HN  UNK N   1      35.207  15.393   7.259  1.00  0.00     0.166 HD
ENDROOT
BRANCH   1   8
HETATM    8  C   UNK N   1      30.502  17.641   7.810  0.00  0.00    -0.021 A 
HETATM    9  C   UNK N   1      29.671  17.477   6.719  0.00  0.00     0.060 A 
HETATM   10  C   UNK N   1      28.323  17.722   6.841  0.00  0.00     0.106 A 
HETATM   11  N   UNK N   1      27.804  18.137   8.033  0.00  0.00    -0.352 N 
HETATM   12  C   UNK N   1      28.597  18.342   9.119  0.00  0.00     0.090 A 
ATOM     13  HN  UNK N   1      26.799  18.296   8.111  1.00  0.00     0.166 HD
HETATM   14  C   UNK N   1      29.962  18.069   9.035  0.00  0.00     0.029 A 
BRANCH  10  15
HETATM   15  N   UNK N   1      27.495  17.351   5.761  0.00  0.00    -0.342 N 
HETATM   16  H   UNK N   1      27.386  16.392   5.568  0.00  0.00     0.167 HD
BRANCH  15  17
HETATM   17  C   UNK N   1      26.814  18.271   4.945  0.00  0.00     0.033 A 
HETATM   18  C   UNK N   1      25.442  18.109   4.755  0.00  0.00     0.032 A 
HETATM   19  C   UNK N   1      24.737  19.021   3.972  0.00  0.00     0.044 A 
HETATM   20  C   UNK N   1      25.411  20.085   3.364  0.00  0.00     0.116 A 
HETATM   21  C   UNK N   1      26.788  20.238   3.540  0.00  0.00     0.044 A 
HETATM   22  F   UNK N   1      24.729  20.967   2.602  0.00  0.00    -0.206 F 
HETATM   23  C   UNK N   1      27.488  19.335   4.335  0.00  0.00     0.032 A 
ENDBRANCH  15  17
ENDBRANCH  10  15
ENDBRANCH   1   8
BRANCH   4  24
HETATM   24  N   UNK N   1      33.917  14.664   9.422  0.00  0.00    -0.313 N 
HETATM   25  C   UNK N   1      34.729  15.152  10.385  0.00  0.00     0.227 C 
HETATM   26  O   UNK N   1      35.371  16.175  10.195  0.00  0.00    -0.273 OA
HETATM   27  H   UNK N   1      33.625  13.725   9.426  0.00  0.00     0.170 HD
BRANCH  25  28
HETATM   28  C   UNK N   1      34.756  14.519  11.723  0.00  0.00     0.078 C 
HETATM   29  C   UNK N   1      35.948  15.143  12.470  0.00  0.00     0.016 C 
HETATM   30  C   UNK N   1      36.375  14.381  13.726  0.00  0.00     0.033 C 
HETATM   31  C   UNK N   1      35.386  13.283  14.102  0.00  0.00     0.120 C 
HETATM   32  C   UNK N   1      35.224  12.317  12.913  0.00  0.00     0.033 C 
HETATM   33  C   UNK N   1      34.932  13.011  11.577  0.00  0.00     0.016 C 
BRANCH  31  34
HETATM   34  O   UNK N   1      35.891  12.600  15.221  0.00  0.00    -0.391 OA
HETATM   35  C   UNK N   1      34.940  12.694  16.248  0.00  0.00     0.202 C 
ENDBRANCH  31  34
ENDBRANCH  25  28
ENDBRANCH   4  24
TORSDOF 6
ENDMDL
MODEL 5
REMARK VINA RESULT:      -8.2      6.120      9.413
REMARK  6 active torsions:
REMARK  status: ('A' for Active; 'I' for Inactive)
REMARK    1  A    between atoms: C_1  and  C_2 
REMARK    2  A    between atoms: C_7  and  N_11 
REMARK    3  A    between atoms: C_9  and  N_14 
REMARK    4  A    between atoms: N_11  and  C_17 
REMARK       I    between atoms: N_14  and  C_18 
REMARK    5  A    between atoms: C_21  and  C_18 
REMARK    6  A    between atoms: C_30  and  O_31 
ROOT
HETATM    1  C   UNK N   1      24.955  16.396   5.461  0.00  0.00    -0.021 A 
HETATM    2  C   UNK N   1      26.201  16.095   5.957  0.00  0.00     0.060 A 
HETATM    3  C   UNK N   1      24.854  17.218   4.328  0.00  0.00     0.029 A 
HETATM    4  C   UNK N   1      27.333  16.577   5.326  0.00  0.00     0.108 A 
HETATM    5  C   UNK N   1      26.018  17.717   3.733  0.00  0.00     0.090 A 
HETATM    6  N   UNK N   1      27.241  17.377   4.235  0.00  0.00    -0.352 N 
ATOM      7  HN  UNK N   1      28.088  17.727   3.789  1.00  0.00     0.166 HD
ENDROOT
BRANCH   1   8
HETATM    8  C   UNK N   1      23.798  15.700   6.020  0.00  0.00    -0.021 A 
HETATM    9  C   UNK N   1      23.986  14.417   6.496  0.00  0.00     0.060 A 
HETATM   10  C   UNK N   1      22.995  13.805   7.227  0.00  0.00     0.106 A 
HETATM   11  N   UNK N   1      21.821  14.455   7.476  0.00  0.00    -0.352 N 
HETATM   12  C   UNK N   1      21.587  15.705   6.995  0.00  0.00     0.090 A 
ATOM     13  HN  UNK N   1      21.105  13.993   8.036  1.00  0.00     0.166 HD
HETATM   14  C   UNK N   1      22.586  16.365   6.280  0.00  0.00     0.029 A 
BRANCH  10  15
HETATM   15  N   UNK N   1      23.312  12.581   7.854  0.00  0.00    -0.342 N 
HETATM   16  H   UNK N   1      23.547  11.815   7.282  0.00  0.00     0.167 HD
BRANCH  15  17
HETATM   17  C   UNK N   1      23.314  12.391   9.246  0.00  0.00     0.033 A 
HETATM   18  C   UNK N   1      22.091  12.322   9.914  0.00  0.00     0.032 A 
HETATM   19  C   UNK N   1      22.063  12.109  11.290  0.00  0.00     0.044 A 
HETATM   20  C   UNK N   1      23.260  11.984  12.001  0.00  0.00     0.116 A 
HETATM   21  C   UNK N   1      24.485  12.070  11.336  0.00  0.00     0.044 A 
HETATM   22  F   UNK N   1      23.233  11.781  13.336  0.00  0.00    -0.206 F 
HETATM   23  C   UNK N   1      24.512  12.268   9.958  0.00  0.00     0.032 A 
ENDBRANCH  15  17
ENDBRANCH  10  15
ENDBRANCH   1   8
BRANCH   4  24
HETATM   24  N   UNK N   1      28.567  16.306   5.940  0.00  0.00    -0.313 N 
HETATM   25  C   UNK N   1      29.597  15.973   5.133  0.00  0.00     0.227 C 
HETATM   26  O   UNK N   1      29.390  15.563   4.000  0.00  0.00    -0.273 OA
HETATM   27  H   UNK N   1      28.677  16.356   6.917  0.00  0.00     0.170 HD
BRANCH  25  28
HETATM   28  C   UNK N   1      30.991  16.218   5.569  0.00  0.00     0.078 C 
HETATM   29  C   UNK N   1      30.897  17.017   6.881  0.00  0.00     0.016 C 
HETATM   30  C   UNK N   1      32.207  17.682   7.309  0.00  0.00     0.033 C 
HETATM   31  C   UNK N   1      33.391  17.229   6.463  0.00  0.00     0.120 C 
HETATM   32  C   UNK N   1      33.098  17.521   4.980  0.00  0.00     0.033 C 
HETATM   33  C   UNK N   1      31.734  17.009   4.498  0.00  0.00     0.016 C 
BRANCH  31  34
HETATM   34  O   UNK N   1      34.530  17.935   6.885  0.00  0.00    -0.391 OA
HETATM   35  C   UNK N   1      34.505  17.997   8.286  0.00  0.00     0.202 C 
ENDBRANCH  31  34
ENDBRANCH  25  28
ENDBRANCH   4  24
TORSDOF 6
ENDMDL
MODEL 6
REMARK VINA RESULT:      -8.1      4.427     10.311
REMARK  6 active torsions:
REMARK  status: ('A' for Active; 'I' for Inactive)
REMARK    1  A    between atoms: C_1  and  C_2 
REMARK    2  A    between atoms: C_7  and  N_11 
REMARK    3  A    between atoms: C_9  and  N_14 
REMARK    4  A    between atoms: N_11  and  C_17 
REMARK       I    between atoms: N_14  and  C_18 
REMARK    5  A    between atoms: C_21  and  C_18 
REMARK    6  A    between atoms: C_30  and  O_31 
ROOT
HETATM    1  C   UNK N   1      34.864  14.543   9.991  0.00  0.00    -0.021 A 
HETATM    2  C   UNK N   1      33.915  15.105   9.170  0.00  0.00     0.060 A 
HETATM    3  C   UNK N   1      35.691  15.384  10.751  0.00  0.00     0.029 A 
HETATM    4  C   UNK N   1      33.768  16.480   9.122  0.00  0.00     0.108 A 
HETATM    5  C   UNK N   1      35.538  16.772  10.653  0.00  0.00     0.090 A 
HETATM    6  N   UNK N   1      34.569  17.297   9.849  0.00  0.00    -0.352 N 
ATOM      7  HN  UNK N   1      34.447  18.307   9.793  1.00  0.00     0.166 HD
ENDROOT
BRANCH   1   8
HETATM    8  C   UNK N   1      34.850  13.094  10.178  0.00  0.00    -0.021 A 
HETATM    9  C   UNK N   1      35.362  12.592  11.359  0.00  0.00     0.060 A 
HETATM   10  C   UNK N   1      35.173  11.269  11.681  0.00  0.00     0.106 A 
HETATM   11  N   UNK N   1      34.491  10.444  10.834  0.00  0.00    -0.352 N 
HETATM   12  C   UNK N   1      34.003  10.895   9.647  0.00  0.00     0.090 A 
ATOM     13  HN  UNK N   1      34.345   9.470  11.097  1.00  0.00     0.166 HD
HETATM   14  C   UNK N   1      34.148  12.240   9.309  0.00  0.00     0.029 A 
BRANCH  10  15
HETATM   15  N   UNK N   1      35.541  10.857  12.979  0.00  0.00    -0.342 N 
HETATM   16  H   UNK N   1      35.773   9.910  13.116  0.00  0.00     0.167 HD
BRANCH  15  17
HETATM   17  C   UNK N   1      35.597  11.718  14.088  0.00  0.00     0.033 A 
HETATM   18  C   UNK N   1      36.784  12.404  14.344  0.00  0.00     0.032 A 
HETATM   19  C   UNK N   1      36.859  13.284  15.422  0.00  0.00     0.044 A 
HETATM   20  C   UNK N   1      35.750  13.463  16.253  0.00  0.00     0.116 A 
HETATM   21  C   UNK N   1      34.566  12.764  16.008  0.00  0.00     0.044 A 
HETATM   22  F   UNK N   1      35.823  14.313  17.301  0.00  0.00    -0.206 F 
HETATM   23  C   UNK N   1      34.488  11.897  14.922  0.00  0.00     0.032 A 
ENDBRANCH  15  17
ENDBRANCH  10  15
ENDBRANCH   1   8
BRANCH   4  24
HETATM   24  N   UNK N   1      32.843  16.987   8.194  0.00  0.00    -0.313 N 
HETATM   25  C   UNK N   1      33.332  17.441   7.021  0.00  0.00     0.227 C 
HETATM   26  O   UNK N   1      34.512  17.746   6.917  0.00  0.00    -0.273 OA
HETATM   27  H   UNK N   1      31.879  17.011   8.391  0.00  0.00     0.170 HD
BRANCH  25  28
HETATM   28  C   UNK N   1      32.473  17.456   5.815  0.00  0.00     0.078 C 
HETATM   29  C   UNK N   1      31.303  16.500   6.106  0.00  0.00     0.016 C 
HETATM   30  C   UNK N   1      30.499  16.092   4.871  0.00  0.00     0.033 C 
HETATM   31  C   UNK N   1      30.886  16.896   3.635  0.00  0.00     0.120 C 
HETATM   32  C   UNK N   1      32.396  16.732   3.375  0.00  0.00     0.033 C 
HETATM   33  C   UNK N   1      33.275  16.986   4.605  0.00  0.00     0.016 C 
BRANCH  31  34
HETATM   34  O   UNK N   1      30.146  16.410   2.545  0.00  0.00    -0.391 OA
HETATM   35  C   UNK N   1      28.812  16.274   2.955  0.00  0.00     0.202 C 
ENDBRANCH  31  34
ENDBRANCH  25  28
ENDBRANCH   4  24
TORSDOF 6
ENDMDL
MODEL 7
REMARK VINA RESULT:      -7.9      3.136      5.911
REMARK  6 active torsions:
REMARK  status: ('A' for Active; 'I' for Inactive)
REMARK    1  A    between atoms: C_1  and  C_2 
REMARK    2  A    between atoms: C_7  and  N_11 
REMARK    3  A    between atoms: C_9  and  N_14 
REMARK    4  A    between atoms: N_11  and  C_17 
REMARK       I    between atoms: N_14  and  C_18 
REMARK    5  A    between atoms: C_21  and  C_18 
REMARK    6  A    between atoms: C_30  and  O_31 
ROOT
HETATM    1  C   UNK N   1      35.136  13.791  11.139  0.00  0.00    -0.021 A 
HETATM    2  C   UNK N   1      35.524  13.797  12.458  0.00  0.00     0.060 A 
HETATM    3  C   UNK N   1      34.751  12.578  10.549  0.00  0.00     0.029 A 
HETATM    4  C   UNK N   1      35.506  12.624  13.191  0.00  0.00     0.108 A 
HETATM    5  C   UNK N   1      34.776  11.403  11.309  0.00  0.00     0.090 A 
HETATM    6  N   UNK N   1      35.142  11.449  12.623  0.00  0.00    -0.352 N 
ATOM      7  HN  UNK N   1      35.142  10.595  13.180  1.00  0.00     0.166 HD
ENDROOT
BRANCH   1   8
HETATM    8  C   UNK N   1      34.964  15.073  10.460  0.00  0.00    -0.021 A 
HETATM    9  C   UNK N   1      33.906  15.199   9.580  0.00  0.00     0.060 A 
HETATM   10  C   UNK N   1      33.567  16.438   9.087  0.00  0.00     0.106 A 
HETATM   11  N   UNK N   1      34.279  17.543   9.454  0.00  0.00    -0.352 N 
HETATM   12  C   UNK N   1      35.348  17.453  10.291  0.00  0.00     0.090 A 
ATOM     13  HN  UNK N   1      34.003  18.456   9.093  1.00  0.00     0.166 HD
HETATM   14  C   UNK N   1      35.694  16.216  10.834  0.00  0.00     0.029 A 
BRANCH  10  15
HETATM   15  N   UNK N   1      32.366  16.540   8.355  0.00  0.00    -0.342 N 
HETATM   16  H   UNK N   1      31.517  16.418   8.838  0.00  0.00     0.167 HD
BRANCH  15  17
HETATM   17  C   UNK N   1      32.309  16.806   6.977  0.00  0.00     0.033 A 
HETATM   18  C   UNK N   1      31.082  16.694   6.323  0.00  0.00     0.032 A 
HETATM   19  C   UNK N   1      30.993  16.977   4.961  0.00  0.00     0.044 A 
HETATM   20  C   UNK N   1      32.136  17.354   4.251  0.00  0.00     0.116 A 
HETATM   21  C   UNK N   1      33.369  17.450   4.901  0.00  0.00     0.044 A 
HETATM   22  F   UNK N   1      32.051  17.625   2.931  0.00  0.00    -0.206 F 
HETATM   23  C   UNK N   1      33.454  17.181   6.265  0.00  0.00     0.032 A 
ENDBRANCH  15  17
ENDBRANCH  10  15
ENDBRANCH   1   8
BRANCH   4  24
HETATM   24  N   UNK N   1      36.002  12.688  14.504  0.00  0.00    -0.313 N 
HETATM   25  C   UNK N   1      35.122  12.479  15.506  0.00  0.00     0.227 C 
HETATM   26  O   UNK N   1      33.921  12.606  15.313  0.00  0.00    -0.273 OA
HETATM   27  H   UNK N   1      36.950  12.877  14.686  0.00  0.00     0.170 HD
BRANCH  25  28
HETATM   28  C   UNK N   1      35.594  11.974  16.815  0.00  0.00     0.078 C 
HETATM   29  C   UNK N   1      35.006  10.560  16.970  0.00  0.00     0.016 C 
HETATM   30  C   UNK N   1      35.069  10.003  18.393  0.00  0.00     0.033 C 
HETATM   31  C   UNK N   1      35.905  10.875  19.321  0.00  0.00     0.120 C 
HETATM   32  C   UNK N   1      35.334  12.306  19.326  0.00  0.00     0.033 C 
HETATM   33  C   UNK N   1      35.105  12.894  17.928  0.00  0.00     0.016 C 
BRANCH  31  34
HETATM   34  O   UNK N   1      35.853  10.323  20.611  0.00  0.00    -0.391 OA
HETATM   35  C   UNK N   1      34.512  10.317  21.023  0.00  0.00     0.202 C 
ENDBRANCH  31  34
ENDBRANCH  25  28
ENDBRANCH   4  24
TORSDOF 6
ENDMDL
MODEL 8
REMARK VINA RESULT:      -7.9      6.197     10.127
REMARK  6 active torsions:
REMARK  status: ('A' for Active; 'I' for Inactive)
REMARK    1  A    between atoms: C_1  and  C_2 
REMARK    2  A    between atoms: C_7  and  N_11 
REMARK    3  A    between atoms: C_9  and  N_14 
REMARK    4  A    between atoms: N_11  and  C_17 
REMARK       I    between atoms: N_14  and  C_18 
REMARK    5  A    between atoms: C_21  and  C_18 
REMARK    6  A    between atoms: C_30  and  O_31 
ROOT
HETATM    1  C   UNK N   1      23.131  19.062   3.758  0.00  0.00    -0.021 A 
HETATM    2  C   UNK N   1      23.936  18.318   4.589  0.00  0.00     0.060 A 
HETATM    3  C   UNK N   1      23.670  20.189   3.120  0.00  0.00     0.029 A 
HETATM    4  C   UNK N   1      25.262  18.668   4.763  0.00  0.00     0.108 A 
HETATM    5  C   UNK N   1      25.007  20.535   3.344  0.00  0.00     0.090 A 
HETATM    6  N   UNK N   1      25.785  19.760   4.154  0.00  0.00    -0.352 N 
ATOM      7  HN  UNK N   1      26.764  20.003   4.302  1.00  0.00     0.166 HD
ENDROOT
BRANCH   1   8
HETATM    8  C   UNK N   1      21.804  18.545   3.431  0.00  0.00    -0.021 A 
HETATM    9  C   UNK N   1      21.440  17.323   3.962  0.00  0.00     0.060 A 
HETATM   10  C   UNK N   1      20.136  16.896   3.870  0.00  0.00     0.106 A 
HETATM   11  N   UNK N   1      19.200  17.670   3.247  0.00  0.00    -0.352 N 
HETATM   12  C   UNK N   1      19.529  18.863   2.682  0.00  0.00     0.090 A 
ATOM     13  HN  UNK N   1      18.234  17.346   3.204  1.00  0.00     0.166 HD
HETATM   14  C   UNK N   1      20.836  19.338   2.790  0.00  0.00     0.029 A 
BRANCH  10  15
HETATM   15  N   UNK N   1      19.778  15.741   4.597  0.00  0.00    -0.342 N 
HETATM   16  H   UNK N   1      19.200  15.077   4.155  0.00  0.00     0.167 HD
BRANCH  15  17
HETATM   17  C   UNK N   1      20.198  15.481   5.912  0.00  0.00     0.033 A 
HETATM   18  C   UNK N   1      19.711  16.285   6.942  0.00  0.00     0.032 A 
HETATM   19  C   UNK N   1      20.092  16.033   8.259  0.00  0.00     0.044 A 
HETATM   20  C   UNK N   1      20.975  14.987   8.541  0.00  0.00     0.116 A 
HETATM   21  C   UNK N   1      21.477  14.193   7.508  0.00  0.00     0.044 A 
HETATM   22  F   UNK N   1      21.348  14.746   9.816  0.00  0.00    -0.206 F 
HETATM   23  C   UNK N   1      21.084  14.436   6.195  0.00  0.00     0.032 A 
ENDBRANCH  15  17
ENDBRANCH  10  15
ENDBRANCH   1   8
BRANCH   4  24
HETATM   24  N   UNK N   1      25.999  17.918   5.695  0.00  0.00    -0.313 N 
HETATM   25  C   UNK N   1      27.165  17.384   5.272  0.00  0.00     0.227 C 
HETATM   26  O   UNK N   1      27.382  17.234   4.078  0.00  0.00    -0.273 OA
HETATM   27  H   UNK N   1      25.680  17.787   6.617  0.00  0.00     0.170 HD
BRANCH  25  28
HETATM   28  C   UNK N   1      28.242  17.089   6.245  0.00  0.00     0.078 C 
HETATM   29  C   UNK N   1      28.160  18.183   7.324  0.00  0.00     0.016 C 
HETATM   30  C   UNK N   1      29.396  18.278   8.221  0.00  0.00     0.033 C 
HETATM   31  C   UNK N   1      30.361  17.119   8.003  0.00  0.00     0.120 C 
HETATM   32  C   UNK N   1      30.774  17.073   6.520  0.00  0.00     0.033 C 
HETATM   33  C   UNK N   1      29.594  17.117   5.540  0.00  0.00     0.016 C 
BRANCH  31  34
HETATM   34  O   UNK N   1      31.487  17.325   8.818  0.00  0.00    -0.391 OA
HETATM   35  C   UNK N   1      32.505  17.865   8.018  0.00  0.00     0.202 C 
ENDBRANCH  31  34
ENDBRANCH  25  28
ENDBRANCH   4  24
TORSDOF 6
ENDMDL
MODEL 9
REMARK VINA RESULT:      -7.9      4.824     11.211
REMARK  6 active torsions:
REMARK  status: ('A' for Active; 'I' for Inactive)
REMARK    1  A    between atoms: C_1  and  C_2 
REMARK    2  A    between atoms: C_7  and  N_11 
REMARK    3  A    between atoms: C_9  and  N_14 
REMARK    4  A    between atoms: N_11  and  C_17 
REMARK       I    between atoms: N_14  and  C_18 
REMARK    5  A    between atoms: C_21  and  C_18 
REMARK    6  A    between atoms: C_30  and  O_31 
ROOT
HETATM    1  C   UNK N   1      31.609  17.175   6.424  0.00  0.00    -0.021 A 
HETATM    2  C   UNK N   1      30.297  17.544   6.611  0.00  0.00     0.060 A 
HETATM    3  C   UNK N   1      32.061  16.903   5.124  0.00  0.00     0.029 A 
HETATM    4  C   UNK N   1      29.452  17.670   5.524  0.00  0.00     0.108 A 
HETATM    5  C   UNK N   1      31.171  17.008   4.049  0.00  0.00     0.090 A 
HETATM    6  N   UNK N   1      29.882  17.402   4.266  0.00  0.00    -0.352 N 
ATOM      7  HN  UNK N   1      29.240  17.495   3.480  1.00  0.00     0.166 HD
ENDROOT
BRANCH   1   8
HETATM    8  C   UNK N   1      32.522  17.258   7.562  0.00  0.00    -0.021 A 
HETATM    9  C   UNK N   1      32.442  16.273   8.526  0.00  0.00     0.060 A 
HETATM   10  C   UNK N   1      33.415  16.178   9.493  0.00  0.00     0.106 A 
HETATM   11  N   UNK N   1      34.456  17.062   9.512  0.00  0.00    -0.352 N 
HETATM   12  C   UNK N   1      34.549  18.066   8.599  0.00  0.00     0.090 A 
ATOM     13  HN  UNK N   1      35.178  16.966  10.225  1.00  0.00     0.166 HD
HETATM   14  C   UNK N   1      33.596  18.166   7.586  0.00  0.00     0.029 A 
BRANCH  10  15
HETATM   15  N   UNK N   1      33.394  15.042  10.329  0.00  0.00    -0.342 N 
HETATM   16  H   UNK N   1      32.520  14.711  10.637  0.00  0.00     0.167 HD
BRANCH  15  17
HETATM   17  C   UNK N   1      34.546  14.354  10.745  0.00  0.00     0.033 A 
HETATM   18  C   UNK N   1      35.079  13.373   9.908  0.00  0.00     0.032 A 
HETATM   19  C   UNK N   1      36.235  12.693  10.284  0.00  0.00     0.044 A 
HETATM   20  C   UNK N   1      36.847  12.983  11.507  0.00  0.00     0.116 A 
HETATM   21  C   UNK N   1      36.305  13.952  12.353  0.00  0.00     0.044 A 
HETATM   22  F   UNK N   1      37.966  12.321  11.874  0.00  0.00    -0.206 F 
HETATM   23  C   UNK N   1      35.158  14.641  11.969  0.00  0.00     0.032 A 
ENDBRANCH  15  17
ENDBRANCH  10  15
ENDBRANCH   1   8
BRANCH   4  24
HETATM   24  N   UNK N   1      28.105  17.961   5.797  0.00  0.00    -0.313 N 
HETATM   25  C   UNK N   1      27.585  19.067   5.223  0.00  0.00     0.227 C 
HETATM   26  O   UNK N   1      28.317  19.955   4.811  0.00  0.00    -0.273 OA
HETATM   27  H   UNK N   1      27.564  17.385   6.382  0.00  0.00     0.170 HD
BRANCH  25  28
HETATM   28  C   UNK N   1      26.128  19.158   4.975  0.00  0.00     0.078 C 
HETATM   29  C   UNK N   1      25.666  17.741   4.592  0.00  0.00     0.016 C 
HETATM   30  C   UNK N   1      24.279  17.682   3.950  0.00  0.00     0.033 C 
HETATM   31  C   UNK N   1      23.547  19.016   4.026  0.00  0.00     0.120 C 
HETATM   32  C   UNK N   1      24.405  20.106   3.356  0.00  0.00     0.033 C 
HETATM   33  C   UNK N   1      25.859  20.144   3.843  0.00  0.00     0.016 C 
BRANCH  31  34
HETATM   34  O   UNK N   1      22.318  18.883   3.359  0.00  0.00    -0.391 OA
HETATM   35  C   UNK N   1      21.993  20.127   2.801  0.00  0.00     0.202 C 
ENDBRANCH  31  34
ENDBRANCH  25  28
ENDBRANCH   4  24
TORSDOF 6
ENDMDL
