MODEL 1
REMARK VINA RESULT:      -8.2      0.000      0.000
REMARK  4 active torsions:
REMARK  status: ('A' for Active; 'I' for Inactive)
REMARK       I    between atoms: N_2  and  C_3 
REMARK    1  A    between atoms: C_3  and  C_5 
REMARK    2  A    between atoms: C_5  and  N_6 
REMARK    3  A    between atoms: C_9  and  N_12 
REMARK       I    between atoms: N_12  and  C_13 
REMARK    4  A    between atoms: C_16  and  C_21 
ROOT
HETATM    1  N   UNK N   1      32.347  17.191   9.099  0.00  0.00    -0.221 N 
HETATM    2  C   UNK N   1      30.963  17.286   8.847  0.00  0.00     0.678 A 
HETATM    3  N   UNK N   1      30.515  17.499   7.585  0.00  0.00    -0.190 N 
ATOM      4  HN  UNK N   1      31.186  17.559   6.819  1.00  0.00     0.184 HD
HETATM    5  C   UNK N   1      29.189  17.632   7.323  0.00  0.00     0.079 A 
HETATM    6  C   UNK N   1      28.267  17.521   8.368  0.00  0.00     0.050 A 
HETATM    7  C   UNK N   1      28.743  17.296   9.658  0.00  0.00     0.108 A 
HETATM    8  N   UNK N   1      30.080  17.201   9.879  0.00  0.00    -0.202 N 
ATOM      9  HN  UNK N   1      30.426  17.065  10.828  1.00  0.00     0.183 HD
HETATM   10  H   UNK N   1      32.780  17.874   9.660  0.00  0.00     0.178 HD
ENDROOT
BRANCH   1  11
HETATM   11  C   UNK N   1      33.142  16.121   8.556  0.00  0.00     0.102 C 
HETATM   12  C   UNK N   1      34.610  16.487   8.792  0.00  0.00     0.056 C 
HETATM   13  C   UNK N   1      35.526  15.264   8.926  0.00  0.00     0.275 C 
HETATM   14  N   UNK N   1      35.033  14.357   9.964  0.00  0.00     0.097 N 
HETATM   15  C   UNK N   1      33.773  13.787   9.471  0.00  0.00     0.275 C 
HETATM   16  C   UNK N   1      32.692  14.850   9.290  0.00  0.00     0.056 C 
BRANCH  14  17
HETATM   17  C   UNK N   1      34.962  15.100  11.242  0.00  0.00     0.374 C 
BRANCH  17  18
HETATM   18  C   UNK N   1      35.338  14.339  12.485  0.00  0.00     0.245 C 
HETATM   19  N   UNK N   1      36.339  14.799  13.268  0.00  0.00    -0.364 N 
HETATM   20  C   UNK N   1      36.688  14.149  14.507  0.00  0.00     0.149 C 
HETATM   21  H   UNK N   1      36.842  15.597  12.985  0.00  0.00     0.161 HD
HETATM   22  O   UNK N   1      34.686  13.363  12.826  0.00  0.00    -0.272 OA
ENDBRANCH  17  18
ENDBRANCH  14  17
ENDBRANCH   1  11
BRANCH   5  23
HETATM   23  C   UNK N   1      28.738  17.966   5.959  0.00  0.00     0.083 A 
HETATM   24  N   UNK N   1      27.970  19.017   5.628  0.00  0.00    -0.305 N 
HETATM   25  C   UNK N   1      27.450  20.015   6.390  0.00  0.00     0.099 A 
HETATM   26  C   UNK N   1      27.755  18.917   4.309  0.00  0.00     0.111 A 
HETATM   27  C   UNK N   1      26.653  20.984   5.765  0.00  0.00     0.018 A 
HETATM   28  C   UNK N   1      26.413  20.894   4.380  0.00  0.00     0.005 A 
HETATM   29  C   UNK N   1      26.971  19.845   3.631  0.00  0.00     0.049 A 
HETATM   30  N   UNK N   1      28.359  17.841   3.770  0.00  0.00    -0.350 N 
HETATM   31  C   UNK N   1      28.985  17.229   4.807  0.00  0.00     0.122 A 
ATOM     32  HN  UNK N   1      28.350  17.549   2.791  1.00  0.00     0.166 HD
ENDBRANCH   5  23
TORSDOF 4
ENDMDL
MODEL 2
REMARK VINA RESULT:      -7.5      5.770     10.331
REMARK  4 active torsions:
REMARK  status: ('A' for Active; 'I' for Inactive)
REMARK       I    between atoms: N_2  and  C_3 
REMARK    1  A    between atoms: C_3  and  C_5 
REMARK    2  A    between atoms: C_5  and  N_6 
REMARK    3  A    between atoms: C_9  and  N_12 
REMARK       I    between atoms: N_12  and  C_13 
REMARK    4  A    between atoms: C_16  and  C_21 
ROOT
HETATM    1  N   UNK N   1      23.567  18.287   5.391  0.00  0.00    -0.221 N 
HETATM    2  C   UNK N   1      24.816  18.738   4.917  0.00  0.00     0.678 A 
HETATM    3  N   UNK N   1      25.955  18.112   5.304  0.00  0.00    -0.190 N 
ATOM      4  HN  UNK N   1      25.897  17.298   5.914  1.00  0.00     0.184 HD
HETATM    5  C   UNK N   1      27.173  18.552   4.891  0.00  0.00     0.079 A 
HETATM    6  C   UNK N   1      27.252  19.651   4.032  0.00  0.00     0.050 A 
HETATM    7  C   UNK N   1      26.071  20.278   3.638  0.00  0.00     0.108 A 
HETATM    8  N   UNK N   1      24.878  19.824   4.100  0.00  0.00    -0.202 N 
ATOM      9  HN  UNK N   1      24.018  20.303   3.833  1.00  0.00     0.183 HD
HETATM   10  H   UNK N   1      23.031  18.878   5.968  0.00  0.00     0.178 HD
ENDROOT
BRANCH   1  11
HETATM   11  C   UNK N   1      23.056  16.984   5.053  0.00  0.00     0.102 C 
HETATM   12  C   UNK N   1      23.424  16.044   6.205  0.00  0.00     0.056 C 
HETATM   13  C   UNK N   1      22.442  14.878   6.372  0.00  0.00     0.275 C 
HETATM   14  N   UNK N   1      21.070  15.369   6.508  0.00  0.00     0.097 N 
HETATM   15  C   UNK N   1      20.694  15.948   5.213  0.00  0.00     0.275 C 
HETATM   16  C   UNK N   1      21.544  17.164   4.855  0.00  0.00     0.056 C 
BRANCH  14  17
HETATM   17  C   UNK N   1      21.009  16.276   7.676  0.00  0.00     0.374 C 
BRANCH  17  18
HETATM   18  C   UNK N   1      19.766  16.203   8.521  0.00  0.00     0.245 C 
HETATM   19  N   UNK N   1      19.019  17.315   8.702  0.00  0.00    -0.364 N 
HETATM   20  C   UNK N   1      17.781  17.281   9.440  0.00  0.00     0.149 C 
HETATM   21  H   UNK N   1      19.329  18.168   8.321  0.00  0.00     0.161 HD
HETATM   22  O   UNK N   1      19.390  15.128   8.966  0.00  0.00    -0.272 OA
ENDBRANCH  17  18
ENDBRANCH  14  17
ENDBRANCH   1  11
BRANCH   5  23
HETATM   23  C   UNK N   1      28.398  17.918   5.411  0.00  0.00     0.083 A 
HETATM   24  N   UNK N   1      28.860  18.028   6.667  0.00  0.00    -0.305 N 
HETATM   25  C   UNK N   1      28.355  18.680   7.747  0.00  0.00     0.099 A 
HETATM   26  C   UNK N   1      30.015  17.348   6.698  0.00  0.00     0.111 A 
HETATM   27  C   UNK N   1      29.078  18.638   8.948  0.00  0.00     0.018 A 
HETATM   28  C   UNK N   1      30.294  17.931   8.999  0.00  0.00     0.005 A 
HETATM   29  C   UNK N   1      30.779  17.271   7.858  0.00  0.00     0.049 A 
HETATM   30  N   UNK N   1      30.319  16.796   5.507  0.00  0.00    -0.350 N 
HETATM   31  C   UNK N   1      29.301  17.152   4.682  0.00  0.00     0.122 A 
ATOM     32  HN  UNK N   1      31.137  16.231   5.276  1.00  0.00     0.166 HD
ENDBRANCH   5  23
TORSDOF 4
ENDMDL
MODEL 3
REMARK VINA RESULT:      -7.3      5.675     11.173
REMARK  4 active torsions:
REMARK  status: ('A' for Active; 'I' for Inactive)
REMARK       I    between atoms: N_2  and  C_3 
REMARK    1  A    between atoms: C_3  and  C_5 
REMARK    2  A    between atoms: C_5  and  N_6 
REMARK    3  A    between atoms: C_9  and  N_12 
REMARK       I    between atoms: N_12  and  C_13 
REMARK    4  A    between atoms: C_16  and  C_21 
ROOT
HETATM    1  N   UNK N   1      23.728  18.353   5.560  0.00  0.00    -0.221 N 
HETATM    2  C   UNK N   1      24.975  18.797   5.073  0.00  0.00     0.678 A 
HETATM    3  N   UNK N   1      26.117  18.186   5.473  0.00  0.00    -0.190 N 
ATOM      4  HN  UNK N   1      26.063  17.386   6.104  1.00  0.00     0.184 HD
HETATM    5  C   UNK N   1      27.332  18.619   5.047  0.00  0.00     0.079 A 
HETATM    6  C   UNK N   1      27.405  19.697   4.160  0.00  0.00     0.050 A 
HETATM    7  C   UNK N   1      26.221  20.309   3.753  0.00  0.00     0.108 A 
HETATM    8  N   UNK N   1      25.030  19.863   4.229  0.00  0.00    -0.202 N 
ATOM      9  HN  UNK N   1      24.169  20.332   3.952  1.00  0.00     0.183 HD
HETATM   10  H   UNK N   1      23.191  18.956   6.122  0.00  0.00     0.178 HD
ENDROOT
BRANCH   1  11
HETATM   11  C   UNK N   1      23.222  17.041   5.255  0.00  0.00     0.102 C 
HETATM   12  C   UNK N   1      21.874  16.901   5.970  0.00  0.00     0.056 C 
HETATM   13  C   UNK N   1      20.910  15.941   5.264  0.00  0.00     0.275 C 
HETATM   14  N   UNK N   1      20.728  16.324   3.863  0.00  0.00     0.097 N 
HETATM   15  C   UNK N   1      22.007  16.083   3.185  0.00  0.00     0.275 C 
HETATM   16  C   UNK N   1      23.124  16.973   3.725  0.00  0.00     0.056 C 
BRANCH  14  17
HETATM   17  C   UNK N   1      20.212  17.711   3.818  0.00  0.00     0.374 C 
BRANCH  17  18
HETATM   18  C   UNK N   1      20.211  18.385   2.473  0.00  0.00     0.245 C 
HETATM   19  N   UNK N   1      20.770  19.610   2.344  0.00  0.00    -0.364 N 
HETATM   20  C   UNK N   1      20.862  20.266   1.064  0.00  0.00     0.149 C 
HETATM   21  H   UNK N   1      21.121  20.064   3.144  0.00  0.00     0.161 HD
HETATM   22  O   UNK N   1      19.788  17.793   1.491  0.00  0.00    -0.272 OA
ENDBRANCH  17  18
ENDBRANCH  14  17
ENDBRANCH   1  11
BRANCH   5  23
HETATM   23  C   UNK N   1      28.561  18.003   5.580  0.00  0.00     0.083 A 
HETATM   24  N   UNK N   1      28.967  18.055   6.860  0.00  0.00    -0.305 N 
HETATM   25  C   UNK N   1      28.392  18.620   7.953  0.00  0.00     0.099 A 
HETATM   26  C   UNK N   1      30.146  17.420   6.899  0.00  0.00     0.111 A 
HETATM   27  C   UNK N   1      29.067  18.533   9.180  0.00  0.00     0.018 A 
HETATM   28  C   UNK N   1      30.308  17.872   9.241  0.00  0.00     0.005 A 
HETATM   29  C   UNK N   1      30.866  17.303   8.084  0.00  0.00     0.049 A 
HETATM   30  N   UNK N   1      30.521  16.954   5.692  0.00  0.00    -0.350 N 
HETATM   31  C   UNK N   1      29.523  17.319   4.847  0.00  0.00     0.122 A 
ATOM     32  HN  UNK N   1      31.370  16.436   5.463  1.00  0.00     0.166 HD
ENDBRANCH   5  23
TORSDOF 4
ENDMDL
MODEL 4
REMARK VINA RESULT:      -7.3      2.831      9.618
REMARK  4 active torsions:
REMARK  status: ('A' for Active; 'I' for Inactive)
REMARK       I    between atoms: N_2  and  C_3 
REMARK    1  A    between atoms: C_3  and  C_5 
REMARK    2  A    between atoms: C_5  and  N_6 
REMARK    3  A    between atoms: C_9  and  N_12 
REMARK       I    between atoms: N_12  and  C_13 
REMARK    4  A    between atoms: C_16  and  C_21 
ROOT
HETATM    1  N   UNK N   1      31.690  17.775   8.013  0.00  0.00    -0.221 N 
HETATM    2  C   UNK N   1      32.861  16.993   7.957  0.00  0.00     0.678 A 
HETATM    3  N   UNK N   1      33.400  16.495   9.098  0.00  0.00    -0.190 N 
ATOM      4  HN  UNK N   1      32.935  16.668   9.989  1.00  0.00     0.184 HD
HETATM    5  C   UNK N   1      34.549  15.770   9.074  0.00  0.00     0.079 A 
HETATM    6  C   UNK N   1      35.172  15.509   7.851  0.00  0.00     0.050 A 
HETATM    7  C   UNK N   1      34.601  16.021   6.687  0.00  0.00     0.108 A 
HETATM    8  N   UNK N   1      33.469  16.768   6.761  0.00  0.00    -0.202 N 
ATOM      9  HN  UNK N   1      33.071  17.165   5.911  1.00  0.00     0.183 HD
HETATM   10  H   UNK N   1      31.732  18.721   7.741  0.00  0.00     0.178 HD
ENDROOT
BRANCH   1  11
HETATM   11  C   UNK N   1      30.435  17.228   8.456  0.00  0.00     0.102 C 
HETATM   12  C   UNK N   1      29.734  18.315   9.276  0.00  0.00     0.056 C 
HETATM   13  C   UNK N   1      28.204  18.207   9.243  0.00  0.00     0.275 C 
HETATM   14  N   UNK N   1      27.714  18.185   7.864  0.00  0.00     0.097 N 
HETATM   15  C   UNK N   1      28.158  16.917   7.273  0.00  0.00     0.275 C 
HETATM   16  C   UNK N   1      29.679  16.824   7.183  0.00  0.00     0.056 C 
BRANCH  14  17
HETATM   17  C   UNK N   1      28.166  19.420   7.184  0.00  0.00     0.374 C 
BRANCH  17  18
HETATM   18  C   UNK N   1      27.527  19.731   5.858  0.00  0.00     0.245 C 
HETATM   19  N   UNK N   1      26.180  19.815   5.774  0.00  0.00    -0.364 N 
HETATM   20  C   UNK N   1      25.522  20.184   4.545  0.00  0.00     0.149 C 
HETATM   21  H   UNK N   1      25.636  19.620   6.571  0.00  0.00     0.161 HD
HETATM   22  O   UNK N   1      28.223  19.990   4.888  0.00  0.00    -0.272 OA
ENDBRANCH  17  18
ENDBRANCH  14  17
ENDBRANCH   1  11
BRANCH   5  23
HETATM   23  C   UNK N   1      35.168  15.331  10.338  0.00  0.00     0.083 A 
HETATM   24  N   UNK N   1      35.174  14.073  10.808  0.00  0.00    -0.305 N 
HETATM   25  C   UNK N   1      34.677  12.924  10.280  0.00  0.00     0.099 A 
HETATM   26  C   UNK N   1      35.787  14.125  11.998  0.00  0.00     0.111 A 
HETATM   27  C   UNK N   1      34.814  11.739  11.017  0.00  0.00     0.018 A 
HETATM   28  C   UNK N   1      35.453  11.774  12.272  0.00  0.00     0.005 A 
HETATM   29  C   UNK N   1      35.952  12.985  12.779  0.00  0.00     0.049 A 
HETATM   30  N   UNK N   1      36.184  15.372  12.319  0.00  0.00    -0.350 N 
HETATM   31  C   UNK N   1      35.795  16.147  11.274  0.00  0.00     0.122 A 
ATOM     32  HN  UNK N   1      36.673  15.670  13.164  1.00  0.00     0.166 HD
ENDBRANCH   5  23
TORSDOF 4
ENDMDL
MODEL 5
REMARK VINA RESULT:      -7.2      4.307     10.124
REMARK  4 active torsions:
REMARK  status: ('A' for Active; 'I' for Inactive)
REMARK       I    between atoms: N_2  and  C_3 
REMARK    1  A    between atoms: C_3  and  C_5 
REMARK    2  A    between atoms: C_5  and  N_6 
REMARK    3  A    between atoms: C_9  and  N_12 
REMARK       I    between atoms: N_12  and  C_13 
REMARK    4  A    between atoms: C_16  and  C_21 
ROOT
HETATM    1  N   UNK N   1      35.267  16.275   9.570  0.00  0.00    -0.221 N 
HETATM    2  C   UNK N   1      35.973  15.198  10.145  0.00  0.00     0.678 A 
HETATM    3  N   UNK N   1      35.704  14.811  11.417  0.00  0.00    -0.190 N 
ATOM      4  HN  UNK N   1      34.970  15.286  11.940  1.00  0.00     0.184 HD
HETATM    5  C   UNK N   1      36.397  13.801  12.005  0.00  0.00     0.079 A 
HETATM    6  C   UNK N   1      37.385  13.131  11.278  0.00  0.00     0.050 A 
HETATM    7  C   UNK N   1      37.643  13.536   9.970  0.00  0.00     0.108 A 
HETATM    8  N   UNK N   1      36.947  14.571   9.432  0.00  0.00    -0.202 N 
ATOM      9  HN  UNK N   1      37.159  14.883   8.485  1.00  0.00     0.183 HD
HETATM   10  H   UNK N   1      35.756  17.093   9.327  0.00  0.00     0.178 HD
ENDROOT
BRANCH   1  11
HETATM   11  C   UNK N   1      33.849  16.207   9.332  0.00  0.00     0.102 C 
HETATM   12  C   UNK N   1      33.445  17.516   8.646  0.00  0.00     0.056 C 
HETATM   13  C   UNK N   1      32.220  17.371   7.735  0.00  0.00     0.275 C 
HETATM   14  N   UNK N   1      32.425  16.303   6.756  0.00  0.00     0.097 N 
HETATM   15  C   UNK N   1      32.448  15.038   7.501  0.00  0.00     0.275 C 
HETATM   16  C   UNK N   1      33.627  14.959   8.467  0.00  0.00     0.056 C 
BRANCH  14  17
HETATM   17  C   UNK N   1      33.634  16.618   5.961  0.00  0.00     0.374 C 
BRANCH  17  18
HETATM   18  C   UNK N   1      33.659  16.113   4.544  0.00  0.00     0.245 C 
HETATM   19  N   UNK N   1      34.213  14.909   4.278  0.00  0.00    -0.364 N 
HETATM   20  C   UNK N   1      34.195  14.346   2.951  0.00  0.00     0.149 C 
HETATM   21  H   UNK N   1      34.639  14.404   5.009  0.00  0.00     0.161 HD
HETATM   22  O   UNK N   1      33.105  16.747   3.658  0.00  0.00    -0.272 OA
ENDBRANCH  17  18
ENDBRANCH  14  17
ENDBRANCH   1  11
BRANCH   5  23
HETATM   23  C   UNK N   1      36.157  13.473  13.422  0.00  0.00     0.083 A 
HETATM   24  N   UNK N   1      35.389  12.465  13.869  0.00  0.00    -0.305 N 
HETATM   25  C   UNK N   1      34.690  11.513  13.197  0.00  0.00     0.099 A 
HETATM   26  C   UNK N   1      35.400  12.557  15.206  0.00  0.00     0.111 A 
HETATM   27  C   UNK N   1      33.947  10.584  13.940  0.00  0.00     0.018 A 
HETATM   28  C   UNK N   1      33.945  10.666  15.346  0.00  0.00     0.005 A 
HETATM   29  C   UNK N   1      34.682  11.667  15.999  0.00  0.00     0.049 A 
HETATM   30  N   UNK N   1      36.152  13.585  15.645  0.00  0.00    -0.350 N 
HETATM   31  C   UNK N   1      36.635  14.175  14.522  0.00  0.00     0.122 A 
ATOM     32  HN  UNK N   1      36.321  13.861  16.613  1.00  0.00     0.166 HD
ENDBRANCH   5  23
TORSDOF 4
ENDMDL
MODEL 6
REMARK VINA RESULT:      -7.1      4.367      9.786
REMARK  4 active torsions:
REMARK  status: ('A' for Active; 'I' for Inactive)
REMARK       I    between atoms: N_2  and  C_3 
REMARK    1  A    between atoms: C_3  and  C_5 
REMARK    2  A    between atoms: C_5  and  N_6 
REMARK    3  A    between atoms: C_9  and  N_12 
REMARK       I    between atoms: N_12  and  C_13 
REMARK    4  A    between atoms: C_16  and  C_21 
ROOT
HETATM    1  N   UNK N   1      26.961  17.976   6.579  0.00  0.00    -0.221 N 
HETATM    2  C   UNK N   1      28.110  18.031   7.395  0.00  0.00     0.678 A 
HETATM    3  N   UNK N   1      29.281  17.507   6.955  0.00  0.00    -0.190 N 
ATOM      4  HN  UNK N   1      29.329  17.102   6.021  1.00  0.00     0.184 HD
HETATM    5  C   UNK N   1      30.391  17.514   7.738  0.00  0.00     0.079 A 
HETATM    6  C   UNK N   1      30.334  18.095   9.007  0.00  0.00     0.050 A 
HETATM    7  C   UNK N   1      29.124  18.635   9.441  0.00  0.00     0.108 A 
HETATM    8  N   UNK N   1      28.031  18.578   8.637  0.00  0.00    -0.202 N 
ATOM      9  HN  UNK N   1      27.141  18.948   8.970  1.00  0.00     0.183 HD
HETATM   10  H   UNK N   1      26.188  17.444   6.875  0.00  0.00     0.178 HD
ENDROOT
BRANCH   1  11
HETATM   11  C   UNK N   1      26.892  18.678   5.324  0.00  0.00     0.102 C 
HETATM   12  C   UNK N   1      26.280  17.714   4.302  0.00  0.00     0.056 C 
HETATM   13  C   UNK N   1      25.519  18.426   3.178  0.00  0.00     0.275 C 
HETATM   14  N   UNK N   1      24.505  19.328   3.726  0.00  0.00     0.097 N 
HETATM   15  C   UNK N   1      25.222  20.420   4.396  0.00  0.00     0.275 C 
HETATM   16  C   UNK N   1      26.039  19.927   5.588  0.00  0.00     0.056 C 
BRANCH  14  17
HETATM   17  C   UNK N   1      23.578  18.538   4.568  0.00  0.00     0.374 C 
BRANCH  17  18
HETATM   18  C   UNK N   1      22.108  18.783   4.362  0.00  0.00     0.245 C 
HETATM   19  N   UNK N   1      21.705  19.609   3.370  0.00  0.00    -0.364 N 
HETATM   20  C   UNK N   1      20.308  19.819   3.083  0.00  0.00     0.149 C 
HETATM   21  H   UNK N   1      22.382  20.079   2.831  0.00  0.00     0.161 HD
HETATM   22  O   UNK N   1      21.285  18.173   5.029  0.00  0.00    -0.272 OA
ENDBRANCH  17  18
ENDBRANCH  14  17
ENDBRANCH   1  11
BRANCH   5  23
HETATM   23  C   UNK N   1      31.621  16.845   7.276  0.00  0.00     0.083 A 
HETATM   24  N   UNK N   1      32.048  16.791   6.003  0.00  0.00    -0.305 N 
HETATM   25  C   UNK N   1      31.528  17.323   4.866  0.00  0.00     0.099 A 
HETATM   26  C   UNK N   1      33.163  16.048   6.019  0.00  0.00     0.111 A 
HETATM   27  C   UNK N   1      32.190  17.083   3.654  0.00  0.00     0.018 A 
HETATM   28  C   UNK N   1      33.362  16.302   3.650  0.00  0.00     0.005 A 
HETATM   29  C   UNK N   1      33.865  15.771   4.849  0.00  0.00     0.049 A 
HETATM   30  N   UNK N   1      33.479  15.620   7.256  0.00  0.00    -0.350 N 
HETATM   31  C   UNK N   1      32.507  16.117   8.062  0.00  0.00     0.122 A 
ATOM     32  HN  UNK N   1      34.278  15.046   7.528  1.00  0.00     0.166 HD
ENDBRANCH   5  23
TORSDOF 4
ENDMDL
MODEL 7
REMARK VINA RESULT:      -7.1      1.815      2.953
REMARK  4 active torsions:
REMARK  status: ('A' for Active; 'I' for Inactive)
REMARK       I    between atoms: N_2  and  C_3 
REMARK    1  A    between atoms: C_3  and  C_5 
REMARK    2  A    between atoms: C_5  and  N_6 
REMARK    3  A    between atoms: C_9  and  N_12 
REMARK       I    between atoms: N_12  and  C_13 
REMARK    4  A    between atoms: C_16  and  C_21 
ROOT
HETATM    1  N   UNK N   1      33.312  14.126   8.578  0.00  0.00    -0.221 N 
HETATM    2  C   UNK N   1      32.342  14.559   7.652  0.00  0.00     0.678 A 
HETATM    3  N   UNK N   1      31.558  15.628   7.939  0.00  0.00    -0.190 N 
ATOM      4  HN  UNK N   1      31.697  16.131   8.815  1.00  0.00     0.184 HD
HETATM    5  C   UNK N   1      30.591  16.041   7.079  0.00  0.00     0.079 A 
HETATM    6  C   UNK N   1      30.417  15.370   5.865  0.00  0.00     0.050 A 
HETATM    7  C   UNK N   1      31.236  14.278   5.583  0.00  0.00     0.108 A 
HETATM    8  N   UNK N   1      32.169  13.881   6.486  0.00  0.00    -0.202 N 
ATOM      9  HN  UNK N   1      32.747  13.064   6.288  1.00  0.00     0.183 HD
HETATM   10  H   UNK N   1      33.218  13.238   8.991  0.00  0.00     0.178 HD
ENDROOT
BRANCH   1  11
HETATM   11  C   UNK N   1      34.437  14.951   8.936  0.00  0.00     0.102 C 
HETATM   12  C   UNK N   1      34.130  15.560  10.307  0.00  0.00     0.056 C 
HETATM   13  C   UNK N   1      35.388  15.871  11.127  0.00  0.00     0.275 C 
HETATM   14  N   UNK N   1      36.234  14.682  11.253  0.00  0.00     0.097 N 
HETATM   15  C   UNK N   1      36.762  14.390   9.915  0.00  0.00     0.275 C 
HETATM   16  C   UNK N   1      35.659  14.022   8.926  0.00  0.00     0.056 C 
BRANCH  14  17
HETATM   17  C   UNK N   1      35.442  13.608  11.895  0.00  0.00     0.374 C 
BRANCH  17  18
HETATM   18  C   UNK N   1      35.607  13.449  13.382  0.00  0.00     0.245 C 
HETATM   19  N   UNK N   1      36.795  13.748  13.955  0.00  0.00    -0.364 N 
HETATM   20  C   UNK N   1      36.981  13.684  15.383  0.00  0.00     0.149 C 
HETATM   21  H   UNK N   1      37.550  14.015  13.382  0.00  0.00     0.161 HD
HETATM   22  O   UNK N   1      34.649  13.137  14.075  0.00  0.00    -0.272 OA
ENDBRANCH  17  18
ENDBRANCH  14  17
ENDBRANCH   1  11
BRANCH   5  23
HETATM   23  C   UNK N   1      29.685  17.139   7.463  0.00  0.00     0.083 A 
HETATM   24  N   UNK N   1      29.077  17.982   6.612  0.00  0.00    -0.305 N 
HETATM   25  C   UNK N   1      29.095  18.043   5.255  0.00  0.00     0.099 A 
HETATM   26  C   UNK N   1      28.397  18.850   7.374  0.00  0.00     0.111 A 
HETATM   27  C   UNK N   1      28.368  19.063   4.624  0.00  0.00     0.018 A 
HETATM   28  C   UNK N   1      27.649  19.986   5.408  0.00  0.00     0.005 A 
HETATM   29  C   UNK N   1      27.659  19.885   6.809  0.00  0.00     0.049 A 
HETATM   30  N   UNK N   1      28.538  18.600   8.690  0.00  0.00    -0.350 N 
HETATM   31  C   UNK N   1      29.354  17.517   8.759  0.00  0.00     0.122 A 
ATOM     32  HN  UNK N   1      28.119  19.112   9.467  1.00  0.00     0.166 HD
ENDBRANCH   5  23
TORSDOF 4
ENDMDL
MODEL 8
REMARK VINA RESULT:      -7.1      2.675      3.177
REMARK  4 active torsions:
REMARK  status: ('A' for Active; 'I' for Inactive)
REMARK       I    between atoms: N_2  and  C_3 
REMARK    1  A    between atoms: C_3  and  C_5 
REMARK    2  A    between atoms: C_5  and  N_6 
REMARK    3  A    between atoms: C_9  and  N_12 
REMARK       I    between atoms: N_12  and  C_13 
REMARK    4  A    between atoms: C_16  and  C_21 
ROOT
HETATM    1  N   UNK N   1      34.329  16.263   8.557  0.00  0.00    -0.221 N 
HETATM    2  C   UNK N   1      33.026  16.641   8.175  0.00  0.00     0.678 A 
HETATM    3  N   UNK N   1      32.605  16.436   6.902  0.00  0.00    -0.190 N 
ATOM      4  HN  UNK N   1      33.228  15.981   6.236  1.00  0.00     0.184 HD
HETATM    5  C   UNK N   1      31.367  16.826   6.501  0.00  0.00     0.079 A 
HETATM    6  C   UNK N   1      30.502  17.424   7.421  0.00  0.00     0.050 A 
HETATM    7  C   UNK N   1      30.948  17.621   8.727  0.00  0.00     0.108 A 
HETATM    8  N   UNK N   1      32.205  17.244   9.077  0.00  0.00    -0.202 N 
ATOM      9  HN  UNK N   1      32.538  17.416  10.025  1.00  0.00     0.183 HD
HETATM   10  H   UNK N   1      34.970  16.959   8.828  0.00  0.00     0.178 HD
ENDROOT
BRANCH   1  11
HETATM   11  C   UNK N   1      34.746  14.885   8.560  0.00  0.00     0.102 C 
HETATM   12  C   UNK N   1      36.179  14.850   9.101  0.00  0.00     0.056 C 
HETATM   13  C   UNK N   1      36.529  13.532   9.803  0.00  0.00     0.275 C 
HETATM   14  N   UNK N   1      35.559  13.229  10.855  0.00  0.00     0.097 N 
HETATM   15  C   UNK N   1      34.284  12.933  10.190  0.00  0.00     0.275 C 
HETATM   16  C   UNK N   1      33.731  14.141   9.438  0.00  0.00     0.056 C 
BRANCH  14  17
HETATM   17  C   UNK N   1      35.549  14.350  11.822  0.00  0.00     0.374 C 
BRANCH  17  18
HETATM   18  C   UNK N   1      35.714  13.989  13.274  0.00  0.00     0.245 C 
HETATM   19  N   UNK N   1      36.753  14.500  13.971  0.00  0.00    -0.364 N 
HETATM   20  C   UNK N   1      36.914  14.245  15.381  0.00  0.00     0.149 C 
HETATM   21  H   UNK N   1      37.415  15.060  13.505  0.00  0.00     0.161 HD
HETATM   22  O   UNK N   1      34.867  13.310  13.836  0.00  0.00    -0.272 OA
ENDBRANCH  17  18
ENDBRANCH  14  17
ENDBRANCH   1  11
BRANCH   5  23
HETATM   23  C   UNK N   1      30.975  16.687   5.086  0.00  0.00     0.083 A 
HETATM   24  N   UNK N   1      30.038  15.846   4.616  0.00  0.00    -0.305 N 
HETATM   25  C   UNK N   1      29.223  14.971   5.262  0.00  0.00     0.099 A 
HETATM   26  C   UNK N   1      30.038  16.000   3.285  0.00  0.00     0.111 A 
HETATM   27  C   UNK N   1      28.342  14.194   4.497  0.00  0.00     0.018 A 
HETATM   28  C   UNK N   1      28.329  14.340   3.096  0.00  0.00     0.005 A 
HETATM   29  C   UNK N   1      29.189  15.257   2.471  0.00  0.00     0.049 A 
HETATM   30  N   UNK N   1      30.938  16.913   2.872  0.00  0.00    -0.350 N 
HETATM   31  C   UNK N   1      31.540  17.354   4.006  0.00  0.00     0.122 A 
ATOM     32  HN  UNK N   1      31.126  17.210   1.914  1.00  0.00     0.166 HD
ENDBRANCH   5  23
TORSDOF 4
ENDMDL
MODEL 9
REMARK VINA RESULT:      -7.0      3.893      9.686
REMARK  4 active torsions:
REMARK  status: ('A' for Active; 'I' for Inactive)
REMARK       I    between atoms: N_2  and  C_3 
REMARK    1  A    between atoms: C_3  and  C_5 
REMARK    2  A    between atoms: C_5  and  N_6 
REMARK    3  A    between atoms: C_9  and  N_12 
REMARK       I    between atoms: N_12  and  C_13 
REMARK    4  A    between atoms: C_16  and  C_21 
ROOT
HETATM    1  N   UNK N   1      27.805  16.752   6.395  0.00  0.00    -0.221 N 
HETATM    2  C   UNK N   1      28.631  17.315   7.390  0.00  0.00     0.678 A 
HETATM    3  N   UNK N   1      29.975  17.145   7.334  0.00  0.00    -0.190 N 
ATOM      4  HN  UNK N   1      30.383  16.633   6.552  1.00  0.00     0.184 HD
HETATM    5  C   UNK N   1      30.787  17.645   8.301  0.00  0.00     0.079 A 
HETATM    6  C   UNK N   1      30.232  18.370   9.358  0.00  0.00     0.050 A 
HETATM    7  C   UNK N   1      28.849  18.542   9.397  0.00  0.00     0.108 A 
HETATM    8  N   UNK N   1      28.072  17.998   8.426  0.00  0.00    -0.202 N 
ATOM      9  HN  UNK N   1      27.059  18.101   8.474  1.00  0.00     0.183 HD
HETATM   10  H   UNK N   1      27.163  16.049   6.646  0.00  0.00     0.178 HD
ENDROOT
BRANCH   1  11
HETATM   11  C   UNK N   1      27.878  17.180   5.023  0.00  0.00     0.102 C 
HETATM   12  C   UNK N   1      26.770  16.444   4.263  0.00  0.00     0.056 C 
HETATM   13  C   UNK N   1      26.251  17.220   3.046  0.00  0.00     0.275 C 
HETATM   14  N   UNK N   1      25.825  18.567   3.432  0.00  0.00     0.097 N 
HETATM   15  C   UNK N   1      27.034  19.304   3.816  0.00  0.00     0.275 C 
HETATM   16  C   UNK N   1      27.708  18.705   5.048  0.00  0.00     0.056 C 
BRANCH  14  17
HETATM   17  C   UNK N   1      24.771  18.449   4.465  0.00  0.00     0.374 C 
BRANCH  17  18
HETATM   18  C   UNK N   1      23.427  19.033   4.125  0.00  0.00     0.245 C 
HETATM   19  N   UNK N   1      22.307  18.443   4.600  0.00  0.00    -0.364 N 
HETATM   20  C   UNK N   1      21.000  19.005   4.367  0.00  0.00     0.149 C 
HETATM   21  H   UNK N   1      22.386  17.609   5.118  0.00  0.00     0.161 HD
HETATM   22  O   UNK N   1      23.355  20.080   3.499  0.00  0.00    -0.272 OA
ENDBRANCH  17  18
ENDBRANCH  14  17
ENDBRANCH   1  11
BRANCH   5  23
HETATM   23  C   UNK N   1      32.232  17.355   8.270  0.00  0.00     0.083 A 
HETATM   24  N   UNK N   1      32.793  16.159   8.515  0.00  0.00    -0.305 N 
HETATM   25  C   UNK N   1      32.233  14.958   8.810  0.00  0.00     0.099 A 
HETATM   26  C   UNK N   1      34.117  16.349   8.435  0.00  0.00     0.111 A 
HETATM   27  C   UNK N   1      33.081  13.866   9.042  0.00  0.00     0.018 A 
HETATM   28  C   UNK N   1      34.476  14.045   8.965  0.00  0.00     0.005 A 
HETATM   29  C   UNK N   1      35.012  15.306   8.657  0.00  0.00     0.049 A 
HETATM   30  N   UNK N   1      34.439  17.624   8.143  0.00  0.00    -0.350 N 
HETATM   31  C   UNK N   1      33.251  18.273   8.037  0.00  0.00     0.122 A 
ATOM     32  HN  UNK N   1      35.373  18.017   8.025  1.00  0.00     0.166 HD
ENDBRANCH   5  23
TORSDOF 4
ENDMDL
