REMARK  4 active torsions:
REMARK  status: ('A' for Active; 'I' for Inactive)
REMARK       I    between atoms: N_2  and  C_3 
REMARK    1  A    between atoms: C_3  and  C_5 
REMARK    2  A    between atoms: C_5  and  N_6 
REMARK    3  A    between atoms: C_9  and  N_12 
REMARK       I    between atoms: N_12  and  C_13 
REMARK    4  A    between atoms: C_16  and  C_21 
ROOT
HETATM    1  N   UNK N   1      -0.317   0.546  -1.023  0.00  0.00    -0.221 N 
HETATM    2  C   UNK N   1      -1.094  -0.596  -0.740  0.00  0.00     0.678 A 
HETATM    3  N   UNK N   1      -0.489  -1.767  -0.421  0.00  0.00    -0.190 N 
ATOM      4  HN  UNK N   1       0.528  -1.805  -0.359  1.00  0.00     0.184 HD
HETATM    5  C   UNK N   1      -1.215  -2.890  -0.181  0.00  0.00     0.079 A 
HETATM    6  C   UNK N   1      -2.610  -2.832  -0.238  0.00  0.00     0.050 A 
HETATM    7  C   UNK N   1      -3.216  -1.619  -0.560  0.00  0.00     0.108 A 
HETATM    8  N   UNK N   1      -2.450  -0.529  -0.823  0.00  0.00    -0.202 N 
ATOM      9  HN  UNK N   1      -2.896   0.349  -1.087  1.00  0.00     0.183 HD
HETATM   10  H   UNK N   1      -0.344   0.932  -1.928  0.00  0.00     0.178 HD
ENDROOT
BRANCH   1  11
HETATM   11  C   UNK N   1       0.515   1.161  -0.022  0.00  0.00     0.102 C 
HETATM   12  C   UNK N   1       1.389   2.196  -0.737  0.00  0.00     0.056 C 
HETATM   13  C   UNK N   1       1.801   3.367   0.163  0.00  0.00     0.275 C 
HETATM   14  N   UNK N   1       0.626   3.995   0.769  0.00  0.00     0.097 N 
HETATM   15  C   UNK N   1       0.060   3.023   1.712  0.00  0.00     0.275 C 
HETATM   16  C   UNK N   1      -0.447   1.766   1.010  0.00  0.00     0.056 C 
BRANCH  14  17
HETATM   17  C   UNK N   1      -0.271   4.458  -0.314  0.00  0.00     0.374 C 
BRANCH  17  18
HETATM   18  C   UNK N   1      -1.720   4.645   0.046  0.00  0.00     0.245 C 
HETATM   19  N   UNK N   1      -2.265   5.881  -0.014  0.00  0.00    -0.364 N 
HETATM   20  C   UNK N   1      -3.665   6.102   0.248  0.00  0.00     0.149 C 
HETATM   21  H   UNK N   1      -1.691   6.648  -0.242  0.00  0.00     0.161 HD
HETATM   22  O   UNK N   1      -2.417   3.675   0.305  0.00  0.00    -0.272 OA
ENDBRANCH  17  18
ENDBRANCH  14  17
ENDBRANCH   1  11
BRANCH   5  23
HETATM   23  C   UNK N   1      -0.528  -4.172   0.060  0.00  0.00     0.083 A 
HETATM   24  N   UNK N   1       0.802  -4.360   0.038  0.00  0.00    -0.305 N 
HETATM   25  C   UNK N   1       1.821  -3.485  -0.167  0.00  0.00     0.099 A 
HETATM   26  C   UNK N   1       0.994  -5.669   0.251  0.00  0.00     0.111 A 
HETATM   27  C   UNK N   1       3.134  -3.977  -0.154  0.00  0.00     0.018 A 
HETATM   28  C   UNK N   1       3.356  -5.350   0.066  0.00  0.00     0.005 A 
HETATM   29  C   UNK N   1       2.272  -6.219   0.273  0.00  0.00     0.049 A 
HETATM   30  N   UNK N   1      -0.163  -6.339   0.415  0.00  0.00    -0.350 N 
HETATM   31  C   UNK N   1      -1.136  -5.400   0.294  0.00  0.00     0.122 A 
ATOM     32  HN  UNK N   1      -0.282  -7.337   0.593  1.00  0.00     0.166 HD
ENDBRANCH   5  23
TORSDOF 4
