MODEL 1
REMARK VINA RESULT:      -6.8      0.000      0.000
REMARK  8 active torsions:
REMARK  status: ('A' for Active; 'I' for Inactive)
REMARK    1  A    between atoms: N_3  and  C_14 
REMARK       I    between atoms: N_3  and  C_15 
REMARK    2  A    between atoms: S_5  and  C_17 
REMARK    3  A    between atoms: C_18  and  S_5 
REMARK    4  A    between atoms: N_7  and  C_16 
REMARK       I    between atoms: N_7  and  C_15 
REMARK    5  A    between atoms: C_23  and  N_10 
REMARK    6  A    between atoms: C_17  and  C_16 
REMARK    7  A    between atoms: C_18  and  C_19 
REMARK    8  A    between atoms: C_22  and  C_23 
ROOT
HETATM    1  N   UNK N   1      36.754  13.945  14.452  0.00  0.00    -0.309 N 
HETATM    2  O   UNK N   1      34.956  13.816  13.106  0.00  0.00    -0.247 OA
HETATM    3  N   UNK N   1      36.586  15.210  12.484  0.00  0.00    -0.342 N 
HETATM    4  C   UNK N   1      36.046  14.315  13.348  0.00  0.00     0.320 C 
HETATM    5  H   UNK N   1      37.615  14.397  14.604  0.00  0.00     0.170 HD
HETATM    6  H   UNK N   1      37.452  15.625  12.700  0.00  0.00     0.164 HD
ENDROOT
BRANCH   3   7
HETATM    7  C   UNK N   1      35.917  15.569  11.256  0.00  0.00     0.134 C 
BRANCH   7   8
HETATM    8  C   UNK N   1      36.542  14.851  10.076  0.00  0.00     0.094 C 
BRANCH   8   9
HETATM    9  S   UNK N   1      35.265  14.415   8.858  0.00  0.00    -0.161 SA
BRANCH   9  10
HETATM   10  C   UNK N   1      33.885  15.028   9.881  0.00  0.00     0.139 C 
BRANCH  10  11
HETATM   11  C   UNK N   1      33.189  16.141   9.169  0.00  0.00     0.062 A 
HETATM   12  C   UNK N   1      33.792  17.283   8.677  0.00  0.00     0.036 A 
HETATM   13  C   UNK N   1      32.787  17.992   8.044  0.00  0.00     0.037 A 
HETATM   14  C   UNK N   1      31.641  17.236   8.203  0.00  0.00     0.081 A 
HETATM   15  O   UNK N   1      31.912  16.143   8.873  0.00  0.00    -0.317 OA
BRANCH  14  16
HETATM   16  C   UNK N   1      30.293  17.558   7.632  0.00  0.00     0.335 C 
BRANCH  16  17
HETATM   17  N   UNK N   1      29.230  17.296   8.592  0.00  0.00     0.086 N 
HETATM   18  C   UNK N   1      27.991  17.208   7.841  0.00  0.00     0.309 C 
HETATM   19  C   UNK N   1      29.108  18.471   9.440  0.00  0.00     0.309 C 
ENDBRANCH  16  17
ENDBRANCH  14  16
ENDBRANCH  10  11
ENDBRANCH   9  10
ENDBRANCH   8   9
ENDBRANCH   7   8
ENDBRANCH   3   7
BRANCH   1  20
HETATM   20  C   UNK N   1      36.357  12.962  15.408  0.00  0.00     0.037 A 
HETATM   21  C   UNK N   1      36.811  11.634  15.345  0.00  0.00     0.054 A 
HETATM   22  C   UNK N   1      36.445  10.704  16.321  0.00  0.00     0.042 A 
HETATM   23 Cl   UNK N   1      37.045   9.058  16.192  0.00  0.00    -0.084 Cl
HETATM   24  C   UNK N   1      35.617  11.101  17.385  0.00  0.00    -0.040 A 
HETATM   25  C   UNK N   1      35.220  10.140  18.453  0.00  0.00     0.050 C 
HETATM   26  C   UNK N   1      35.158  12.420  17.450  0.00  0.00     0.011 A 
HETATM   27  C   UNK N   1      35.525  13.344  16.466  0.00  0.00     0.030 A 
ENDBRANCH   1  20
TORSDOF 8
ENDMDL
MODEL 2
REMARK VINA RESULT:      -6.6      1.893      2.350
REMARK  8 active torsions:
REMARK  status: ('A' for Active; 'I' for Inactive)
REMARK    1  A    between atoms: N_3  and  C_14 
REMARK       I    between atoms: N_3  and  C_15 
REMARK    2  A    between atoms: S_5  and  C_17 
REMARK    3  A    between atoms: C_18  and  S_5 
REMARK    4  A    between atoms: N_7  and  C_16 
REMARK       I    between atoms: N_7  and  C_15 
REMARK    5  A    between atoms: C_23  and  N_10 
REMARK    6  A    between atoms: C_17  and  C_16 
REMARK    7  A    between atoms: C_18  and  C_19 
REMARK    8  A    between atoms: C_22  and  C_23 
ROOT
HETATM    1  N   UNK N   1      36.748  13.951  14.543  0.00  0.00    -0.309 N 
HETATM    2  O   UNK N   1      34.940  13.806  13.212  0.00  0.00    -0.247 OA
HETATM    3  N   UNK N   1      36.580  15.165  12.544  0.00  0.00    -0.342 N 
HETATM    4  C   UNK N   1      36.037  14.299  13.434  0.00  0.00     0.320 C 
HETATM    5  H   UNK N   1      37.615  14.398  14.678  0.00  0.00     0.170 HD
HETATM    6  H   UNK N   1      37.452  15.576  12.743  0.00  0.00     0.164 HD
ENDROOT
BRANCH   3   7
HETATM    7  C   UNK N   1      35.907  15.498  11.310  0.00  0.00     0.134 C 
BRANCH   7   8
HETATM    8  C   UNK N   1      36.480  14.702  10.155  0.00  0.00     0.094 C 
BRANCH   8   9
HETATM    9  S   UNK N   1      35.140  14.053   9.112  0.00  0.00    -0.161 SA
BRANCH   9  10
HETATM   10  C   UNK N   1      33.892  15.220   9.752  0.00  0.00     0.139 C 
BRANCH  10  11
HETATM   11  C   UNK N   1      33.569  16.233   8.704  0.00  0.00     0.062 A 
HETATM   12  C   UNK N   1      34.046  17.529   8.662  0.00  0.00     0.036 A 
HETATM   13  C   UNK N   1      33.544  18.073   7.493  0.00  0.00     0.037 A 
HETATM   14  C   UNK N   1      32.788  17.072   6.911  0.00  0.00     0.081 A 
HETATM   15  O   UNK N   1      32.824  15.992   7.652  0.00  0.00    -0.317 OA
BRANCH  14  16
HETATM   16  C   UNK N   1      32.091  17.160   5.587  0.00  0.00     0.335 C 
BRANCH  16  17
HETATM   17  N   UNK N   1      33.039  17.130   4.481  0.00  0.00     0.086 N 
HETATM   18  C   UNK N   1      32.266  17.220   3.256  0.00  0.00     0.309 C 
HETATM   19  C   UNK N   1      33.659  15.814   4.475  0.00  0.00     0.309 C 
ENDBRANCH  16  17
ENDBRANCH  14  16
ENDBRANCH  10  11
ENDBRANCH   9  10
ENDBRANCH   8   9
ENDBRANCH   7   8
ENDBRANCH   3   7
BRANCH   1  20
HETATM   20  C   UNK N   1      36.347  12.998  15.528  0.00  0.00     0.037 A 
HETATM   21  C   UNK N   1      36.770  11.659  15.486  0.00  0.00     0.054 A 
HETATM   22  C   UNK N   1      36.401  10.759  16.489  0.00  0.00     0.042 A 
HETATM   23 Cl   UNK N   1      36.961   9.097  16.384  0.00  0.00    -0.084 Cl
HETATM   24  C   UNK N   1      35.603  11.198  17.558  0.00  0.00    -0.040 A 
HETATM   25  C   UNK N   1      35.204  10.269  18.654  0.00  0.00     0.050 C 
HETATM   26  C   UNK N   1      35.174  12.528  17.603  0.00  0.00     0.011 A 
HETATM   27  C   UNK N   1      35.544  13.422  16.592  0.00  0.00     0.030 A 
ENDBRANCH   1  20
TORSDOF 8
ENDMDL
MODEL 3
REMARK VINA RESULT:      -6.5      2.140      2.515
REMARK  8 active torsions:
REMARK  status: ('A' for Active; 'I' for Inactive)
REMARK    1  A    between atoms: N_3  and  C_14 
REMARK       I    between atoms: N_3  and  C_15 
REMARK    2  A    between atoms: S_5  and  C_17 
REMARK    3  A    between atoms: C_18  and  S_5 
REMARK    4  A    between atoms: N_7  and  C_16 
REMARK       I    between atoms: N_7  and  C_15 
REMARK    5  A    between atoms: C_23  and  N_10 
REMARK    6  A    between atoms: C_17  and  C_16 
REMARK    7  A    between atoms: C_18  and  C_19 
REMARK    8  A    between atoms: C_22  and  C_23 
ROOT
HETATM    1  N   UNK N   1      34.228  11.849  13.980  0.00  0.00    -0.309 N 
HETATM    2  O   UNK N   1      36.244  12.345  13.113  0.00  0.00    -0.247 OA
HETATM    3  N   UNK N   1      34.535  12.204  11.682  0.00  0.00    -0.342 N 
HETATM    4  C   UNK N   1      35.054  12.125  12.932  0.00  0.00     0.320 C 
HETATM    5  H   UNK N   1      33.284  11.660  13.769  0.00  0.00     0.170 HD
HETATM    6  H   UNK N   1      33.582  12.000  11.543  0.00  0.00     0.164 HD
ENDROOT
BRANCH   3   7
HETATM    7  C   UNK N   1      35.351  12.579  10.551  0.00  0.00     0.134 C 
BRANCH   7   8
HETATM    8  C   UNK N   1      34.484  13.008   9.384  0.00  0.00     0.094 C 
BRANCH   8   9
HETATM    9  S   UNK N   1      35.415  14.114   8.282  0.00  0.00    -0.161 SA
BRANCH   9  10
HETATM   10  C   UNK N   1      35.331  15.540   9.417  0.00  0.00     0.139 C 
BRANCH  10  11
HETATM   11  C   UNK N   1      34.279  16.491   8.949  0.00  0.00     0.062 A 
HETATM   12  C   UNK N   1      34.509  17.729   8.380  0.00  0.00     0.036 A 
HETATM   13  C   UNK N   1      33.261  18.223   8.044  0.00  0.00     0.037 A 
HETATM   14  C   UNK N   1      32.358  17.254   8.442  0.00  0.00     0.081 A 
HETATM   15  O   UNK N   1      32.993  16.238   8.974  0.00  0.00    -0.317 OA
BRANCH  14  16
HETATM   16  C   UNK N   1      30.875  17.301   8.232  0.00  0.00     0.335 C 
BRANCH  16  17
HETATM   17  N   UNK N   1      30.537  17.278   6.815  0.00  0.00     0.086 N 
HETATM   18  C   UNK N   1      29.140  17.660   6.706  0.00  0.00     0.309 C 
HETATM   19  C   UNK N   1      30.616  15.896   6.370  0.00  0.00     0.309 C 
ENDBRANCH  16  17
ENDBRANCH  14  16
ENDBRANCH  10  11
ENDBRANCH   9  10
ENDBRANCH   8   9
ENDBRANCH   7   8
ENDBRANCH   3   7
BRANCH   1  20
HETATM   20  C   UNK N   1      34.607  11.809  15.356  0.00  0.00     0.037 A 
HETATM   21  C   UNK N   1      34.787  12.978  16.114  0.00  0.00     0.054 A 
HETATM   22  C   UNK N   1      35.112  12.909  17.471  0.00  0.00     0.042 A 
HETATM   23 Cl   UNK N   1      35.323  14.404  18.369  0.00  0.00    -0.084 Cl
HETATM   24  C   UNK N   1      35.254  11.656  18.089  0.00  0.00    -0.040 A 
HETATM   25  C   UNK N   1      35.584  11.545  19.539  0.00  0.00     0.050 C 
HETATM   26  C   UNK N   1      35.082  10.489  17.339  0.00  0.00     0.011 A 
HETATM   27  C   UNK N   1      34.761  10.566  15.979  0.00  0.00     0.030 A 
ENDBRANCH   1  20
TORSDOF 8
ENDMDL
MODEL 4
REMARK VINA RESULT:      -6.4      1.846      2.409
REMARK  8 active torsions:
REMARK  status: ('A' for Active; 'I' for Inactive)
REMARK    1  A    between atoms: N_3  and  C_14 
REMARK       I    between atoms: N_3  and  C_15 
REMARK    2  A    between atoms: S_5  and  C_17 
REMARK    3  A    between atoms: C_18  and  S_5 
REMARK    4  A    between atoms: N_7  and  C_16 
REMARK       I    between atoms: N_7  and  C_15 
REMARK    5  A    between atoms: C_23  and  N_10 
REMARK    6  A    between atoms: C_17  and  C_16 
REMARK    7  A    between atoms: C_18  and  C_19 
REMARK    8  A    between atoms: C_22  and  C_23 
ROOT
HETATM    1  N   UNK N   1      36.833  14.065  13.591  0.00  0.00    -0.309 N 
HETATM    2  O   UNK N   1      34.852  13.828  12.550  0.00  0.00    -0.247 OA
HETATM    3  N   UNK N   1      36.355  15.159  11.572  0.00  0.00    -0.342 N 
HETATM    4  C   UNK N   1      35.962  14.342  12.580  0.00  0.00     0.320 C 
HETATM    5  H   UNK N   1      37.703  14.525  13.572  0.00  0.00     0.170 HD
HETATM    6  H   UNK N   1      37.240  15.588  11.618  0.00  0.00     0.164 HD
ENDROOT
BRANCH   3   7
HETATM    7  C   UNK N   1      35.503  15.415  10.434  0.00  0.00     0.134 C 
BRANCH   7   8
HETATM    8  C   UNK N   1      35.172  16.891  10.334  0.00  0.00     0.094 C 
BRANCH   8   9
HETATM    9  S   UNK N   1      34.427  17.259   8.717  0.00  0.00    -0.161 SA
BRANCH   9  10
HETATM   10  C   UNK N   1      33.137  15.978   8.866  0.00  0.00     0.139 C 
BRANCH  10  11
HETATM   11  C   UNK N   1      31.861  16.481   8.278  0.00  0.00     0.062 A 
HETATM   12  C   UNK N   1      31.151  17.582   8.718  0.00  0.00     0.036 A 
HETATM   13  C   UNK N   1      30.085  17.712   7.845  0.00  0.00     0.037 A 
HETATM   14  C   UNK N   1      30.216  16.673   6.941  0.00  0.00     0.081 A 
HETATM   15  O   UNK N   1      31.280  15.962   7.224  0.00  0.00    -0.317 OA
BRANCH  14  16
HETATM   16  C   UNK N   1      29.330  16.427   5.758  0.00  0.00     0.335 C 
BRANCH  16  17
HETATM   17  N   UNK N   1      28.138  17.263   5.801  0.00  0.00     0.086 N 
HETATM   18  C   UNK N   1      26.995  16.382   5.643  0.00  0.00     0.309 C 
HETATM   19  C   UNK N   1      28.160  18.115   4.622  0.00  0.00     0.309 C 
ENDBRANCH  16  17
ENDBRANCH  14  16
ENDBRANCH  10  11
ENDBRANCH   9  10
ENDBRANCH   8   9
ENDBRANCH   7   8
ENDBRANCH   3   7
BRANCH   1  20
HETATM   20  C   UNK N   1      36.596  13.167  14.675  0.00  0.00     0.037 A 
HETATM   21  C   UNK N   1      36.015  13.592  15.883  0.00  0.00     0.054 A 
HETATM   22  C   UNK N   1      35.751  12.683  16.910  0.00  0.00     0.042 A 
HETATM   23 Cl   UNK N   1      35.023  13.272  18.396  0.00  0.00    -0.084 Cl
HETATM   24  C   UNK N   1      36.061  11.324  16.733  0.00  0.00    -0.040 A 
HETATM   25  C   UNK N   1      35.777  10.324  17.802  0.00  0.00     0.050 C 
HETATM   26  C   UNK N   1      36.643  10.896  15.537  0.00  0.00     0.011 A 
HETATM   27  C   UNK N   1      36.910  11.813  14.514  0.00  0.00     0.030 A 
ENDBRANCH   1  20
TORSDOF 8
ENDMDL
MODEL 5
REMARK VINA RESULT:      -6.4      2.289      2.893
REMARK  8 active torsions:
REMARK  status: ('A' for Active; 'I' for Inactive)
REMARK    1  A    between atoms: N_3  and  C_14 
REMARK       I    between atoms: N_3  and  C_15 
REMARK    2  A    between atoms: S_5  and  C_17 
REMARK    3  A    between atoms: C_18  and  S_5 
REMARK    4  A    between atoms: N_7  and  C_16 
REMARK       I    between atoms: N_7  and  C_15 
REMARK    5  A    between atoms: C_23  and  N_10 
REMARK    6  A    between atoms: C_17  and  C_16 
REMARK    7  A    between atoms: C_18  and  C_19 
REMARK    8  A    between atoms: C_22  and  C_23 
ROOT
HETATM    1  N   UNK N   1      36.313  14.275  12.184  0.00  0.00    -0.309 N 
HETATM    2  O   UNK N   1      34.228  14.867  11.579  0.00  0.00    -0.247 OA
HETATM    3  N   UNK N   1      35.858  15.256  10.103  0.00  0.00    -0.342 N 
HETATM    4  C   UNK N   1      35.420  14.816  11.308  0.00  0.00     0.320 C 
HETATM    5  H   UNK N   1      37.261  14.281  11.919  0.00  0.00     0.170 HD
HETATM    6  H   UNK N   1      36.822  15.234   9.904  0.00  0.00     0.164 HD
ENDROOT
BRANCH   3   7
HETATM    7  C   UNK N   1      34.941  15.756   9.105  0.00  0.00     0.134 C 
BRANCH   7   8
HETATM    8  C   UNK N   1      34.474  17.153   9.460  0.00  0.00     0.094 C 
BRANCH   8   9
HETATM    9  S   UNK N   1      34.350  18.173   7.960  0.00  0.00    -0.161 SA
BRANCH   9  10
HETATM   10  C   UNK N   1      34.044  16.755   6.855  0.00  0.00     0.139 C 
BRANCH  10  11
HETATM   11  C   UNK N   1      32.954  17.094   5.893  0.00  0.00     0.062 A 
HETATM   12  C   UNK N   1      33.131  17.459   4.571  0.00  0.00     0.036 A 
HETATM   13  C   UNK N   1      31.858  17.612   4.053  0.00  0.00     0.037 A 
HETATM   14  C   UNK N   1      30.995  17.340   5.099  0.00  0.00     0.081 A 
HETATM   15  O   UNK N   1      31.676  17.034   6.176  0.00  0.00    -0.317 OA
BRANCH  14  16
HETATM   16  C   UNK N   1      29.499  17.312   5.014  0.00  0.00     0.335 C 
BRANCH  16  17
HETATM   17  N   UNK N   1      28.886  17.839   6.226  0.00  0.00     0.086 N 
HETATM   18  C   UNK N   1      27.973  16.822   6.716  0.00  0.00     0.309 C 
HETATM   19  C   UNK N   1      28.063  18.974   5.841  0.00  0.00     0.309 C 
ENDBRANCH  16  17
ENDBRANCH  14  16
ENDBRANCH  10  11
ENDBRANCH   9  10
ENDBRANCH   8   9
ENDBRANCH   7   8
ENDBRANCH   3   7
BRANCH   1  20
HETATM   20  C   UNK N   1      35.996  13.701  13.453  0.00  0.00     0.037 A 
HETATM   21  C   UNK N   1      35.140  12.594  13.578  0.00  0.00     0.054 A 
HETATM   22  C   UNK N   1      34.884  12.023  14.827  0.00  0.00     0.042 A 
HETATM   23 Cl   UNK N   1      33.807  10.639  14.921  0.00  0.00    -0.084 Cl
HETATM   24  C   UNK N   1      35.496  12.556  15.973  0.00  0.00    -0.040 A 
HETATM   25  C   UNK N   1      35.260  11.961  17.320  0.00  0.00     0.050 C 
HETATM   26  C   UNK N   1      36.345  13.661  15.856  0.00  0.00     0.011 A 
HETATM   27  C   UNK N   1      36.592  14.231  14.603  0.00  0.00     0.030 A 
ENDBRANCH   1  20
TORSDOF 8
ENDMDL
MODEL 6
REMARK VINA RESULT:      -6.3      1.412      1.813
REMARK  8 active torsions:
REMARK  status: ('A' for Active; 'I' for Inactive)
REMARK    1  A    between atoms: N_3  and  C_14 
REMARK       I    between atoms: N_3  and  C_15 
REMARK    2  A    between atoms: S_5  and  C_17 
REMARK    3  A    between atoms: C_18  and  S_5 
REMARK    4  A    between atoms: N_7  and  C_16 
REMARK       I    between atoms: N_7  and  C_15 
REMARK    5  A    between atoms: C_23  and  N_10 
REMARK    6  A    between atoms: C_17  and  C_16 
REMARK    7  A    between atoms: C_18  and  C_19 
REMARK    8  A    between atoms: C_22  and  C_23 
ROOT
HETATM    1  N   UNK N   1      36.838  14.073  13.867  0.00  0.00    -0.309 N 
HETATM    2  O   UNK N   1      34.849  13.982  12.820  0.00  0.00    -0.247 OA
HETATM    3  N   UNK N   1      36.435  15.235  11.871  0.00  0.00    -0.342 N 
HETATM    4  C   UNK N   1      35.989  14.425  12.861  0.00  0.00     0.320 C 
HETATM    5  H   UNK N   1      37.736  14.478  13.858  0.00  0.00     0.170 HD
HETATM    6  H   UNK N   1      37.345  15.607  11.926  0.00  0.00     0.164 HD
ENDROOT
BRANCH   3   7
HETATM    7  C   UNK N   1      35.604  15.567  10.737  0.00  0.00     0.134 C 
BRANCH   7   8
HETATM    8  C   UNK N   1      36.184  14.991   9.461  0.00  0.00     0.094 C 
BRANCH   8   9
HETATM    9  S   UNK N   1      35.103  13.680   8.814  0.00  0.00    -0.161 SA
BRANCH   9  10
HETATM   10  C   UNK N   1      33.607  14.315   9.644  0.00  0.00     0.139 C 
BRANCH  10  11
HETATM   11  C   UNK N   1      32.718  14.972   8.641  0.00  0.00     0.062 A 
HETATM   12  C   UNK N   1      32.367  14.448   7.411  0.00  0.00     0.036 A 
HETATM   13  C   UNK N   1      31.485  15.359   6.857  0.00  0.00     0.037 A 
HETATM   14  C   UNK N   1      31.369  16.378   7.785  0.00  0.00     0.081 A 
HETATM   15  O   UNK N   1      32.111  16.119   8.833  0.00  0.00    -0.317 OA
BRANCH  14  16
HETATM   16  C   UNK N   1      30.470  17.571   7.665  0.00  0.00     0.335 C 
BRANCH  16  17
HETATM   17  N   UNK N   1      29.221  17.372   8.388  0.00  0.00     0.086 N 
HETATM   18  C   UNK N   1      28.161  17.921   7.563  0.00  0.00     0.309 C 
HETATM   19  C   UNK N   1      29.273  18.196   9.585  0.00  0.00     0.309 C 
ENDBRANCH  16  17
ENDBRANCH  14  16
ENDBRANCH  10  11
ENDBRANCH   9  10
ENDBRANCH   8   9
ENDBRANCH   7   8
ENDBRANCH   3   7
BRANCH   1  20
HETATM   20  C   UNK N   1      36.542  13.171  14.933  0.00  0.00     0.037 A 
HETATM   21  C   UNK N   1      36.004  13.610  16.155  0.00  0.00     0.054 A 
HETATM   22  C   UNK N   1      35.680  12.699  17.164  0.00  0.00     0.042 A 
HETATM   23 Cl   UNK N   1      35.009  13.306  18.670  0.00  0.00    -0.084 Cl
HETATM   24  C   UNK N   1      35.887  11.326  16.954  0.00  0.00    -0.040 A 
HETATM   25  C   UNK N   1      35.537  10.325  18.002  0.00  0.00     0.050 C 
HETATM   26  C   UNK N   1      36.427  10.883  15.743  0.00  0.00     0.011 A 
HETATM   27  C   UNK N   1      36.754  11.801  14.739  0.00  0.00     0.030 A 
ENDBRANCH   1  20
TORSDOF 8
ENDMDL
MODEL 7
REMARK VINA RESULT:      -6.3      2.363      2.947
REMARK  8 active torsions:
REMARK  status: ('A' for Active; 'I' for Inactive)
REMARK    1  A    between atoms: N_3  and  C_14 
REMARK       I    between atoms: N_3  and  C_15 
REMARK    2  A    between atoms: S_5  and  C_17 
REMARK    3  A    between atoms: C_18  and  S_5 
REMARK    4  A    between atoms: N_7  and  C_16 
REMARK       I    between atoms: N_7  and  C_15 
REMARK    5  A    between atoms: C_23  and  N_10 
REMARK    6  A    between atoms: C_17  and  C_16 
REMARK    7  A    between atoms: C_18  and  C_19 
REMARK    8  A    between atoms: C_22  and  C_23 
ROOT
HETATM    1  N   UNK N   1      36.842  14.124  13.783  0.00  0.00    -0.309 N 
HETATM    2  O   UNK N   1      34.839  14.063  12.760  0.00  0.00    -0.247 OA
HETATM    3  N   UNK N   1      36.415  15.335  11.821  0.00  0.00    -0.342 N 
HETATM    4  C   UNK N   1      35.980  14.502  12.797  0.00  0.00     0.320 C 
HETATM    5  H   UNK N   1      37.740  14.527  13.772  0.00  0.00     0.170 HD
HETATM    6  H   UNK N   1      37.327  15.703  11.873  0.00  0.00     0.164 HD
ENDROOT
BRANCH   3   7
HETATM    7  C   UNK N   1      35.570  15.696  10.707  0.00  0.00     0.134 C 
BRANCH   7   8
HETATM    8  C   UNK N   1      35.972  14.932   9.461  0.00  0.00     0.094 C 
BRANCH   8   9
HETATM    9  S   UNK N   1      34.536  14.055   8.772  0.00  0.00    -0.161 SA
BRANCH   9  10
HETATM   10  C   UNK N   1      33.315  15.202   9.494  0.00  0.00     0.139 C 
BRANCH  10  11
HETATM   11  C   UNK N   1      32.477  15.790   8.407  0.00  0.00     0.062 A 
HETATM   12  C   UNK N   1      31.780  16.981   8.483  0.00  0.00     0.036 A 
HETATM   13  C   UNK N   1      31.208  17.159   7.236  0.00  0.00     0.037 A 
HETATM   14  C   UNK N   1      31.589  16.057   6.492  0.00  0.00     0.081 A 
HETATM   15  O   UNK N   1      32.342  15.264   7.214  0.00  0.00    -0.317 OA
BRANCH  14  16
HETATM   16  C   UNK N   1      31.267  15.824   5.047  0.00  0.00     0.335 C 
BRANCH  16  17
HETATM   17  N   UNK N   1      32.459  15.912   4.214  0.00  0.00     0.086 N 
HETATM   18  C   UNK N   1      32.402  17.189   3.525  0.00  0.00     0.309 C 
HETATM   19  C   UNK N   1      32.349  14.890   3.186  0.00  0.00     0.309 C 
ENDBRANCH  16  17
ENDBRANCH  14  16
ENDBRANCH  10  11
ENDBRANCH   9  10
ENDBRANCH   8   9
ENDBRANCH   7   8
ENDBRANCH   3   7
BRANCH   1  20
HETATM   20  C   UNK N   1      36.558  13.197  14.831  0.00  0.00     0.037 A 
HETATM   21  C   UNK N   1      36.019  13.605  16.063  0.00  0.00     0.054 A 
HETATM   22  C   UNK N   1      35.707  12.671  17.054  0.00  0.00     0.042 A 
HETATM   23 Cl   UNK N   1      35.034  13.240  18.574  0.00  0.00    -0.084 Cl
HETATM   24  C   UNK N   1      35.927  11.304  16.815  0.00  0.00    -0.040 A 
HETATM   25  C   UNK N   1      35.589  10.278  17.842  0.00  0.00     0.050 C 
HETATM   26  C   UNK N   1      36.467  10.892  15.593  0.00  0.00     0.011 A 
HETATM   27  C   UNK N   1      36.782  11.834  14.608  0.00  0.00     0.030 A 
ENDBRANCH   1  20
TORSDOF 8
ENDMDL
MODEL 8
REMARK VINA RESULT:      -6.1     10.384     12.521
REMARK  8 active torsions:
REMARK  status: ('A' for Active; 'I' for Inactive)
REMARK    1  A    between atoms: N_3  and  C_14 
REMARK       I    between atoms: N_3  and  C_15 
REMARK    2  A    between atoms: S_5  and  C_17 
REMARK    3  A    between atoms: C_18  and  S_5 
REMARK    4  A    between atoms: N_7  and  C_16 
REMARK       I    between atoms: N_7  and  C_15 
REMARK    5  A    between atoms: C_23  and  N_10 
REMARK    6  A    between atoms: C_17  and  C_16 
REMARK    7  A    between atoms: C_18  and  C_19 
REMARK    8  A    between atoms: C_22  and  C_23 
ROOT
HETATM    1  N   UNK N   1      22.921  12.973   7.159  0.00  0.00    -0.309 N 
HETATM    2  O   UNK N   1      23.601  15.117   7.206  0.00  0.00    -0.247 OA
HETATM    3  N   UNK N   1      23.090  14.263   5.208  0.00  0.00    -0.342 N 
HETATM    4  C   UNK N   1      23.235  14.151   6.550  0.00  0.00     0.320 C 
HETATM    5  H   UNK N   1      22.653  12.225   6.576  0.00  0.00     0.170 HD
HETATM    6  H   UNK N   1      22.819  13.474   4.685  0.00  0.00     0.164 HD
ENDROOT
BRANCH   3   7
HETATM    7  C   UNK N   1      23.324  15.515   4.526  0.00  0.00     0.134 C 
BRANCH   7   8
HETATM    8  C   UNK N   1      22.054  16.339   4.469  0.00  0.00     0.094 C 
BRANCH   8   9
HETATM    9  S   UNK N   1      22.288  17.915   5.345  0.00  0.00    -0.161 SA
BRANCH   9  10
HETATM   10  C   UNK N   1      22.764  18.837   3.845  0.00  0.00     0.139 C 
BRANCH  10  11
HETATM   11  C   UNK N   1      24.187  19.275   3.956  0.00  0.00     0.062 A 
HETATM   12  C   UNK N   1      24.840  20.119   3.078  0.00  0.00     0.036 A 
HETATM   13  C   UNK N   1      26.106  20.299   3.607  0.00  0.00     0.037 A 
HETATM   14  C   UNK N   1      26.137  19.543   4.764  0.00  0.00     0.081 A 
HETATM   15  O   UNK N   1      24.983  18.949   4.945  0.00  0.00    -0.317 OA
BRANCH  14  16
HETATM   16  C   UNK N   1      27.282  19.466   5.728  0.00  0.00     0.335 C 
BRANCH  16  17
HETATM   17  N   UNK N   1      27.831  18.118   5.797  0.00  0.00     0.086 N 
HETATM   18  C   UNK N   1      28.251  17.901   7.169  0.00  0.00     0.309 C 
HETATM   19  C   UNK N   1      29.042  18.098   4.993  0.00  0.00     0.309 C 
ENDBRANCH  16  17
ENDBRANCH  14  16
ENDBRANCH  10  11
ENDBRANCH   9  10
ENDBRANCH   8   9
ENDBRANCH   7   8
ENDBRANCH   3   7
BRANCH   1  20
HETATM   20  C   UNK N   1      22.947  12.725   8.565  0.00  0.00     0.037 A 
HETATM   21  C   UNK N   1      21.770  12.610   9.324  0.00  0.00     0.054 A 
HETATM   22  C   UNK N   1      21.823  12.320  10.689  0.00  0.00     0.042 A 
HETATM   23 Cl   UNK N   1      20.319  12.187  11.587  0.00  0.00    -0.084 Cl
HETATM   24  C   UNK N   1      23.068  12.133  11.312  0.00  0.00    -0.040 A 
HETATM   25  C   UNK N   1      23.162  11.806  12.764  0.00  0.00     0.050 C 
HETATM   26  C   UNK N   1      24.243  12.251  10.564  0.00  0.00     0.011 A 
HETATM   27  C   UNK N   1      24.182  12.547   9.198  0.00  0.00     0.030 A 
ENDBRANCH   1  20
TORSDOF 8
ENDMDL
MODEL 9
REMARK VINA RESULT:      -6.0      3.554      9.596
REMARK  8 active torsions:
REMARK  status: ('A' for Active; 'I' for Inactive)
REMARK    1  A    between atoms: N_3  and  C_14 
REMARK       I    between atoms: N_3  and  C_15 
REMARK    2  A    between atoms: S_5  and  C_17 
REMARK    3  A    between atoms: C_18  and  S_5 
REMARK    4  A    between atoms: N_7  and  C_16 
REMARK       I    between atoms: N_7  and  C_15 
REMARK    5  A    between atoms: C_23  and  N_10 
REMARK    6  A    between atoms: C_17  and  C_16 
REMARK    7  A    between atoms: C_18  and  C_19 
REMARK    8  A    between atoms: C_22  and  C_23 
ROOT
HETATM    1  N   UNK N   1      33.332  17.639   8.823  0.00  0.00    -0.309 N 
HETATM    2  O   UNK N   1      33.264  15.608   9.788  0.00  0.00    -0.247 OA
HETATM    3  N   UNK N   1      34.990  16.922  10.318  0.00  0.00    -0.342 N 
HETATM    4  C   UNK N   1      33.846  16.673   9.635  0.00  0.00     0.320 C 
HETATM    5  H   UNK N   1      33.856  18.467   8.723  0.00  0.00     0.170 HD
HETATM    6  H   UNK N   1      35.464  17.772  10.170  0.00  0.00     0.164 HD
ENDROOT
BRANCH   3   7
HETATM    7  C   UNK N   1      35.528  15.967  11.258  0.00  0.00     0.134 C 
BRANCH   7   8
HETATM    8  C   UNK N   1      36.728  15.253  10.669  0.00  0.00     0.094 C 
BRANCH   8   9
HETATM    9  S   UNK N   1      36.272  13.566  10.168  0.00  0.00    -0.161 SA
BRANCH   9  10
HETATM   10  C   UNK N   1      37.083  12.774  11.597  0.00  0.00     0.139 C 
BRANCH  10  11
HETATM   11  C   UNK N   1      36.059  12.428  12.626  0.00  0.00     0.062 A 
HETATM   12  C   UNK N   1      35.231  11.322  12.598  0.00  0.00     0.036 A 
HETATM   13  C   UNK N   1      34.503  11.371  13.774  0.00  0.00     0.037 A 
HETATM   14  C   UNK N   1      34.932  12.510  14.430  0.00  0.00     0.081 A 
HETATM   15  O   UNK N   1      35.857  13.115  13.725  0.00  0.00    -0.317 OA
BRANCH  14  16
HETATM   16  C   UNK N   1      34.480  12.961  15.785  0.00  0.00     0.335 C 
BRANCH  16  17
HETATM   17  N   UNK N   1      35.501  12.718  16.796  0.00  0.00     0.086 N 
HETATM   18  C   UNK N   1      35.303  11.365  17.282  0.00  0.00     0.309 C 
HETATM   19  C   UNK N   1      35.220  13.599  17.919  0.00  0.00     0.309 C 
ENDBRANCH  16  17
ENDBRANCH  14  16
ENDBRANCH  10  11
ENDBRANCH   9  10
ENDBRANCH   8   9
ENDBRANCH   7   8
ENDBRANCH   3   7
BRANCH   1  20
HETATM   20  C   UNK N   1      32.102  17.557   8.102  0.00  0.00     0.037 A 
HETATM   21  C   UNK N   1      30.874  17.929   8.676  0.00  0.00     0.054 A 
HETATM   22  C   UNK N   1      29.693  17.884   7.933  0.00  0.00     0.042 A 
HETATM   23 Cl   UNK N   1      28.188  18.361   8.703  0.00  0.00    -0.084 Cl
HETATM   24  C   UNK N   1      29.730  17.470   6.591  0.00  0.00    -0.040 A 
HETATM   25  C   UNK N   1      28.491  17.426   5.762  0.00  0.00     0.050 C 
HETATM   26  C   UNK N   1      30.948  17.095   6.015  0.00  0.00     0.011 A 
HETATM   27  C   UNK N   1      32.127  17.137   6.767  0.00  0.00     0.030 A 
ENDBRANCH   1  20
TORSDOF 8
ENDMDL
