MODEL 1
REMARK VINA RESULT:      -6.5      0.000      0.000
REMARK  4 active torsions:
REMARK  status: ('A' for Active; 'I' for Inactive)
REMARK    1  A    between atoms: N_6  and  C_17 
REMARK    2  A    between atoms: C_13  and  C_14 
REMARK    3  A    between atoms: C_17  and  C_18 
REMARK    4  A    between atoms: C_18  and  C_19 
ROOT
HETATM    1  S   UNK N   1      34.580  14.148  10.598  0.00  0.00    -0.087 SA
HETATM    2  N   UNK N   1      34.402  17.125   9.866  0.00  0.00    -0.301 N 
ATOM      3  HN  UNK N   1      33.977  18.048   9.768  1.00  0.00     0.186 HD
HETATM    4  N   UNK N   1      35.138  16.853  11.003  0.00  0.00    -0.280 N 
HETATM    5  N   UNK N   1      36.183  15.329  12.443  0.00  0.00    -0.369 N 
ATOM      6  HN  UNK N   1      36.606  16.135  12.902  1.00  0.00     0.161 HD
HETATM    7  C   UNK N   1      34.226  16.258   8.919  0.00  0.00     0.045 C 
HETATM    8  C   UNK N   1      34.903  14.915   8.992  0.00  0.00     0.142 C 
HETATM    9  C   UNK N   1      35.396  15.524  11.441  0.00  0.00     0.155 C 
HETATM   10  H   UNK N   1      35.497  17.604  11.529  0.00  0.00     0.189 HD
ENDROOT
BRANCH   7  11
HETATM   11  C   UNK N   1      33.426  16.619   7.724  0.00  0.00    -0.011 A 
HETATM   12  C   UNK N   1      32.052  16.332   7.674  0.00  0.00     0.015 A 
HETATM   13  C   UNK N   1      31.308  16.630   6.527  0.00  0.00     0.024 A 
HETATM   14  C   UNK N   1      31.933  17.209   5.420  0.00  0.00     0.034 A 
HETATM   15 Cl   UNK N   1      31.008  17.550   3.973  0.00  0.00    -0.084 Cl
HETATM   16  C   UNK N   1      33.297  17.505   5.462  0.00  0.00     0.024 A 
HETATM   17  C   UNK N   1      34.041  17.215   6.611  0.00  0.00     0.015 A 
ENDBRANCH   7  11
BRANCH   5  18
HETATM   18  C   UNK N   1      36.483  14.008  12.937  0.00  0.00     0.125 C 
BRANCH  18  19
HETATM   19  C   UNK N   1      35.845  13.791  14.292  0.00  0.00     0.046 C 
BRANCH  19  20
HETATM   20  C   UNK N   1      36.898  13.916  15.338  0.00  0.00    -0.035 C 
HETATM   21  C   UNK N   1      37.261  15.113  15.788  0.00  0.00     0.007 C 
ENDBRANCH  19  20
ENDBRANCH  18  19
ENDBRANCH   5  18
TORSDOF 4
ENDMDL
MODEL 2
REMARK VINA RESULT:      -6.4      0.671      1.410
REMARK  4 active torsions:
REMARK  status: ('A' for Active; 'I' for Inactive)
REMARK    1  A    between atoms: N_6  and  C_17 
REMARK    2  A    between atoms: C_13  and  C_14 
REMARK    3  A    between atoms: C_17  and  C_18 
REMARK    4  A    between atoms: C_18  and  C_19 
ROOT
HETATM    1  S   UNK N   1      34.525  14.140  10.965  0.00  0.00    -0.087 SA
HETATM    2  N   UNK N   1      34.547  17.064  10.025  0.00  0.00    -0.301 N 
ATOM      3  HN  UNK N   1      34.187  18.005   9.862  1.00  0.00     0.186 HD
HETATM    4  N   UNK N   1      35.271  16.822  11.177  0.00  0.00    -0.280 N 
HETATM    5  N   UNK N   1      36.219  15.334  12.718  0.00  0.00    -0.369 N 
ATOM      6  HN  UNK N   1      36.700  16.139  13.118  1.00  0.00     0.161 HD
HETATM    7  C   UNK N   1      34.306  16.146   9.142  0.00  0.00     0.045 C 
HETATM    8  C   UNK N   1      34.889  14.768   9.308  0.00  0.00     0.142 C 
HETATM    9  C   UNK N   1      35.441  15.512  11.707  0.00  0.00     0.155 C 
HETATM   10  H   UNK N   1      35.685  17.581  11.647  0.00  0.00     0.189 HD
ENDROOT
BRANCH   7  11
HETATM   11  C   UNK N   1      33.524  16.476   7.926  0.00  0.00    -0.011 A 
HETATM   12  C   UNK N   1      34.131  17.136   6.845  0.00  0.00     0.015 A 
HETATM   13  C   UNK N   1      33.381  17.489   5.719  0.00  0.00     0.024 A 
HETATM   14  C   UNK N   1      32.017  17.193   5.667  0.00  0.00     0.034 A 
HETATM   15 Cl   UNK N   1      31.071  17.666   4.272  0.00  0.00    -0.084 Cl
HETATM   16  C   UNK N   1      31.404  16.532   6.733  0.00  0.00     0.024 A 
HETATM   17  C   UNK N   1      32.155  16.171   7.857  0.00  0.00     0.015 A 
ENDBRANCH   7  11
BRANCH   5  18
HETATM   18  C   UNK N   1      36.431  14.033  13.303  0.00  0.00     0.125 C 
BRANCH  18  19
HETATM   19  C   UNK N   1      36.648  14.153  14.796  0.00  0.00     0.046 C 
BRANCH  19  20
HETATM   20  C   UNK N   1      35.981  13.003  15.467  0.00  0.00    -0.035 C 
HETATM   21  C   UNK N   1      35.221  13.198  16.539  0.00  0.00     0.007 C 
ENDBRANCH  19  20
ENDBRANCH  18  19
ENDBRANCH   5  18
TORSDOF 4
ENDMDL
MODEL 3
REMARK VINA RESULT:      -6.0      3.661      7.978
REMARK  4 active torsions:
REMARK  status: ('A' for Active; 'I' for Inactive)
REMARK    1  A    between atoms: N_6  and  C_17 
REMARK    2  A    between atoms: C_13  and  C_14 
REMARK    3  A    between atoms: C_17  and  C_18 
REMARK    4  A    between atoms: C_18  and  C_19 
ROOT
HETATM    1  S   UNK N   1      34.913  15.057   8.746  0.00  0.00    -0.087 SA
HETATM    2  N   UNK N   1      35.420  16.264  11.524  0.00  0.00    -0.301 N 
ATOM      3  HN  UNK N   1      35.959  16.581  12.330  1.00  0.00     0.186 HD
HETATM    4  N   UNK N   1      35.089  17.183  10.546  0.00  0.00    -0.280 N 
HETATM    5  N   UNK N   1      34.330  17.683   8.387  0.00  0.00    -0.369 N 
ATOM      6  HN  UNK N   1      34.266  18.654   8.693  1.00  0.00     0.161 HD
HETATM    7  C   UNK N   1      35.074  15.016  11.460  0.00  0.00     0.045 C 
HETATM    8  C   UNK N   1      34.210  14.531  10.327  0.00  0.00     0.142 C 
HETATM    9  C   UNK N   1      34.738  16.792   9.223  0.00  0.00     0.155 C 
HETATM   10  H   UNK N   1      35.096  18.141  10.772  0.00  0.00     0.189 HD
ENDROOT
BRANCH   7  11
HETATM   11  C   UNK N   1      35.461  14.085  12.547  0.00  0.00    -0.011 A 
HETATM   12  C   UNK N   1      34.973  12.768  12.564  0.00  0.00     0.015 A 
HETATM   13  C   UNK N   1      35.300  11.905  13.614  0.00  0.00     0.024 A 
HETATM   14  C   UNK N   1      36.111  12.353  14.660  0.00  0.00     0.034 A 
HETATM   15 Cl   UNK N   1      36.492  11.283  15.992  0.00  0.00    -0.084 Cl
HETATM   16  C   UNK N   1      36.607  13.659  14.650  0.00  0.00     0.024 A 
HETATM   17  C   UNK N   1      36.287  14.521  13.596  0.00  0.00     0.015 A 
ENDBRANCH   7  11
BRANCH   5  18
HETATM   18  C   UNK N   1      33.962  17.353   7.033  0.00  0.00     0.125 C 
BRANCH  18  19
HETATM   19  C   UNK N   1      32.456  17.329   6.884  0.00  0.00     0.046 C 
BRANCH  19  20
HETATM   20  C   UNK N   1      32.123  17.252   5.434  0.00  0.00    -0.035 C 
HETATM   21  C   UNK N   1      33.045  17.521   4.516  0.00  0.00     0.007 C 
ENDBRANCH  19  20
ENDBRANCH  18  19
ENDBRANCH   5  18
TORSDOF 4
ENDMDL
MODEL 4
REMARK VINA RESULT:      -6.0      1.563      2.239
REMARK  4 active torsions:
REMARK  status: ('A' for Active; 'I' for Inactive)
REMARK    1  A    between atoms: N_6  and  C_17 
REMARK    2  A    between atoms: C_13  and  C_14 
REMARK    3  A    between atoms: C_17  and  C_18 
REMARK    4  A    between atoms: C_18  and  C_19 
ROOT
HETATM    1  S   UNK N   1      34.984  13.422  11.488  0.00  0.00    -0.087 SA
HETATM    2  N   UNK N   1      35.764  16.285  10.701  0.00  0.00    -0.301 N 
ATOM      3  HN  UNK N   1      35.648  17.290  10.563  1.00  0.00     0.186 HD
HETATM    4  N   UNK N   1      36.322  15.839  11.884  0.00  0.00    -0.280 N 
HETATM    5  N   UNK N   1      36.774  14.118  13.406  0.00  0.00    -0.369 N 
ATOM      6  HN  UNK N   1      37.399  14.771  13.877  1.00  0.00     0.161 HD
HETATM    7  C   UNK N   1      35.380  15.482   9.759  0.00  0.00     0.045 C 
HETATM    8  C   UNK N   1      35.609  14.000   9.893  0.00  0.00     0.142 C 
HETATM    9  C   UNK N   1      36.138  14.510  12.357  0.00  0.00     0.155 C 
HETATM   10  H   UNK N   1      36.866  16.462  12.418  0.00  0.00     0.189 HD
ENDROOT
BRANCH   7  11
HETATM   11  C   UNK N   1      34.791  16.030   8.513  0.00  0.00    -0.011 A 
HETATM   12  C   UNK N   1      34.882  15.315   7.308  0.00  0.00     0.015 A 
HETATM   13  C   UNK N   1      34.368  15.855   6.124  0.00  0.00     0.024 A 
HETATM   14  C   UNK N   1      33.766  17.116   6.134  0.00  0.00     0.034 A 
HETATM   15 Cl   UNK N   1      33.154  17.805   4.646  0.00  0.00    -0.084 Cl
HETATM   16  C   UNK N   1      33.665  17.832   7.329  0.00  0.00     0.024 A 
HETATM   17  C   UNK N   1      34.171  17.290   8.515  0.00  0.00     0.015 A 
ENDBRANCH   7  11
BRANCH   5  18
HETATM   18  C   UNK N   1      36.629  12.784  13.937  0.00  0.00     0.125 C 
BRANCH  18  19
HETATM   19  C   UNK N   1      36.201  12.836  15.388  0.00  0.00     0.046 C 
BRANCH  19  20
HETATM   20  C   UNK N   1      34.723  12.660  15.454  0.00  0.00    -0.035 C 
HETATM   21  C   UNK N   1      34.139  11.642  14.832  0.00  0.00     0.007 C 
ENDBRANCH  19  20
ENDBRANCH  18  19
ENDBRANCH   5  18
TORSDOF 4
ENDMDL
MODEL 5
REMARK VINA RESULT:      -6.0      4.979      9.234
REMARK  4 active torsions:
REMARK  status: ('A' for Active; 'I' for Inactive)
REMARK    1  A    between atoms: N_6  and  C_17 
REMARK    2  A    between atoms: C_13  and  C_14 
REMARK    3  A    between atoms: C_17  and  C_18 
REMARK    4  A    between atoms: C_18  and  C_19 
ROOT
HETATM    1  S   UNK N   1      36.104  12.413  12.258  0.00  0.00    -0.087 SA
HETATM    2  N   UNK N   1      36.583  14.263  14.661  0.00  0.00    -0.301 N 
ATOM      3  HN  UNK N   1      37.067  14.647  15.473  1.00  0.00     0.186 HD
HETATM    4  N   UNK N   1      36.787  14.853  13.428  0.00  0.00    -0.280 N 
HETATM    5  N   UNK N   1      36.630  14.807  11.092  0.00  0.00    -0.369 N 
ATOM      6  HN  UNK N   1      36.892  15.792  11.109  1.00  0.00     0.161 HD
HETATM    7  C   UNK N   1      35.804  13.241  14.830  0.00  0.00     0.045 C 
HETATM    8  C   UNK N   1      35.012  12.698  13.670  0.00  0.00     0.142 C 
HETATM    9  C   UNK N   1      36.530  14.170  12.207  0.00  0.00     0.155 C 
HETATM   10  H   UNK N   1      37.123  15.778  13.394  0.00  0.00     0.189 HD
ENDROOT
BRANCH   7  11
HETATM   11  C   UNK N   1      35.629  12.659  16.183  0.00  0.00    -0.011 A 
HETATM   12  C   UNK N   1      35.267  13.474  17.267  0.00  0.00     0.015 A 
HETATM   13  C   UNK N   1      35.148  12.933  18.551  0.00  0.00     0.024 A 
HETATM   14  C   UNK N   1      35.397  11.574  18.763  0.00  0.00     0.034 A 
HETATM   15 Cl   UNK N   1      35.282  10.904  20.376  0.00  0.00    -0.084 Cl
HETATM   16  C   UNK N   1      35.752  10.754  17.690  0.00  0.00     0.024 A 
HETATM   17  C   UNK N   1      35.863  11.292  16.404  0.00  0.00     0.015 A 
ENDBRANCH   7  11
BRANCH   5  18
HETATM   18  C   UNK N   1      36.384  14.172   9.821  0.00  0.00     0.125 C 
BRANCH  18  19
HETATM   19  C   UNK N   1      35.252  14.865   9.093  0.00  0.00     0.046 C 
BRANCH  19  20
HETATM   20  C   UNK N   1      34.970  16.158   9.775  0.00  0.00    -0.035 C 
HETATM   21  C   UNK N   1      34.624  17.230   9.070  0.00  0.00     0.007 C 
ENDBRANCH  19  20
ENDBRANCH  18  19
ENDBRANCH   5  18
TORSDOF 4
ENDMDL
MODEL 6
REMARK VINA RESULT:      -5.9      2.351      3.559
REMARK  4 active torsions:
REMARK  status: ('A' for Active; 'I' for Inactive)
REMARK    1  A    between atoms: N_6  and  C_17 
REMARK    2  A    between atoms: C_13  and  C_14 
REMARK    3  A    between atoms: C_17  and  C_18 
REMARK    4  A    between atoms: C_18  and  C_19 
ROOT
HETATM    1  S   UNK N   1      35.072  12.555  13.145  0.00  0.00    -0.087 SA
HETATM    2  N   UNK N   1      36.188  15.342  12.500  0.00  0.00    -0.301 N 
ATOM      3  HN  UNK N   1      36.186  16.357  12.395  1.00  0.00     0.186 HD
HETATM    4  N   UNK N   1      36.638  14.800  13.689  0.00  0.00    -0.280 N 
HETATM    5  N   UNK N   1      36.832  12.992  15.164  0.00  0.00    -0.369 N 
ATOM      6  HN  UNK N   1      37.500  13.558  15.686  1.00  0.00     0.161 HD
HETATM    7  C   UNK N   1      35.767  14.616  11.513  0.00  0.00     0.045 C 
HETATM    8  C   UNK N   1      35.831  13.114  11.601  0.00  0.00     0.142 C 
HETATM    9  C   UNK N   1      36.292  13.484  14.104  0.00  0.00     0.155 C 
HETATM   10  H   UNK N   1      37.219  15.344  14.269  0.00  0.00     0.189 HD
ENDROOT
BRANCH   7  11
HETATM   11  C   UNK N   1      35.300  15.264  10.263  0.00  0.00    -0.011 A 
HETATM   12  C   UNK N   1      35.168  14.519   9.081  0.00  0.00     0.015 A 
HETATM   13  C   UNK N   1      34.772  15.141   7.892  0.00  0.00     0.024 A 
HETATM   14  C   UNK N   1      34.513  16.514   7.875  0.00  0.00     0.034 A 
HETATM   15 Cl   UNK N   1      34.052  17.298   6.379  0.00  0.00    -0.084 Cl
HETATM   16  C   UNK N   1      34.635  17.263   9.047  0.00  0.00     0.024 A 
HETATM   17  C   UNK N   1      35.023  16.640  10.238  0.00  0.00     0.015 A 
ENDBRANCH   7  11
BRANCH   5  18
HETATM   18  C   UNK N   1      36.522  11.666  15.639  0.00  0.00     0.125 C 
BRANCH  18  19
HETATM   19  C   UNK N   1      35.601  11.734  16.838  0.00  0.00     0.046 C 
BRANCH  19  20
HETATM   20  C   UNK N   1      35.321  13.165  17.141  0.00  0.00    -0.035 C 
HETATM   21  C   UNK N   1      35.173  13.570  18.397  0.00  0.00     0.007 C 
ENDBRANCH  19  20
ENDBRANCH  18  19
ENDBRANCH   5  18
TORSDOF 4
ENDMDL
MODEL 7
REMARK VINA RESULT:      -5.9      3.852      7.638
REMARK  4 active torsions:
REMARK  status: ('A' for Active; 'I' for Inactive)
REMARK    1  A    between atoms: N_6  and  C_17 
REMARK    2  A    between atoms: C_13  and  C_14 
REMARK    3  A    between atoms: C_17  and  C_18 
REMARK    4  A    between atoms: C_18  and  C_19 
ROOT
HETATM    1  S   UNK N   1      34.077  15.175   8.849  0.00  0.00    -0.087 SA
HETATM    2  N   UNK N   1      35.648  16.110  11.316  0.00  0.00    -0.301 N 
ATOM      3  HN  UNK N   1      36.465  16.346  11.880  1.00  0.00     0.186 HD
HETATM    4  N   UNK N   1      35.009  17.120  10.621  0.00  0.00    -0.280 N 
HETATM    5  N   UNK N   1      33.511  17.827   8.966  0.00  0.00    -0.369 N 
ATOM      6  HN  UNK N   1      33.607  18.764   9.355  1.00  0.00     0.161 HD
HETATM    7  C   UNK N   1      35.253  14.876  11.283  0.00  0.00     0.045 C 
HETATM    8  C   UNK N   1      34.004  14.505  10.527  0.00  0.00     0.142 C 
HETATM    9  C   UNK N   1      34.168  16.858   9.504  0.00  0.00     0.155 C 
HETATM   10  H   UNK N   1      35.141  18.052  10.908  0.00  0.00     0.189 HD
ENDROOT
BRANCH   7  11
HETATM   11  C   UNK N   1      35.984  13.844  12.056  0.00  0.00    -0.011 A 
HETATM   12  C   UNK N   1      35.883  13.798  13.456  0.00  0.00     0.015 A 
HETATM   13  C   UNK N   1      36.610  12.854  14.188  0.00  0.00     0.024 A 
HETATM   14  C   UNK N   1      37.449  11.953  13.527  0.00  0.00     0.034 A 
HETATM   15 Cl   UNK N   1      38.386  10.794  14.447  0.00  0.00    -0.084 Cl
HETATM   16  C   UNK N   1      37.552  11.986  12.135  0.00  0.00     0.024 A 
HETATM   17  C   UNK N   1      36.819  12.924  11.401  0.00  0.00     0.015 A 
ENDBRANCH   7  11
BRANCH   5  18
HETATM   18  C   UNK N   1      32.643  17.628   7.831  0.00  0.00     0.125 C 
BRANCH  18  19
HETATM   19  C   UNK N   1      31.230  17.336   8.289  0.00  0.00     0.046 C 
BRANCH  19  20
HETATM   20  C   UNK N   1      30.678  18.560   8.934  0.00  0.00    -0.035 C 
HETATM   21  C   UNK N   1      29.599  18.485   9.706  0.00  0.00     0.007 C 
ENDBRANCH  19  20
ENDBRANCH  18  19
ENDBRANCH   5  18
TORSDOF 4
ENDMDL
MODEL 8
REMARK VINA RESULT:      -5.8      6.511      8.901
REMARK  4 active torsions:
REMARK  status: ('A' for Active; 'I' for Inactive)
REMARK    1  A    between atoms: N_6  and  C_17 
REMARK    2  A    between atoms: C_13  and  C_14 
REMARK    3  A    between atoms: C_17  and  C_18 
REMARK    4  A    between atoms: C_18  and  C_19 
ROOT
HETATM    1  S   UNK N   1      28.202  17.233   6.625  0.00  0.00    -0.087 SA
HETATM    2  N   UNK N   1      28.184  18.873   4.029  0.00  0.00    -0.301 N 
ATOM      3  HN  UNK N   1      28.152  19.706   3.440  1.00  0.00     0.186 HD
HETATM    4  N   UNK N   1      29.417  18.354   4.376  0.00  0.00    -0.280 N 
HETATM    5  N   UNK N   1      30.742  16.956   5.708  0.00  0.00    -0.369 N 
ATOM      6  HN  UNK N   1      31.504  17.150   5.060  1.00  0.00     0.161 HD
HETATM    7  C   UNK N   1      27.066  18.347   4.420  0.00  0.00     0.045 C 
HETATM    8  C   UNK N   1      27.072  17.072   5.222  0.00  0.00     0.142 C 
HETATM    9  C   UNK N   1      29.593  17.500   5.500  0.00  0.00     0.155 C 
HETATM   10  H   UNK N   1      30.201  18.584   3.827  0.00  0.00     0.189 HD
ENDROOT
BRANCH   7  11
HETATM   11  C   UNK N   1      25.778  18.954   4.007  0.00  0.00    -0.011 A 
HETATM   12  C   UNK N   1      24.559  18.371   4.392  0.00  0.00     0.015 A 
HETATM   13  C   UNK N   1      23.346  18.918   3.963  0.00  0.00     0.024 A 
HETATM   14  C   UNK N   1      23.340  20.047   3.140  0.00  0.00     0.034 A 
HETATM   15 Cl   UNK N   1      21.822  20.711   2.575  0.00  0.00    -0.084 Cl
HETATM   16  C   UNK N   1      24.546  20.639   2.757  0.00  0.00     0.024 A 
HETATM   17  C   UNK N   1      25.760  20.097   3.192  0.00  0.00     0.015 A 
ENDBRANCH   7  11
BRANCH   5  18
HETATM   18  C   UNK N   1      30.986  16.083   6.830  0.00  0.00     0.125 C 
BRANCH  18  19
HETATM   19  C   UNK N   1      32.390  16.280   7.359  0.00  0.00     0.046 C 
BRANCH  19  20
HETATM   20  C   UNK N   1      32.473  17.623   7.996  0.00  0.00    -0.035 C 
HETATM   21  C   UNK N   1      33.622  18.291   8.012  0.00  0.00     0.007 C 
ENDBRANCH  19  20
ENDBRANCH  18  19
ENDBRANCH   5  18
TORSDOF 4
ENDMDL
MODEL 9
REMARK VINA RESULT:      -5.7     12.687     13.601
REMARK  4 active torsions:
REMARK  status: ('A' for Active; 'I' for Inactive)
REMARK    1  A    between atoms: N_6  and  C_17 
REMARK    2  A    between atoms: C_13  and  C_14 
REMARK    3  A    between atoms: C_17  and  C_18 
REMARK    4  A    between atoms: C_18  and  C_19 
ROOT
HETATM    1  S   UNK N   1      21.040  14.237   6.877  0.00  0.00    -0.087 SA
HETATM    2  N   UNK N   1      20.549  17.255   7.166  0.00  0.00    -0.301 N 
ATOM      3  HN  UNK N   1      20.036  18.135   7.117  1.00  0.00     0.186 HD
HETATM    4  N   UNK N   1      20.547  16.552   8.356  0.00  0.00    -0.280 N 
HETATM    5  N   UNK N   1      20.937  14.586   9.566  0.00  0.00    -0.369 N 
ATOM      6  HN  UNK N   1      20.798  15.141  10.410  1.00  0.00     0.161 HD
HETATM    7  C   UNK N   1      21.175  16.842   6.108  0.00  0.00     0.045 C 
HETATM    8  C   UNK N   1      22.009  15.590   6.167  0.00  0.00     0.142 C 
HETATM    9  C   UNK N   1      20.843  15.162   8.418  0.00  0.00     0.155 C 
HETATM   10  H   UNK N   1      20.334  17.030   9.190  0.00  0.00     0.189 HD
ENDROOT
BRANCH   7  11
HETATM   11  C   UNK N   1      21.137  17.648   4.864  0.00  0.00    -0.011 A 
HETATM   12  C   UNK N   1      22.120  18.620   4.615  0.00  0.00     0.015 A 
HETATM   13  C   UNK N   1      22.057  19.412   3.464  0.00  0.00     0.024 A 
HETATM   14  C   UNK N   1      21.007  19.244   2.557  0.00  0.00     0.034 A 
HETATM   15 Cl   UNK N   1      20.909  20.260   1.135  0.00  0.00    -0.084 Cl
HETATM   16  C   UNK N   1      20.028  18.277   2.792  0.00  0.00     0.024 A 
HETATM   17  C   UNK N   1      20.095  17.478   3.939  0.00  0.00     0.015 A 
ENDBRANCH   7  11
BRANCH   5  18
HETATM   18  C   UNK N   1      21.231  13.180   9.697  0.00  0.00     0.125 C 
BRANCH  18  19
HETATM   19  C   UNK N   1      22.548  12.979  10.416  0.00  0.00     0.046 C 
BRANCH  19  20
HETATM   20  C   UNK N   1      22.366  11.930  11.458  0.00  0.00    -0.035 C 
HETATM   21  C   UNK N   1      23.120  11.930  12.552  0.00  0.00     0.007 C 
ENDBRANCH  19  20
ENDBRANCH  18  19
ENDBRANCH   5  18
TORSDOF 4
ENDMDL
