MODEL 1
REMARK VINA RESULT:      -7.5      0.000      0.000
REMARK  9 active torsions:
REMARK  status: ('A' for Active; 'I' for Inactive)
REMARK    1  A    between atoms: C_1  and  C_2 
REMARK       I    between atoms: N_4  and  C_1 
REMARK    2  A    between atoms: C_2  and  N_7 
REMARK    3  A    between atoms: N_7  and  C_3 
REMARK    4  A    between atoms: C_9  and  C_3 
REMARK    5  A    between atoms: O_5  and  N_4 
REMARK    6  A    between atoms: S_8  and  N_7 
REMARK    7  A    between atoms: C_12  and  S_8 
REMARK    8  A    between atoms: C_9  and  O_10 
REMARK    9  A    between atoms: C_19  and  C_16 
ROOT
HETATM    1  S   UNK N   1      35.639  15.003  10.532  0.00  0.00     0.244 S 
HETATM    2  O   UNK N   1      36.633  16.171  10.563  0.00  0.00    -0.206 OA
HETATM    3  O   UNK N   1      36.295  14.148   9.436  0.00  0.00    -0.206 OA
ENDROOT
BRANCH   1   4
HETATM    4  N   UNK N   1      34.186  15.743   9.804  0.00  0.00    -0.196 NA
BRANCH   4   5
HETATM    5  C   UNK N   1      34.318  15.857   8.355  0.00  0.00     0.212 C 
BRANCH   5   6
HETATM    6  C   UNK N   1      34.655  17.273   7.981  0.00  0.00     0.255 C 
HETATM    7  N   UNK N   1      35.033  18.144   8.943  0.00  0.00    -0.236 N 
HETATM    8  H   UNK N   1      35.114  17.835   9.874  0.00  0.00     0.197 HD
HETATM    9  O   UNK N   1      34.566  17.635   6.819  0.00  0.00    -0.270 OA
BRANCH   7  10
HETATM   10  O   UNK N   1      35.298  19.425   8.645  0.00  0.00    -0.287 OA
HETATM   11  H   UNK N   1      35.483  20.173   9.235  0.00  0.00     0.244 HD
ENDBRANCH   7  10
ENDBRANCH   5   6
ENDBRANCH   4   5
BRANCH   4  12
HETATM   12  C   UNK N   1      33.006  14.957  10.116  0.00  0.00     0.134 C 
BRANCH  12  13
HETATM   13  C   UNK N   1      32.644  14.109   8.909  0.00  0.00     0.179 C 
BRANCH  13  14
HETATM   14  O   UNK N   1      32.320  12.817   9.318  0.00  0.00    -0.400 OA
HETATM   15  H   UNK N   1      31.442  12.408   9.268  0.00  0.00     0.209 HD
ENDBRANCH  13  14
ENDBRANCH  12  13
ENDBRANCH   4  12
ENDBRANCH   1   4
BRANCH   1  16
HETATM   16  C   UNK N   1      35.761  14.155  12.109  0.00  0.00     0.074 A 
HETATM   17  C   UNK N   1      35.063  12.971  12.372  0.00  0.00     0.025 A 
HETATM   18  C   UNK N   1      35.038  12.450  13.676  0.00  0.00     0.014 A 
HETATM   19  C   UNK N   1      35.695  13.123  14.725  0.00  0.00    -0.026 A 
HETATM   20  C   UNK N   1      36.409  14.293  14.437  0.00  0.00     0.014 A 
HETATM   21  C   UNK N   1      36.437  14.804  13.143  0.00  0.00     0.025 A 
BRANCH  19  22
HETATM   22  C   UNK N   1      35.582  12.660  16.131  0.00  0.00    -0.026 A 
HETATM   23  C   UNK N   1      35.685  11.297  16.452  0.00  0.00     0.012 A 
HETATM   24  C   UNK N   1      35.523  10.869  17.774  0.00  0.00     0.001 A 
HETATM   25  C   UNK N   1      35.249  11.796  18.784  0.00  0.00     0.000 A 
HETATM   26  C   UNK N   1      35.143  13.153  18.475  0.00  0.00     0.001 A 
HETATM   27  C   UNK N   1      35.307  13.583  17.157  0.00  0.00     0.012 A 
ENDBRANCH  19  22
ENDBRANCH   1  16
TORSDOF 9
ENDMDL
MODEL 2
REMARK VINA RESULT:      -7.2     13.382     15.422
REMARK  9 active torsions:
REMARK  status: ('A' for Active; 'I' for Inactive)
REMARK    1  A    between atoms: C_1  and  C_2 
REMARK       I    between atoms: N_4  and  C_1 
REMARK    2  A    between atoms: C_2  and  N_7 
REMARK    3  A    between atoms: N_7  and  C_3 
REMARK    4  A    between atoms: C_9  and  C_3 
REMARK    5  A    between atoms: O_5  and  N_4 
REMARK    6  A    between atoms: S_8  and  N_7 
REMARK    7  A    between atoms: C_12  and  S_8 
REMARK    8  A    between atoms: C_9  and  O_10 
REMARK    9  A    between atoms: C_19  and  C_16 
ROOT
HETATM    1  S   UNK N   1      21.356  17.963   5.426  0.00  0.00     0.244 S 
HETATM    2  O   UNK N   1      21.129  19.273   6.192  0.00  0.00    -0.206 OA
HETATM    3  O   UNK N   1      22.823  18.166   5.017  0.00  0.00    -0.206 OA
ENDROOT
BRANCH   1   4
HETATM    4  N   UNK N   1      20.375  18.194   3.952  0.00  0.00    -0.196 NA
BRANCH   4   5
HETATM    5  C   UNK N   1      21.210  18.559   2.811  0.00  0.00     0.212 C 
BRANCH   5   6
HETATM    6  C   UNK N   1      20.884  19.956   2.364  0.00  0.00     0.255 C 
HETATM    7  N   UNK N   1      20.633  20.197   1.057  0.00  0.00    -0.236 N 
HETATM    8  H   UNK N   1      20.636  19.449   0.416  0.00  0.00     0.197 HD
HETATM    9  O   UNK N   1      20.868  20.868   3.175  0.00  0.00    -0.270 OA
BRANCH   7  10
HETATM   10  O   UNK N   1      20.382  21.441   0.624  0.00  0.00    -0.287 OA
HETATM   11  H   UNK N   1      19.925  22.172   1.069  0.00  0.00     0.244 HD
ENDBRANCH   7  10
ENDBRANCH   5   6
ENDBRANCH   4   5
BRANCH   4  12
HETATM   12  C   UNK N   1      19.639  16.982   3.637  0.00  0.00     0.134 C 
BRANCH  12  13
HETATM   13  C   UNK N   1      20.344  16.257   2.504  0.00  0.00     0.179 C 
BRANCH  13  14
HETATM   14  O   UNK N   1      19.404  15.652   1.672  0.00  0.00    -0.400 OA
HETATM   15  H   UNK N   1      19.097  14.735   1.733  0.00  0.00     0.209 HD
ENDBRANCH  13  14
ENDBRANCH  12  13
ENDBRANCH   4  12
ENDBRANCH   1   4
BRANCH   1  16
HETATM   16  C   UNK N   1      21.244  16.623   6.615  0.00  0.00     0.074 A 
HETATM   17  C   UNK N   1      20.380  16.676   7.716  0.00  0.00     0.025 A 
HETATM   18  C   UNK N   1      20.465  15.697   8.718  0.00  0.00     0.014 A 
HETATM   19  C   UNK N   1      21.428  14.672   8.633  0.00  0.00    -0.026 A 
HETATM   20  C   UNK N   1      22.266  14.621   7.512  0.00  0.00     0.014 A 
HETATM   21  C   UNK N   1      22.176  15.590   6.517  0.00  0.00     0.025 A 
BRANCH  19  22
HETATM   22  C   UNK N   1      21.619  13.698   9.736  0.00  0.00    -0.026 A 
HETATM   23  C   UNK N   1      22.897  13.210  10.055  0.00  0.00     0.012 A 
HETATM   24  C   UNK N   1      23.056  12.251  11.062  0.00  0.00     0.001 A 
HETATM   25  C   UNK N   1      21.942  11.766  11.753  0.00  0.00     0.000 A 
HETATM   26  C   UNK N   1      20.666  12.243  11.442  0.00  0.00     0.001 A 
HETATM   27  C   UNK N   1      20.506  13.202  10.439  0.00  0.00     0.012 A 
ENDBRANCH  19  22
ENDBRANCH   1  16
TORSDOF 9
ENDMDL
MODEL 3
REMARK VINA RESULT:      -7.1      5.358      9.841
REMARK  9 active torsions:
REMARK  status: ('A' for Active; 'I' for Inactive)
REMARK    1  A    between atoms: C_1  and  C_2 
REMARK       I    between atoms: N_4  and  C_1 
REMARK    2  A    between atoms: C_2  and  N_7 
REMARK    3  A    between atoms: N_7  and  C_3 
REMARK    4  A    between atoms: C_9  and  C_3 
REMARK    5  A    between atoms: O_5  and  N_4 
REMARK    6  A    between atoms: S_8  and  N_7 
REMARK    7  A    between atoms: C_12  and  S_8 
REMARK    8  A    between atoms: C_9  and  O_10 
REMARK    9  A    between atoms: C_19  and  C_16 
ROOT
HETATM    1  S   UNK N   1      32.336  14.892   7.706  0.00  0.00     0.244 S 
HETATM    2  O   UNK N   1      31.947  14.224   9.031  0.00  0.00    -0.206 OA
HETATM    3  O   UNK N   1      32.405  13.644   6.811  0.00  0.00    -0.206 OA
ENDROOT
BRANCH   1   4
HETATM    4  N   UNK N   1      34.022  15.403   8.004  0.00  0.00    -0.196 NA
BRANCH   4   5
HETATM    5  C   UNK N   1      34.226  15.768   9.402  0.00  0.00     0.212 C 
BRANCH   5   6
HETATM    6  C   UNK N   1      34.888  17.115   9.488  0.00  0.00     0.255 C 
HETATM    7  N   UNK N   1      34.668  18.029   8.515  0.00  0.00    -0.236 N 
HETATM    8  H   UNK N   1      34.054  17.814   7.776  0.00  0.00     0.197 HD
HETATM    9  O   UNK N   1      35.633  17.371  10.419  0.00  0.00    -0.270 OA
BRANCH   7  10
HETATM   10  O   UNK N   1      35.280  19.222   8.543  0.00  0.00    -0.287 OA
HETATM   11  H   UNK N   1      36.226  19.435   8.502  0.00  0.00     0.244 HD
ENDBRANCH   7  10
ENDBRANCH   5   6
ENDBRANCH   4   5
BRANCH   4  12
HETATM   12  C   UNK N   1      34.944  14.339   7.649  0.00  0.00     0.134 C 
BRANCH  12  13
HETATM   13  C   UNK N   1      35.752  14.770   6.437  0.00  0.00     0.179 C 
BRANCH  13  14
HETATM   14  O   UNK N   1      35.330  16.027   6.009  0.00  0.00    -0.400 OA
HETATM   15  H   UNK N   1      35.406  16.854   6.511  0.00  0.00     0.209 HD
ENDBRANCH  13  14
ENDBRANCH  12  13
ENDBRANCH   4  12
ENDBRANCH   1   4
BRANCH   1  16
HETATM   16  C   UNK N   1      30.956  15.919   7.199  0.00  0.00     0.074 A 
HETATM   17  C   UNK N   1      30.416  15.856   5.908  0.00  0.00     0.025 A 
HETATM   18  C   UNK N   1      29.470  16.808   5.500  0.00  0.00     0.014 A 
HETATM   19  C   UNK N   1      29.072  17.840   6.374  0.00  0.00    -0.026 A 
HETATM   20  C   UNK N   1      29.604  17.871   7.669  0.00  0.00     0.014 A 
HETATM   21  C   UNK N   1      30.539  16.923   8.074  0.00  0.00     0.025 A 
BRANCH  19  22
HETATM   22  C   UNK N   1      28.167  18.927   5.927  0.00  0.00    -0.026 A 
HETATM   23  C   UNK N   1      27.846  19.087   4.569  0.00  0.00     0.012 A 
HETATM   24  C   UNK N   1      27.035  20.148   4.155  0.00  0.00     0.001 A 
HETATM   25  C   UNK N   1      26.542  21.063   5.090  0.00  0.00     0.000 A 
HETATM   26  C   UNK N   1      26.856  20.914   6.442  0.00  0.00     0.001 A 
HETATM   27  C   UNK N   1      27.664  19.854   6.858  0.00  0.00     0.012 A 
ENDBRANCH  19  22
ENDBRANCH   1  16
TORSDOF 9
ENDMDL
MODEL 4
REMARK VINA RESULT:      -6.9      5.027     10.118
REMARK  9 active torsions:
REMARK  status: ('A' for Active; 'I' for Inactive)
REMARK    1  A    between atoms: C_1  and  C_2 
REMARK       I    between atoms: N_4  and  C_1 
REMARK    2  A    between atoms: C_2  and  N_7 
REMARK    3  A    between atoms: N_7  and  C_3 
REMARK    4  A    between atoms: C_9  and  C_3 
REMARK    5  A    between atoms: O_5  and  N_4 
REMARK    6  A    between atoms: S_8  and  N_7 
REMARK    7  A    between atoms: C_12  and  S_8 
REMARK    8  A    between atoms: C_9  and  O_10 
REMARK    9  A    between atoms: C_19  and  C_16 
ROOT
HETATM    1  S   UNK N   1      32.273  15.503   8.595  0.00  0.00     0.244 S 
HETATM    2  O   UNK N   1      31.787  15.089   9.990  0.00  0.00    -0.206 OA
HETATM    3  O   UNK N   1      32.448  14.109   7.970  0.00  0.00    -0.206 OA
ENDROOT
BRANCH   1   4
HETATM    4  N   UNK N   1      33.914  16.129   8.920  0.00  0.00    -0.196 NA
BRANCH   4   5
HETATM    5  C   UNK N   1      34.862  15.041   9.145  0.00  0.00     0.212 C 
BRANCH   5   6
HETATM    6  C   UNK N   1      35.037  14.812  10.620  0.00  0.00     0.255 C 
HETATM    7  N   UNK N   1      34.339  13.827  11.229  0.00  0.00    -0.236 N 
HETATM    8  H   UNK N   1      33.746  13.251  10.695  0.00  0.00     0.197 HD
HETATM    9  O   UNK N   1      35.790  15.525  11.263  0.00  0.00    -0.270 OA
BRANCH   7  10
HETATM   10  O   UNK N   1      34.443  13.628  12.551  0.00  0.00    -0.287 OA
HETATM   11  H   UNK N   1      33.752  13.613  13.232  0.00  0.00     0.244 HD
ENDBRANCH   7  10
ENDBRANCH   5   6
ENDBRANCH   4   5
BRANCH   4  12
HETATM   12  C   UNK N   1      34.375  16.943   7.810  0.00  0.00     0.134 C 
BRANCH  12  13
HETATM   13  C   UNK N   1      34.051  18.399   8.098  0.00  0.00     0.179 C 
BRANCH  13  14
HETATM   14  O   UNK N   1      35.216  19.085   8.435  0.00  0.00    -0.400 OA
HETATM   15  H   UNK N   1      35.260  19.943   8.887  0.00  0.00     0.209 HD
ENDBRANCH  13  14
ENDBRANCH  12  13
ENDBRANCH   4  12
ENDBRANCH   1   4
BRANCH   1  16
HETATM   16  C   UNK N   1      30.917  16.356   7.787  0.00  0.00     0.074 A 
HETATM   17  C   UNK N   1      30.656  16.210   6.420  0.00  0.00     0.025 A 
HETATM   18  C   UNK N   1      29.711  17.040   5.797  0.00  0.00     0.014 A 
HETATM   19  C   UNK N   1      29.037  18.033   6.536  0.00  0.00    -0.026 A 
HETATM   20  C   UNK N   1      29.294  18.147   7.907  0.00  0.00     0.014 A 
HETATM   21  C   UNK N   1      30.227  17.320   8.524  0.00  0.00     0.025 A 
BRANCH  19  22
HETATM   22  C   UNK N   1      28.125  19.002   5.877  0.00  0.00    -0.026 A 
HETATM   23  C   UNK N   1      27.878  18.936   4.496  0.00  0.00     0.012 A 
HETATM   24  C   UNK N   1      27.059  19.888   3.880  0.00  0.00     0.001 A 
HETATM   25  C   UNK N   1      26.486  20.917   4.633  0.00  0.00     0.000 A 
HETATM   26  C   UNK N   1      26.728  20.992   6.007  0.00  0.00     0.001 A 
HETATM   27  C   UNK N   1      27.542  20.041   6.625  0.00  0.00     0.012 A 
ENDBRANCH  19  22
ENDBRANCH   1  16
TORSDOF 9
ENDMDL
MODEL 5
REMARK VINA RESULT:      -6.9      1.843      2.709
REMARK  9 active torsions:
REMARK  status: ('A' for Active; 'I' for Inactive)
REMARK    1  A    between atoms: C_1  and  C_2 
REMARK       I    between atoms: N_4  and  C_1 
REMARK    2  A    between atoms: C_2  and  N_7 
REMARK    3  A    between atoms: N_7  and  C_3 
REMARK    4  A    between atoms: C_9  and  C_3 
REMARK    5  A    between atoms: O_5  and  N_4 
REMARK    6  A    between atoms: S_8  and  N_7 
REMARK    7  A    between atoms: C_12  and  S_8 
REMARK    8  A    between atoms: C_9  and  O_10 
REMARK    9  A    between atoms: C_19  and  C_16 
ROOT
HETATM    1  S   UNK N   1      35.978  13.087  11.266  0.00  0.00     0.244 S 
HETATM    2  O   UNK N   1      37.472  12.797  11.072  0.00  0.00    -0.206 OA
HETATM    3  O   UNK N   1      35.393  11.827  10.607  0.00  0.00    -0.206 OA
ENDROOT
BRANCH   1   4
HETATM    4  N   UNK N   1      35.689  14.438  10.135  0.00  0.00    -0.196 NA
BRANCH   4   5
HETATM    5  C   UNK N   1      35.946  15.727  10.772  0.00  0.00     0.212 C 
BRANCH   5   6
HETATM    6  C   UNK N   1      35.097  16.791  10.134  0.00  0.00     0.255 C 
HETATM    7  N   UNK N   1      33.836  16.494   9.746  0.00  0.00    -0.236 N 
HETATM    8  H   UNK N   1      33.476  15.593   9.912  0.00  0.00     0.197 HD
HETATM    9  O   UNK N   1      35.554  17.908   9.952  0.00  0.00    -0.270 OA
BRANCH   7  10
HETATM   10  O   UNK N   1      33.072  17.412   9.135  0.00  0.00    -0.287 OA
HETATM   11  H   UNK N   1      32.279  17.871   9.457  0.00  0.00     0.244 HD
ENDBRANCH   7  10
ENDBRANCH   5   6
ENDBRANCH   4   5
BRANCH   4  12
HETATM   12  C   UNK N   1      36.535  14.308   8.962  0.00  0.00     0.134 C 
BRANCH  12  13
HETATM   13  C   UNK N   1      35.662  14.014   7.755  0.00  0.00     0.179 C 
BRANCH  13  14
HETATM   14  O   UNK N   1      35.266  15.207   7.154  0.00  0.00    -0.400 OA
HETATM   15  H   UNK N   1      34.784  15.289   6.317  0.00  0.00     0.209 HD
ENDBRANCH  13  14
ENDBRANCH  12  13
ENDBRANCH   4  12
ENDBRANCH   1   4
BRANCH   1  16
HETATM   16  C   UNK N   1      35.651  13.048  13.030  0.00  0.00     0.074 A 
HETATM   17  C   UNK N   1      36.385  13.818  13.940  0.00  0.00     0.025 A 
HETATM   18  C   UNK N   1      36.225  13.612  15.319  0.00  0.00     0.014 A 
HETATM   19  C   UNK N   1      35.342  12.622  15.794  0.00  0.00    -0.026 A 
HETATM   20  C   UNK N   1      34.598  11.879  14.869  0.00  0.00     0.014 A 
HETATM   21  C   UNK N   1      34.755  12.088  13.503  0.00  0.00     0.025 A 
BRANCH  19  22
HETATM   22  C   UNK N   1      35.245  12.302  17.240  0.00  0.00    -0.026 A 
HETATM   23  C   UNK N   1      35.190  13.322  18.203  0.00  0.00     0.012 A 
HETATM   24  C   UNK N   1      35.153  13.007  19.565  0.00  0.00     0.001 A 
HETATM   25  C   UNK N   1      35.178  11.672  19.978  0.00  0.00     0.000 A 
HETATM   26  C   UNK N   1      35.234  10.649  19.029  0.00  0.00     0.001 A 
HETATM   27  C   UNK N   1      35.268  10.962  17.668  0.00  0.00     0.012 A 
ENDBRANCH  19  22
ENDBRANCH   1  16
TORSDOF 9
ENDMDL
MODEL 6
REMARK VINA RESULT:      -6.8      3.481      8.124
REMARK  9 active torsions:
REMARK  status: ('A' for Active; 'I' for Inactive)
REMARK    1  A    between atoms: C_1  and  C_2 
REMARK       I    between atoms: N_4  and  C_1 
REMARK    2  A    between atoms: C_2  and  N_7 
REMARK    3  A    between atoms: N_7  and  C_3 
REMARK    4  A    between atoms: C_9  and  C_3 
REMARK    5  A    between atoms: O_5  and  N_4 
REMARK    6  A    between atoms: S_8  and  N_7 
REMARK    7  A    between atoms: C_12  and  S_8 
REMARK    8  A    between atoms: C_9  and  O_10 
REMARK    9  A    between atoms: C_19  and  C_16 
ROOT
HETATM    1  S   UNK N   1      36.001  15.093  10.187  0.00  0.00     0.244 S 
HETATM    2  O   UNK N   1      36.908  14.549   9.075  0.00  0.00    -0.206 OA
HETATM    3  O   UNK N   1      36.874  16.264  10.668  0.00  0.00    -0.206 OA
ENDROOT
BRANCH   1   4
HETATM    4  N   UNK N   1      36.109  13.825  11.439  0.00  0.00    -0.196 NA
BRANCH   4   5
HETATM    5  C   UNK N   1      35.059  13.978  12.442  0.00  0.00     0.212 C 
BRANCH   5   6
HETATM    6  C   UNK N   1      35.645  13.847  13.820  0.00  0.00     0.255 C 
HETATM    7  N   UNK N   1      36.925  14.222  14.039  0.00  0.00    -0.236 N 
HETATM    8  H   UNK N   1      37.452  14.607  13.301  0.00  0.00     0.197 HD
HETATM    9  O   UNK N   1      34.972  13.384  14.727  0.00  0.00    -0.270 OA
BRANCH   7  10
HETATM   10  O   UNK N   1      37.487  14.076  15.248  0.00  0.00    -0.287 OA
HETATM   11  H   UNK N   1      38.368  14.341  15.558  0.00  0.00     0.244 HD
ENDBRANCH   7  10
ENDBRANCH   5   6
ENDBRANCH   4   5
BRANCH   4  12
HETATM   12  C   UNK N   1      36.005  12.507  10.837  0.00  0.00     0.134 C 
BRANCH  12  13
HETATM   13  C   UNK N   1      37.334  11.789  10.988  0.00  0.00     0.179 C 
BRANCH  13  14
HETATM   14  O   UNK N   1      38.192  12.543  11.786  0.00  0.00    -0.400 OA
HETATM   15  H   UNK N   1      37.926  13.127  12.513  0.00  0.00     0.209 HD
ENDBRANCH  13  14
ENDBRANCH  12  13
ENDBRANCH   4  12
ENDBRANCH   1   4
BRANCH   1  16
HETATM   16  C   UNK N   1      34.519  15.732   9.403  0.00  0.00     0.074 A 
HETATM   17  C   UNK N   1      34.416  17.063   8.981  0.00  0.00     0.025 A 
HETATM   18  C   UNK N   1      33.178  17.565   8.551  0.00  0.00     0.014 A 
HETATM   19  C   UNK N   1      32.033  16.743   8.559  0.00  0.00    -0.026 A 
HETATM   20  C   UNK N   1      32.161  15.408   8.960  0.00  0.00     0.014 A 
HETATM   21  C   UNK N   1      33.391  14.911   9.381  0.00  0.00     0.025 A 
BRANCH  19  22
HETATM   22  C   UNK N   1      30.691  17.283   8.225  0.00  0.00    -0.026 A 
HETATM   23  C   UNK N   1      30.164  17.157   6.930  0.00  0.00     0.012 A 
HETATM   24  C   UNK N   1      28.922  17.717   6.615  0.00  0.00     0.001 A 
HETATM   25  C   UNK N   1      28.199  18.415   7.587  0.00  0.00     0.000 A 
HETATM   26  C   UNK N   1      28.715  18.549   8.878  0.00  0.00     0.001 A 
HETATM   27  C   UNK N   1      29.954  17.987   9.195  0.00  0.00     0.012 A 
ENDBRANCH  19  22
ENDBRANCH   1  16
TORSDOF 9
ENDMDL
MODEL 7
REMARK VINA RESULT:      -6.8     13.780     15.796
REMARK  9 active torsions:
REMARK  status: ('A' for Active; 'I' for Inactive)
REMARK    1  A    between atoms: C_1  and  C_2 
REMARK       I    between atoms: N_4  and  C_1 
REMARK    2  A    between atoms: C_2  and  N_7 
REMARK    3  A    between atoms: N_7  and  C_3 
REMARK    4  A    between atoms: C_9  and  C_3 
REMARK    5  A    between atoms: O_5  and  N_4 
REMARK    6  A    between atoms: S_8  and  N_7 
REMARK    7  A    between atoms: C_12  and  S_8 
REMARK    8  A    between atoms: C_9  and  O_10 
REMARK    9  A    between atoms: C_19  and  C_16 
ROOT
HETATM    1  S   UNK N   1      21.646  18.442   4.268  0.00  0.00     0.244 S 
HETATM    2  O   UNK N   1      21.025  19.664   4.957  0.00  0.00    -0.206 OA
HETATM    3  O   UNK N   1      23.099  18.930   4.159  0.00  0.00    -0.206 OA
ENDROOT
BRANCH   1   4
HETATM    4  N   UNK N   1      20.952  18.522   2.625  0.00  0.00    -0.196 NA
BRANCH   4   5
HETATM    5  C   UNK N   1      20.022  17.422   2.387  0.00  0.00     0.212 C 
BRANCH   5   6
HETATM    6  C   UNK N   1      20.532  16.553   1.271  0.00  0.00     0.255 C 
HETATM    7  N   UNK N   1      21.255  15.448   1.563  0.00  0.00    -0.236 N 
HETATM    8  H   UNK N   1      21.413  15.206   2.504  0.00  0.00     0.197 HD
HETATM    9  O   UNK N   1      20.311  16.858   0.110  0.00  0.00    -0.270 OA
BRANCH   7  10
HETATM   10  O   UNK N   1      21.759  14.678   0.587  0.00  0.00    -0.287 OA
HETATM   11  H   UNK N   1      21.300  14.127  -0.066  0.00  0.00     0.244 HD
ENDBRANCH   7  10
ENDBRANCH   5   6
ENDBRANCH   4   5
BRANCH   4  12
HETATM   12  C   UNK N   1      20.260  19.783   2.427  0.00  0.00     0.134 C 
BRANCH  12  13
HETATM   13  C   UNK N   1      20.930  20.542   1.295  0.00  0.00     0.179 C 
BRANCH  13  14
HETATM   14  O   UNK N   1      20.597  19.962   0.073  0.00  0.00    -0.400 OA
HETATM   15  H   UNK N   1      20.626  20.401  -0.791  0.00  0.00     0.209 HD
ENDBRANCH  13  14
ENDBRANCH  12  13
ENDBRANCH   4  12
ENDBRANCH   1   4
BRANCH   1  16
HETATM   16  C   UNK N   1      21.558  17.074   5.427  0.00  0.00     0.074 A 
HETATM   17  C   UNK N   1      20.929  17.194   6.672  0.00  0.00     0.025 A 
HETATM   18  C   UNK N   1      21.052  16.164   7.618  0.00  0.00     0.014 A 
HETATM   19  C   UNK N   1      21.820  15.018   7.329  0.00  0.00    -0.026 A 
HETATM   20  C   UNK N   1      22.420  14.906   6.069  0.00  0.00     0.014 A 
HETATM   21  C   UNK N   1      22.293  15.926   5.131  0.00  0.00     0.025 A 
BRANCH  19  22
HETATM   22  C   UNK N   1      22.065  13.974   8.354  0.00  0.00    -0.026 A 
HETATM   23  C   UNK N   1      22.956  12.916   8.109  0.00  0.00     0.012 A 
HETATM   24  C   UNK N   1      23.137  11.909   9.063  0.00  0.00     0.001 A 
HETATM   25  C   UNK N   1      22.424  11.944  10.265  0.00  0.00     0.000 A 
HETATM   26  C   UNK N   1      21.534  12.990  10.518  0.00  0.00     0.001 A 
HETATM   27  C   UNK N   1      21.355  13.998   9.569  0.00  0.00     0.012 A 
ENDBRANCH  19  22
ENDBRANCH   1  16
TORSDOF 9
ENDMDL
MODEL 8
REMARK VINA RESULT:      -6.8     12.800     15.291
REMARK  9 active torsions:
REMARK  status: ('A' for Active; 'I' for Inactive)
REMARK    1  A    between atoms: C_1  and  C_2 
REMARK       I    between atoms: N_4  and  C_1 
REMARK    2  A    between atoms: C_2  and  N_7 
REMARK    3  A    between atoms: N_7  and  C_3 
REMARK    4  A    between atoms: C_9  and  C_3 
REMARK    5  A    between atoms: O_5  and  N_4 
REMARK    6  A    between atoms: S_8  and  N_7 
REMARK    7  A    between atoms: C_12  and  S_8 
REMARK    8  A    between atoms: C_9  and  O_10 
REMARK    9  A    between atoms: C_19  and  C_16 
ROOT
HETATM    1  S   UNK N   1      20.704  16.900   4.074  0.00  0.00     0.244 S 
HETATM    2  O   UNK N   1      20.921  15.999   2.850  0.00  0.00    -0.206 OA
HETATM    3  O   UNK N   1      19.234  17.284   3.841  0.00  0.00    -0.206 OA
ENDROOT
BRANCH   1   4
HETATM    4  N   UNK N   1      21.680  18.342   3.678  0.00  0.00    -0.196 NA
BRANCH   4   5
HETATM    5  C   UNK N   1      20.835  19.515   3.475  0.00  0.00     0.212 C 
BRANCH   5   6
HETATM    6  C   UNK N   1      21.248  20.232   2.220  0.00  0.00     0.255 C 
HETATM    7  N   UNK N   1      20.445  20.189   1.132  0.00  0.00    -0.236 N 
HETATM    8  H   UNK N   1      19.584  19.714   1.182  0.00  0.00     0.197 HD
HETATM    9  O   UNK N   1      22.311  20.830   2.181  0.00  0.00    -0.270 OA
BRANCH   7  10
HETATM   10  O   UNK N   1      20.809  20.783  -0.014  0.00  0.00    -0.287 OA
HETATM   11  H   UNK N   1      20.356  21.471  -0.526  0.00  0.00     0.244 HD
ENDBRANCH   7  10
ENDBRANCH   5   6
ENDBRANCH   4   5
BRANCH   4  12
HETATM   12  C   UNK N   1      22.632  18.617   4.739  0.00  0.00     0.134 C 
BRANCH  12  13
HETATM   13  C   UNK N   1      23.891  17.804   4.497  0.00  0.00     0.179 C 
BRANCH  13  14
HETATM   14  O   UNK N   1      24.207  17.069   5.638  0.00  0.00    -0.400 OA
HETATM   15  H   UNK N   1      23.818  16.219   5.893  0.00  0.00     0.209 HD
ENDBRANCH  13  14
ENDBRANCH  12  13
ENDBRANCH   4  12
ENDBRANCH   1   4
BRANCH   1  16
HETATM   16  C   UNK N   1      20.829  15.861   5.531  0.00  0.00     0.074 A 
HETATM   17  C   UNK N   1      20.351  16.272   6.781  0.00  0.00     0.025 A 
HETATM   18  C   UNK N   1      20.641  15.512   7.925  0.00  0.00     0.014 A 
HETATM   19  C   UNK N   1      21.429  14.347   7.826  0.00  0.00    -0.026 A 
HETATM   20  C   UNK N   1      21.877  13.939   6.564  0.00  0.00     0.014 A 
HETATM   21  C   UNK N   1      21.583  14.691   5.430  0.00  0.00     0.025 A 
BRANCH  19  22
HETATM   22  C   UNK N   1      21.851  13.595   9.033  0.00  0.00    -0.026 A 
HETATM   23  C   UNK N   1      23.189  13.211   9.213  0.00  0.00     0.012 A 
HETATM   24  C   UNK N   1      23.564  12.455  10.329  0.00  0.00     0.001 A 
HETATM   25  C   UNK N   1      22.605  12.070  11.271  0.00  0.00     0.000 A 
HETATM   26  C   UNK N   1      21.270  12.445  11.100  0.00  0.00     0.001 A 
HETATM   27  C   UNK N   1      20.896  13.201   9.988  0.00  0.00     0.012 A 
ENDBRANCH  19  22
ENDBRANCH   1  16
TORSDOF 9
ENDMDL
MODEL 9
REMARK VINA RESULT:      -6.7      4.939     10.322
REMARK  9 active torsions:
REMARK  status: ('A' for Active; 'I' for Inactive)
REMARK    1  A    between atoms: C_1  and  C_2 
REMARK       I    between atoms: N_4  and  C_1 
REMARK    2  A    between atoms: C_2  and  N_7 
REMARK    3  A    between atoms: N_7  and  C_3 
REMARK    4  A    between atoms: C_9  and  C_3 
REMARK    5  A    between atoms: O_5  and  N_4 
REMARK    6  A    between atoms: S_8  and  N_7 
REMARK    7  A    between atoms: C_12  and  S_8 
REMARK    8  A    between atoms: C_9  and  O_10 
REMARK    9  A    between atoms: C_19  and  C_16 
ROOT
HETATM    1  S   UNK N   1      33.877  16.941   7.239  0.00  0.00     0.244 S 
HETATM    2  O   UNK N   1      34.855  16.278   6.260  0.00  0.00    -0.206 OA
HETATM    3  O   UNK N   1      34.532  18.329   7.341  0.00  0.00    -0.206 OA
ENDROOT
BRANCH   1   4
HETATM    4  N   UNK N   1      34.224  16.097   8.774  0.00  0.00    -0.196 NA
BRANCH   4   5
HETATM    5  C   UNK N   1      34.899  14.824   8.539  0.00  0.00     0.212 C 
BRANCH   5   6
HETATM    6  C   UNK N   1      33.882  13.727   8.383  0.00  0.00     0.255 C 
HETATM    7  N   UNK N   1      33.225  13.268   9.472  0.00  0.00    -0.236 N 
HETATM    8  H   UNK N   1      33.396  13.678  10.351  0.00  0.00     0.197 HD
HETATM    9  O   UNK N   1      33.670  13.244   7.283  0.00  0.00    -0.270 OA
BRANCH   7  10
HETATM   10  O   UNK N   1      32.344  12.262   9.369  0.00  0.00    -0.287 OA
HETATM   11  H   UNK N   1      32.501  11.309   9.274  0.00  0.00     0.244 HD
ENDBRANCH   7  10
ENDBRANCH   5   6
ENDBRANCH   4   5
BRANCH   4  12
HETATM   12  C   UNK N   1      35.053  16.925   9.633  0.00  0.00     0.134 C 
BRANCH  12  13
HETATM   13  C   UNK N   1      35.533  16.092  10.808  0.00  0.00     0.179 C 
BRANCH  13  14
HETATM   14  O   UNK N   1      36.922  16.146  10.891  0.00  0.00    -0.400 OA
HETATM   15  H   UNK N   1      37.480  16.888  10.611  0.00  0.00     0.209 HD
ENDBRANCH  13  14
ENDBRANCH  12  13
ENDBRANCH   4  12
ENDBRANCH   1   4
BRANCH   1  16
HETATM   16  C   UNK N   1      32.297  17.083   6.402  0.00  0.00     0.074 A 
HETATM   17  C   UNK N   1      32.203  17.353   5.032  0.00  0.00     0.025 A 
HETATM   18  C   UNK N   1      30.954  17.644   4.461  0.00  0.00     0.014 A 
HETATM   19  C   UNK N   1      29.796  17.686   5.264  0.00  0.00    -0.026 A 
HETATM   20  C   UNK N   1      29.906  17.390   6.628  0.00  0.00     0.014 A 
HETATM   21  C   UNK N   1      31.145  17.096   7.190  0.00  0.00     0.025 A 
BRANCH  19  22
HETATM   22  C   UNK N   1      28.486  18.110   4.709  0.00  0.00    -0.026 A 
HETATM   23  C   UNK N   1      27.591  17.171   4.173  0.00  0.00     0.012 A 
HETATM   24  C   UNK N   1      26.383  17.589   3.605  0.00  0.00     0.001 A 
HETATM   25  C   UNK N   1      26.062  18.949   3.559  0.00  0.00     0.000 A 
HETATM   26  C   UNK N   1      26.947  19.893   4.087  0.00  0.00     0.001 A 
HETATM   27  C   UNK N   1      28.151  19.476   4.658  0.00  0.00     0.012 A 
ENDBRANCH  19  22
ENDBRANCH   1  16
TORSDOF 9
ENDMDL
