REMARK  9 active torsions:
REMARK  status: ('A' for Active; 'I' for Inactive)
REMARK    1  A    between atoms: C_1  and  C_2 
REMARK       I    between atoms: N_4  and  C_1 
REMARK    2  A    between atoms: C_2  and  N_7 
REMARK    3  A    between atoms: N_7  and  C_3 
REMARK    4  A    between atoms: C_9  and  C_3 
REMARK    5  A    between atoms: O_5  and  N_4 
REMARK    6  A    between atoms: S_8  and  N_7 
REMARK    7  A    between atoms: C_12  and  S_8 
REMARK    8  A    between atoms: C_9  and  O_10 
REMARK    9  A    between atoms: C_19  and  C_16 
ROOT
HETATM    1  S   UNK N   1       1.427   1.415   0.341  0.00  0.00     0.244 S 
HETATM    2  O   UNK N   1       1.630   1.467   1.861  0.00  0.00    -0.206 OA
HETATM    3  O   UNK N   1       2.858   1.053  -0.088  0.00  0.00    -0.206 OA
ENDROOT
BRANCH   1   4
HETATM    4  N   UNK N   1       1.184   3.133  -0.082  0.00  0.00    -0.196 NA
BRANCH   4   5
HETATM    5  C   UNK N   1       2.224   3.608  -0.990  0.00  0.00     0.212 C 
BRANCH   5   6
HETATM    6  C   UNK N   1       3.470   3.934  -0.215  0.00  0.00     0.255 C 
HETATM    7  N   UNK N   1       4.609   3.249  -0.465  0.00  0.00    -0.236 N 
HETATM    8  H   UNK N   1       4.619   2.565  -1.173  0.00  0.00     0.197 HD
HETATM    9  O   UNK N   1       3.444   4.797   0.647  0.00  0.00    -0.270 OA
BRANCH   7  10
HETATM   10  O   UNK N   1       5.724   3.489   0.241  0.00  0.00    -0.287 OA
HETATM   11  H   UNK N   1       6.278   2.877   0.751  0.00  0.00     0.244 HD
ENDBRANCH   7  10
ENDBRANCH   5   6
ENDBRANCH   4   5
BRANCH   4  12
HETATM   12  C   UNK N   1      -0.115   3.324  -0.702  0.00  0.00     0.134 C 
BRANCH  12  13
HETATM   13  C   UNK N   1      -1.144   3.596   0.381  0.00  0.00     0.179 C 
BRANCH  13  14
HETATM   14  O   UNK N   1      -2.349   3.988  -0.198  0.00  0.00    -0.400 OA
HETATM   15  H   UNK N   1      -2.532   4.851  -0.601  0.00  0.00     0.209 HD
ENDBRANCH  13  14
ENDBRANCH  12  13
ENDBRANCH   4  12
ENDBRANCH   1   4
BRANCH   1  16
HETATM   16  C   UNK N   1       0.330   0.038  -0.005  0.00  0.00     0.074 A 
HETATM   17  C   UNK N   1      -1.063   0.179  -0.006  0.00  0.00     0.025 A 
HETATM   18  C   UNK N   1      -1.880  -0.959  -0.091  0.00  0.00     0.014 A 
HETATM   19  C   UNK N   1      -1.307  -2.245  -0.156  0.00  0.00    -0.026 A 
HETATM   20  C   UNK N   1       0.088  -2.364  -0.179  0.00  0.00     0.014 A 
HETATM   21  C   UNK N   1       0.896  -1.234  -0.100  0.00  0.00     0.025 A 
BRANCH  19  22
HETATM   22  C   UNK N   1      -2.147  -3.468  -0.124  0.00  0.00    -0.026 A 
HETATM   23  C   UNK N   1      -3.547  -3.381  -0.062  0.00  0.00     0.012 A 
HETATM   24  C   UNK N   1      -4.324  -4.541   0.022  0.00  0.00     0.001 A 
HETATM   25  C   UNK N   1      -3.711  -5.797   0.053  0.00  0.00     0.000 A 
HETATM   26  C   UNK N   1      -2.319  -5.895  -0.006  0.00  0.00     0.001 A 
HETATM   27  C   UNK N   1      -1.542  -4.738  -0.093  0.00  0.00     0.012 A 
ENDBRANCH  19  22
ENDBRANCH   1  16
TORSDOF 9
