MODEL 1
REMARK VINA RESULT:      -7.3      0.000      0.000
REMARK  6 active torsions:
REMARK  status: ('A' for Active; 'I' for Inactive)
REMARK    1  A    between atoms: C_4  and  C_19 
REMARK    2  A    between atoms: C_10  and  O_18 
REMARK    3  A    between atoms: C_12  and  C_14 
REMARK       I    between atoms: N_15  and  C_12 
REMARK    4  A    between atoms: C_13  and  C_14 
REMARK    5  A    between atoms: O_18  and  C_13 
REMARK    6  A    between atoms: O_17  and  N_15 
ROOT
HETATM    1  C   UNK N   1      25.509  19.882   4.104  0.00  0.00     0.044 A 
HETATM    2  C   UNK N   1      26.075  20.669   5.100  0.00  0.00     0.023 A 
HETATM    3  C   UNK N   1      27.097  20.159   5.854  0.00  0.00     0.014 A 
HETATM    4  C   UNK N   1      27.537  18.864   5.597  0.00  0.00    -0.026 A 
HETATM    5  C   UNK N   1      25.947  18.588   3.846  0.00  0.00     0.023 A 
HETATM    6  C   UNK N   1      26.968  18.078   4.599  0.00  0.00     0.014 A 
HETATM    7  C   UNK N   1      24.465  20.429   3.352  0.00  0.00     0.099 C 
HETATM    8  N   UNK N   1      23.611  20.915   2.755  0.00  0.00    -0.191 NA
ENDROOT
BRANCH   4   9
HETATM    9  C   UNK N   1      28.581  18.320   6.356  0.00  0.00    -0.026 A 
HETATM   10  C   UNK N   1      28.769  18.759   7.649  0.00  0.00     0.015 A 
HETATM   11  C   UNK N   1      29.782  18.213   8.345  0.00  0.00     0.037 A 
HETATM   12  C   UNK N   1      30.625  17.212   7.758  0.00  0.00     0.068 A 
HETATM   13  C   UNK N   1      30.421  16.789   6.475  0.00  0.00     0.037 A 
HETATM   14  C   UNK N   1      29.396  17.345   5.771  0.00  0.00     0.015 A 
BRANCH  12  15
HETATM   15  O   UNK N   1      31.625  16.676   8.453  0.00  0.00    -0.351 OA
BRANCH  15  16
HETATM   16  C   UNK N   1      32.770  16.775   7.794  0.00  0.00     0.185 C 
BRANCH  16  17
HETATM   17  C   UNK N   1      33.439  17.981   7.444  0.00  0.00     0.131 C 
BRANCH  17  18
HETATM   18  C   UNK N   1      34.384  18.070   8.614  0.00  0.00     0.242 C 
HETATM   19  N   UNK N   1      34.219  17.203   9.604  0.00  0.00    -0.237 N 
HETATM   20  H   UNK N   1      33.502  16.530   9.560  0.00  0.00     0.197 HD
HETATM   21  O   UNK N   1      35.296  18.908   8.694  0.00  0.00    -0.271 OA
BRANCH  19  22
HETATM   22  O   UNK N   1      35.035  17.248  10.657  0.00  0.00    -0.287 OA
HETATM   23  H   UNK N   1      34.749  16.883  11.509  0.00  0.00     0.244 HD
ENDBRANCH  19  22
ENDBRANCH  17  18
ENDBRANCH  16  17
ENDBRANCH  15  16
ENDBRANCH  12  15
ENDBRANCH   4   9
TORSDOF 6
ENDMDL
MODEL 2
REMARK VINA RESULT:      -6.9      8.842     11.389
REMARK  6 active torsions:
REMARK  status: ('A' for Active; 'I' for Inactive)
REMARK    1  A    between atoms: C_4  and  C_19 
REMARK    2  A    between atoms: C_10  and  O_18 
REMARK    3  A    between atoms: C_12  and  C_14 
REMARK       I    between atoms: N_15  and  C_12 
REMARK    4  A    between atoms: C_13  and  C_14 
REMARK    5  A    between atoms: O_18  and  C_13 
REMARK    6  A    between atoms: O_17  and  N_15 
ROOT
HETATM    1  C   UNK N   1      22.342  13.373   9.756  0.00  0.00     0.044 A 
HETATM    2  C   UNK N   1      23.293  13.309   8.746  0.00  0.00     0.023 A 
HETATM    3  C   UNK N   1      23.096  14.025   7.597  0.00  0.00     0.014 A 
HETATM    4  C   UNK N   1      21.944  14.796   7.477  0.00  0.00    -0.026 A 
HETATM    5  C   UNK N   1      21.190  14.142   9.640  0.00  0.00     0.023 A 
HETATM    6  C   UNK N   1      20.992  14.858   8.491  0.00  0.00     0.014 A 
HETATM    7  C   UNK N   1      22.570  12.629  10.918  0.00  0.00     0.099 C 
HETATM    8  N   UNK N   1      22.794  12.005  11.857  0.00  0.00    -0.191 NA
ENDROOT
BRANCH   4   9
HETATM    9  C   UNK N   1      21.719  15.537   6.310  0.00  0.00    -0.026 A 
HETATM   10  C   UNK N   1      22.753  16.273   5.773  0.00  0.00     0.015 A 
HETATM   11  C   UNK N   1      22.498  16.971   4.653  0.00  0.00     0.037 A 
HETATM   12  C   UNK N   1      21.199  16.943   4.046  0.00  0.00     0.068 A 
HETATM   13  C   UNK N   1      20.186  16.205   4.593  0.00  0.00     0.037 A 
HETATM   14  C   UNK N   1      20.447  15.500   5.729  0.00  0.00     0.015 A 
BRANCH  12  15
HETATM   15  O   UNK N   1      20.954  17.636   2.938  0.00  0.00    -0.351 OA
BRANCH  15  16
HETATM   16  C   UNK N   1      20.146  18.657   3.183  0.00  0.00     0.185 C 
BRANCH  16  17
HETATM   17  C   UNK N   1      20.540  19.976   3.542  0.00  0.00     0.131 C 
BRANCH  17  18
HETATM   18  C   UNK N   1      21.025  20.448   2.196  0.00  0.00     0.242 C 
HETATM   19  N   UNK N   1      20.290  20.140   1.136  0.00  0.00    -0.237 N 
HETATM   20  H   UNK N   1      19.459  19.622   1.241  0.00  0.00     0.197 HD
HETATM   21  O   UNK N   1      22.068  21.102   2.036  0.00  0.00    -0.271 OA
BRANCH  19  22
HETATM   22  O   UNK N   1      20.685  20.540  -0.073  0.00  0.00    -0.287 OA
HETATM   23  H   UNK N   1      20.906  19.884  -0.752  0.00  0.00     0.244 HD
ENDBRANCH  19  22
ENDBRANCH  17  18
ENDBRANCH  16  17
ENDBRANCH  15  16
ENDBRANCH  12  15
ENDBRANCH   4   9
TORSDOF 6
ENDMDL
MODEL 3
REMARK VINA RESULT:      -6.7     10.222     14.524
REMARK  6 active torsions:
REMARK  status: ('A' for Active; 'I' for Inactive)
REMARK    1  A    between atoms: C_4  and  C_19 
REMARK    2  A    between atoms: C_10  and  O_18 
REMARK    3  A    between atoms: C_12  and  C_14 
REMARK       I    between atoms: N_15  and  C_12 
REMARK    4  A    between atoms: C_13  and  C_14 
REMARK    5  A    between atoms: O_18  and  C_13 
REMARK    6  A    between atoms: O_17  and  N_15 
ROOT
HETATM    1  C   UNK N   1      34.353   9.551  20.152  0.00  0.00     0.044 A 
HETATM    2  C   UNK N   1      34.919  10.807  20.324  0.00  0.00     0.023 A 
HETATM    3  C   UNK N   1      35.344  11.505  19.227  0.00  0.00     0.014 A 
HETATM    4  C   UNK N   1      35.194  10.931  17.968  0.00  0.00    -0.026 A 
HETATM    5  C   UNK N   1      34.201   8.974  18.895  0.00  0.00     0.023 A 
HETATM    6  C   UNK N   1      34.626   9.672  17.798  0.00  0.00     0.014 A 
HETATM    7  C   UNK N   1      33.930   8.861  21.292  0.00  0.00     0.099 C 
HETATM    8  N   UNK N   1      33.593   8.326  22.252  0.00  0.00    -0.191 NA
ENDROOT
BRANCH   4   9
HETATM    9  C   UNK N   1      35.622  11.625  16.829  0.00  0.00    -0.026 A 
HETATM   10  C   UNK N   1      35.320  12.964  16.708  0.00  0.00     0.015 A 
HETATM   11  C   UNK N   1      35.749  13.596  15.601  0.00  0.00     0.037 A 
HETATM   12  C   UNK N   1      36.491  12.896  14.593  0.00  0.00     0.068 A 
HETATM   13  C   UNK N   1      36.782  11.568  14.733  0.00  0.00     0.037 A 
HETATM   14  C   UNK N   1      36.346  10.930  15.855  0.00  0.00     0.015 A 
BRANCH  12  15
HETATM   15  O   UNK N   1      36.911  13.527  13.501  0.00  0.00    -0.351 OA
BRANCH  15  16
HETATM   16  C   UNK N   1      36.056  14.472  13.138  0.00  0.00     0.185 C 
BRANCH  16  17
HETATM   17  C   UNK N   1      35.375  14.559  11.892  0.00  0.00     0.131 C 
BRANCH  17  18
HETATM   18  C   UNK N   1      36.469  15.192  11.073  0.00  0.00     0.242 C 
HETATM   19  N   UNK N   1      37.476  14.418  10.690  0.00  0.00    -0.237 N 
HETATM   20  H   UNK N   1      37.493  13.465  10.939  0.00  0.00     0.197 HD
HETATM   21  O   UNK N   1      36.472  16.389  10.745  0.00  0.00    -0.271 OA
BRANCH  19  22
HETATM   22  O   UNK N   1      38.464  14.940   9.963  0.00  0.00    -0.287 OA
HETATM   23  H   UNK N   1      38.772  14.484   9.165  0.00  0.00     0.244 HD
ENDBRANCH  19  22
ENDBRANCH  17  18
ENDBRANCH  16  17
ENDBRANCH  15  16
ENDBRANCH  12  15
ENDBRANCH   4   9
TORSDOF 6
ENDMDL
MODEL 4
REMARK VINA RESULT:      -6.6      5.286      9.820
REMARK  6 active torsions:
REMARK  status: ('A' for Active; 'I' for Inactive)
REMARK    1  A    between atoms: C_4  and  C_19 
REMARK    2  A    between atoms: C_10  and  O_18 
REMARK    3  A    between atoms: C_12  and  C_14 
REMARK       I    between atoms: N_15  and  C_12 
REMARK    4  A    between atoms: C_13  and  C_14 
REMARK    5  A    between atoms: O_18  and  C_13 
REMARK    6  A    between atoms: O_17  and  N_15 
ROOT
HETATM    1  C   UNK N   1      29.701  17.223   6.527  0.00  0.00     0.044 A 
HETATM    2  C   UNK N   1      29.510  16.873   5.197  0.00  0.00     0.023 A 
HETATM    3  C   UNK N   1      28.515  17.482   4.481  0.00  0.00     0.014 A 
HETATM    4  C   UNK N   1      27.724  18.437   5.114  0.00  0.00    -0.026 A 
HETATM    5  C   UNK N   1      28.911  18.177   7.162  0.00  0.00     0.023 A 
HETATM    6  C   UNK N   1      27.917  18.786   6.447  0.00  0.00     0.014 A 
HETATM    7  C   UNK N   1      30.724  16.582   7.232  0.00  0.00     0.099 C 
HETATM    8  N   UNK N   1      31.575  16.035   7.778  0.00  0.00    -0.191 NA
ENDROOT
BRANCH   4   9
HETATM    9  C   UNK N   1      26.698  19.074   4.403  0.00  0.00    -0.026 A 
HETATM   10  C   UNK N   1      26.996  20.190   3.652  0.00  0.00     0.015 A 
HETATM   11  C   UNK N   1      25.985  20.773   2.984  0.00  0.00     0.037 A 
HETATM   12  C   UNK N   1      24.654  20.246   3.056  0.00  0.00     0.068 A 
HETATM   13  C   UNK N   1      24.378  19.136   3.805  0.00  0.00     0.037 A 
HETATM   14  C   UNK N   1      25.404  18.548   4.481  0.00  0.00     0.015 A 
BRANCH  12  15
HETATM   15  O   UNK N   1      23.658  20.829   2.393  0.00  0.00    -0.351 OA
BRANCH  15  16
HETATM   16  C   UNK N   1      22.495  20.270   2.693  0.00  0.00     0.185 C 
BRANCH  16  17
HETATM   17  C   UNK N   1      21.216  20.889   2.607  0.00  0.00     0.131 C 
BRANCH  17  18
HETATM   18  C   UNK N   1      20.360  19.701   2.959  0.00  0.00     0.242 C 
HETATM   19  N   UNK N   1      19.283  19.479   2.217  0.00  0.00    -0.237 N 
HETATM   20  H   UNK N   1      19.065  20.078   1.466  0.00  0.00     0.197 HD
HETATM   21  O   UNK N   1      20.612  18.931   3.900  0.00  0.00    -0.271 OA
BRANCH  19  22
HETATM   22  O   UNK N   1      18.499  18.437   2.496  0.00  0.00    -0.287 OA
HETATM   23  H   UNK N   1      18.331  18.189   3.418  0.00  0.00     0.244 HD
ENDBRANCH  19  22
ENDBRANCH  17  18
ENDBRANCH  16  17
ENDBRANCH  15  16
ENDBRANCH  12  15
ENDBRANCH   4   9
TORSDOF 6
ENDMDL
MODEL 5
REMARK VINA RESULT:      -6.5     11.396     14.147
REMARK  6 active torsions:
REMARK  status: ('A' for Active; 'I' for Inactive)
REMARK    1  A    between atoms: C_4  and  C_19 
REMARK    2  A    between atoms: C_10  and  O_18 
REMARK    3  A    between atoms: C_12  and  C_14 
REMARK       I    between atoms: N_15  and  C_12 
REMARK    4  A    between atoms: C_13  and  C_14 
REMARK    5  A    between atoms: O_18  and  C_13 
REMARK    6  A    between atoms: O_17  and  N_15 
ROOT
HETATM    1  C   UNK N   1      33.328  20.032  -4.120  0.00  0.00     0.044 A 
HETATM    2  C   UNK N   1      33.328  20.923  -3.055  0.00  0.00     0.023 A 
HETATM    3  C   UNK N   1      32.233  21.716  -2.846  0.00  0.00     0.014 A 
HETATM    4  C   UNK N   1      31.150  21.604  -3.713  0.00  0.00    -0.026 A 
HETATM    5  C   UNK N   1      32.247  19.917  -4.987  0.00  0.00     0.023 A 
HETATM    6  C   UNK N   1      31.152  20.709  -4.780  0.00  0.00     0.014 A 
HETATM    7  C   UNK N   1      34.462  19.236  -4.308  0.00  0.00     0.099 C 
HETATM    8  N   UNK N   1      35.411  18.598  -4.429  0.00  0.00    -0.191 NA
ENDROOT
BRANCH   4   9
HETATM    9  C   UNK N   1      30.017  22.406  -3.521  0.00  0.00    -0.026 A 
HETATM   10  C   UNK N   1      29.533  22.587  -2.244  0.00  0.00     0.015 A 
HETATM   11  C   UNK N   1      28.444  23.363  -2.100  0.00  0.00     0.037 A 
HETATM   12  C   UNK N   1      27.821  23.975  -3.238  0.00  0.00     0.068 A 
HETATM   13  C   UNK N   1      28.318  23.785  -4.497  0.00  0.00     0.037 A 
HETATM   14  C   UNK N   1      29.420  22.997  -4.639  0.00  0.00     0.015 A 
BRANCH  12  15
HETATM   15  O   UNK N   1      26.744  24.742  -3.088  0.00  0.00    -0.351 OA
BRANCH  15  16
HETATM   16  C   UNK N   1      26.897  25.904  -3.707  0.00  0.00     0.185 C 
BRANCH  16  17
HETATM   17  C   UNK N   1      25.861  26.708  -4.257  0.00  0.00     0.131 C 
BRANCH  17  18
HETATM   18  C   UNK N   1      25.846  26.144  -5.654  0.00  0.00     0.242 C 
HETATM   19  N   UNK N   1      25.287  24.953  -5.828  0.00  0.00    -0.237 N 
HETATM   20  H   UNK N   1      24.900  24.469  -5.064  0.00  0.00     0.197 HD
HETATM   21  O   UNK N   1      26.326  26.733  -6.635  0.00  0.00    -0.271 OA
BRANCH  19  22
HETATM   22  O   UNK N   1      25.253  24.419  -7.050  0.00  0.00    -0.287 OA
HETATM   23  H   UNK N   1      24.414  24.370  -7.534  0.00  0.00     0.244 HD
ENDBRANCH  19  22
ENDBRANCH  17  18
ENDBRANCH  16  17
ENDBRANCH  15  16
ENDBRANCH  12  15
ENDBRANCH   4   9
TORSDOF 6
ENDMDL
MODEL 6
REMARK VINA RESULT:      -6.5      8.864     13.518
REMARK  6 active torsions:
REMARK  status: ('A' for Active; 'I' for Inactive)
REMARK    1  A    between atoms: C_4  and  C_19 
REMARK    2  A    between atoms: C_10  and  O_18 
REMARK    3  A    between atoms: C_12  and  C_14 
REMARK       I    between atoms: N_15  and  C_12 
REMARK    4  A    between atoms: C_13  and  C_14 
REMARK    5  A    between atoms: O_18  and  C_13 
REMARK    6  A    between atoms: O_17  and  N_15 
ROOT
HETATM    1  C   UNK N   1      34.857  10.378  19.036  0.00  0.00     0.044 A 
HETATM    2  C   UNK N   1      34.824   9.765  17.790  0.00  0.00     0.023 A 
HETATM    3  C   UNK N   1      35.057  10.515  16.669  0.00  0.00     0.014 A 
HETATM    4  C   UNK N   1      35.321  11.873  16.815  0.00  0.00    -0.026 A 
HETATM    5  C   UNK N   1      35.121  11.735  19.185  0.00  0.00     0.023 A 
HETATM    6  C   UNK N   1      35.354  12.486  18.065  0.00  0.00     0.014 A 
HETATM    7  C   UNK N   1      34.614   9.586  20.162  0.00  0.00     0.099 C 
HETATM    8  N   UNK N   1      34.410   8.902  21.063  0.00  0.00    -0.191 NA
ENDROOT
BRANCH   4   9
HETATM    9  C   UNK N   1      35.561  12.663  15.683  0.00  0.00    -0.026 A 
HETATM   10  C   UNK N   1      34.946  12.334  14.495  0.00  0.00     0.015 A 
HETATM   11  C   UNK N   1      35.202  13.116  13.431  0.00  0.00     0.037 A 
HETATM   12  C   UNK N   1      36.079  14.245  13.540  0.00  0.00     0.068 A 
HETATM   13  C   UNK N   1      36.678  14.556  14.728  0.00  0.00     0.037 A 
HETATM   14  C   UNK N   1      36.418  13.762  15.804  0.00  0.00     0.015 A 
BRANCH  12  15
HETATM   15  O   UNK N   1      36.327  15.014  12.483  0.00  0.00    -0.351 OA
BRANCH  15  16
HETATM   16  C   UNK N   1      35.247  15.146  11.726  0.00  0.00     0.185 C 
BRANCH  16  17
HETATM   17  C   UNK N   1      35.194  15.038  10.308  0.00  0.00     0.131 C 
BRANCH  17  18
HETATM   18  C   UNK N   1      34.835  16.464   9.980  0.00  0.00     0.242 C 
HETATM   19  N   UNK N   1      33.658  16.684   9.410  0.00  0.00    -0.237 N 
HETATM   20  H   UNK N   1      33.052  15.934   9.214  0.00  0.00     0.197 HD
HETATM   21  O   UNK N   1      35.581  17.428  10.216  0.00  0.00    -0.271 OA
BRANCH  19  22
HETATM   22  O   UNK N   1      33.303  17.933   9.105  0.00  0.00    -0.287 OA
HETATM   23  H   UNK N   1      33.922  18.664   9.255  0.00  0.00     0.244 HD
ENDBRANCH  19  22
ENDBRANCH  17  18
ENDBRANCH  16  17
ENDBRANCH  15  16
ENDBRANCH  12  15
ENDBRANCH   4   9
TORSDOF 6
ENDMDL
MODEL 7
REMARK VINA RESULT:      -6.4     11.251     14.828
REMARK  6 active torsions:
REMARK  status: ('A' for Active; 'I' for Inactive)
REMARK    1  A    between atoms: C_4  and  C_19 
REMARK    2  A    between atoms: C_10  and  O_18 
REMARK    3  A    between atoms: C_12  and  C_14 
REMARK       I    between atoms: N_15  and  C_12 
REMARK    4  A    between atoms: C_13  and  C_14 
REMARK    5  A    between atoms: O_18  and  C_13 
REMARK    6  A    between atoms: O_17  and  N_15 
ROOT
HETATM    1  C   UNK N   1      35.784  13.925  13.211  0.00  0.00     0.044 A 
HETATM    2  C   UNK N   1      34.958  12.825  13.400  0.00  0.00     0.023 A 
HETATM    3  C   UNK N   1      34.896  12.241  14.636  0.00  0.00     0.014 A 
HETATM    4  C   UNK N   1      35.666  12.771  15.667  0.00  0.00    -0.026 A 
HETATM    5  C   UNK N   1      36.555  14.457  14.239  0.00  0.00     0.023 A 
HETATM    6  C   UNK N   1      36.493  13.874  15.475  0.00  0.00     0.014 A 
HETATM    7  C   UNK N   1      35.828  14.499  11.937  0.00  0.00     0.099 C 
HETATM    8  N   UNK N   1      35.836  14.943  10.877  0.00  0.00    -0.191 NA
ENDROOT
BRANCH   4   9
HETATM    9  C   UNK N   1      35.620  12.191  16.941  0.00  0.00    -0.026 A 
HETATM   10  C   UNK N   1      35.992  10.872  17.090  0.00  0.00     0.015 A 
HETATM   11  C   UNK N   1      35.934  10.350  18.328  0.00  0.00     0.037 A 
HETATM   12  C   UNK N   1      35.505  11.144  19.443  0.00  0.00     0.068 A 
HETATM   13  C   UNK N   1      35.142  12.451  19.275  0.00  0.00     0.037 A 
HETATM   14  C   UNK N   1      35.200  12.976  18.020  0.00  0.00     0.015 A 
BRANCH  12  15
HETATM   15  O   UNK N   1      35.451  10.621  20.665  0.00  0.00    -0.351 OA
BRANCH  15  16
HETATM   16  C   UNK N   1      34.745   9.500  20.673  0.00  0.00     0.185 C 
BRANCH  16  17
HETATM   17  C   UNK N   1      33.344   9.384  20.449  0.00  0.00     0.131 C 
BRANCH  17  18
HETATM   18  C   UNK N   1      32.858   9.753  21.826  0.00  0.00     0.242 C 
HETATM   19  N   UNK N   1      33.183  10.952  22.291  0.00  0.00    -0.237 N 
HETATM   20  H   UNK N   1      33.721  11.568  21.744  0.00  0.00     0.197 HD
HETATM   21  O   UNK N   1      32.178   8.996  22.537  0.00  0.00    -0.271 OA
BRANCH  19  22
HETATM   22  O   UNK N   1      32.771  11.317  23.506  0.00  0.00    -0.287 OA
HETATM   23  H   UNK N   1      32.600  12.252  23.700  0.00  0.00     0.244 HD
ENDBRANCH  19  22
ENDBRANCH  17  18
ENDBRANCH  16  17
ENDBRANCH  15  16
ENDBRANCH  12  15
ENDBRANCH   4   9
TORSDOF 6
ENDMDL
MODEL 8
REMARK VINA RESULT:      -6.3     11.265     13.837
REMARK  6 active torsions:
REMARK  status: ('A' for Active; 'I' for Inactive)
REMARK    1  A    between atoms: C_4  and  C_19 
REMARK    2  A    between atoms: C_10  and  O_18 
REMARK    3  A    between atoms: C_12  and  C_14 
REMARK       I    between atoms: N_15  and  C_12 
REMARK    4  A    between atoms: C_13  and  C_14 
REMARK    5  A    between atoms: O_18  and  C_13 
REMARK    6  A    between atoms: O_17  and  N_15 
ROOT
HETATM    1  C   UNK N   1      33.403  19.890  -4.158  0.00  0.00     0.044 A 
HETATM    2  C   UNK N   1      33.399  20.830  -3.135  0.00  0.00     0.023 A 
HETATM    3  C   UNK N   1      32.311  21.646  -2.981  0.00  0.00     0.014 A 
HETATM    4  C   UNK N   1      31.239  21.505  -3.858  0.00  0.00    -0.026 A 
HETATM    5  C   UNK N   1      32.333  19.748  -5.035  0.00  0.00     0.023 A 
HETATM    6  C   UNK N   1      31.245  20.562  -4.882  0.00  0.00     0.014 A 
HETATM    7  C   UNK N   1      34.529  19.073  -4.291  0.00  0.00     0.099 C 
HETATM    8  N   UNK N   1      35.471  18.419  -4.367  0.00  0.00    -0.191 NA
ENDROOT
BRANCH   4   9
HETATM    9  C   UNK N   1      30.114  22.329  -3.722  0.00  0.00    -0.026 A 
HETATM   10  C   UNK N   1      29.548  22.882  -4.850  0.00  0.00     0.015 A 
HETATM   11  C   UNK N   1      28.470  23.667  -4.679  0.00  0.00     0.037 A 
HETATM   12  C   UNK N   1      27.936  23.911  -3.370  0.00  0.00     0.068 A 
HETATM   13  C   UNK N   1      28.511  23.351  -2.263  0.00  0.00     0.037 A 
HETATM   14  C   UNK N   1      29.604  22.558  -2.440  0.00  0.00     0.015 A 
BRANCH  12  15
HETATM   15  O   UNK N   1      26.869  24.688  -3.208  0.00  0.00    -0.351 OA
BRANCH  15  16
HETATM   16  C   UNK N   1      26.523  25.265  -4.350  0.00  0.00     0.185 C 
BRANCH  16  17
HETATM   17  C   UNK N   1      25.528  26.269  -4.519  0.00  0.00     0.131 C 
BRANCH  17  18
HETATM   18  C   UNK N   1      26.133  27.343  -3.653  0.00  0.00     0.242 C 
HETATM   19  N   UNK N   1      27.438  27.557  -3.762  0.00  0.00    -0.237 N 
HETATM   20  H   UNK N   1      27.978  27.026  -4.391  0.00  0.00     0.197 HD
HETATM   21  O   UNK N   1      25.475  28.026  -2.852  0.00  0.00    -0.271 OA
BRANCH  19  22
HETATM   22  O   UNK N   1      28.011  28.499  -3.013  0.00  0.00    -0.287 OA
HETATM   23  H   UNK N   1      28.785  28.979  -3.346  0.00  0.00     0.244 HD
ENDBRANCH  19  22
ENDBRANCH  17  18
ENDBRANCH  16  17
ENDBRANCH  15  16
ENDBRANCH  12  15
ENDBRANCH   4   9
TORSDOF 6
ENDMDL
MODEL 9
REMARK VINA RESULT:      -6.3      9.961     12.414
REMARK  6 active torsions:
REMARK  status: ('A' for Active; 'I' for Inactive)
REMARK    1  A    between atoms: C_4  and  C_19 
REMARK    2  A    between atoms: C_10  and  O_18 
REMARK    3  A    between atoms: C_12  and  C_14 
REMARK       I    between atoms: N_15  and  C_12 
REMARK    4  A    between atoms: C_13  and  C_14 
REMARK    5  A    between atoms: O_18  and  C_13 
REMARK    6  A    between atoms: O_17  and  N_15 
ROOT
HETATM    1  C   UNK N   1      22.604  12.397  11.341  0.00  0.00     0.044 A 
HETATM    2  C   UNK N   1      23.495  12.622  10.299  0.00  0.00     0.023 A 
HETATM    3  C   UNK N   1      23.017  13.067   9.096  0.00  0.00     0.014 A 
HETATM    4  C   UNK N   1      21.649  13.281   8.956  0.00  0.00    -0.026 A 
HETATM    5  C   UNK N   1      21.237  12.610  11.204  0.00  0.00     0.023 A 
HETATM    6  C   UNK N   1      20.759  13.055  10.003  0.00  0.00     0.014 A 
HETATM    7  C   UNK N   1      23.122  11.941  12.557  0.00  0.00     0.099 C 
HETATM    8  N   UNK N   1      23.585  11.568  13.541  0.00  0.00    -0.191 NA
ENDROOT
BRANCH   4   9
HETATM    9  C   UNK N   1      21.135  13.735   7.735  0.00  0.00    -0.026 A 
HETATM   10  C   UNK N   1      21.160  12.894   6.644  0.00  0.00     0.015 A 
HETATM   11  C   UNK N   1      20.658  13.366   5.489  0.00  0.00     0.037 A 
HETATM   12  C   UNK N   1      20.119  14.693   5.407  0.00  0.00     0.068 A 
HETATM   13  C   UNK N   1      20.102  15.511   6.502  0.00  0.00     0.037 A 
HETATM   14  C   UNK N   1      20.612  15.031   7.670  0.00  0.00     0.015 A 
BRANCH  12  15
HETATM   15  O   UNK N   1      19.624  15.153   4.261  0.00  0.00    -0.351 OA
BRANCH  15  16
HETATM   16  C   UNK N   1      20.498  15.935   3.645  0.00  0.00     0.185 C 
BRANCH  16  17
HETATM   17  C   UNK N   1      20.818  15.912   2.259  0.00  0.00     0.131 C 
BRANCH  17  18
HETATM   18  C   UNK N   1      20.011  17.104   1.814  0.00  0.00     0.242 C 
HETATM   19  N   UNK N   1      19.147  17.617   2.680  0.00  0.00    -0.237 N 
HETATM   20  H   UNK N   1      19.048  17.223   3.577  0.00  0.00     0.197 HD
HETATM   21  O   UNK N   1      20.116  17.620   0.690  0.00  0.00    -0.271 OA
BRANCH  19  22
HETATM   22  O   UNK N   1      18.414  18.673   2.325  0.00  0.00    -0.287 OA
HETATM   23  H   UNK N   1      17.448  18.645   2.413  0.00  0.00     0.244 HD
ENDBRANCH  19  22
ENDBRANCH  17  18
ENDBRANCH  16  17
ENDBRANCH  15  16
ENDBRANCH  12  15
ENDBRANCH   4   9
TORSDOF 6
ENDMDL
