MODEL 1
REMARK VINA RESULT:      -8.8      0.000      0.000
REMARK  5 active torsions:
REMARK  status: ('A' for Active; 'I' for Inactive)
REMARK    1  A    between atoms: C_2  and  N_3 
REMARK    2  A    between atoms: C_2  and  C_30 
REMARK       I    between atoms: N_3  and  C_4 
REMARK    3  A    between atoms: C_4  and  C_5 
REMARK    4  A    between atoms: C_21  and  C_22 
REMARK    5  A    between atoms: C_30  and  O_32 
ROOT
HETATM    1  C   UNK N   1      35.419  14.908  10.359  0.00  0.00     0.034 A 
HETATM    2  C   UNK N   1      35.402  15.695  11.534  0.00  0.00     0.018 A 
HETATM    3  C   UNK N   1      35.760  15.136  12.774  0.00  0.00     0.015 A 
HETATM    4  C   UNK N   1      36.116  13.787  12.819  0.00  0.00    -0.000 A 
HETATM    5  C   UNK N   1      36.134  13.028  11.686  0.00  0.00     0.046 A 
HETATM    6  N   UNK N   1      36.482  11.762  11.961  0.00  0.00    -0.343 N 
HETATM    7  C   UNK N   1      36.727  11.680  13.299  0.00  0.00     0.055 A 
HETATM    8  C   UNK N   1      37.175  10.415  14.007  0.00  0.00     0.025 A 
HETATM    9  C   UNK N   1      37.603   9.199  13.358  0.00  0.00     0.081 A 
HETATM   10  C   UNK N   1      37.925   8.081  14.141  0.00  0.00     0.038 A 
HETATM   11  C   UNK N   1      37.872   8.125  15.529  0.00  0.00     0.003 A 
HETATM   12  C   UNK N   1      37.506   9.301  16.165  0.00  0.00     0.001 A 
HETATM   13  C   UNK N   1      37.163  10.420  15.410  0.00  0.00     0.016 A 
HETATM   14  O   UNK N   1      37.760   9.035  12.020  0.00  0.00    -0.349 OA
HETATM   15  C   UNK N   1      37.846  10.020  11.073  0.00  0.00     0.196 C 
HETATM   16  C   UNK N   1      36.527  10.705  10.977  0.00  0.00     0.156 C 
HETATM   17  C   UNK N   1      36.477  12.957  13.883  0.00  0.00    -0.014 A 
HETATM   18  C   UNK N   1      35.794  13.552  10.436  0.00  0.00     0.047 A 
ENDROOT
BRANCH   1  19
HETATM   19  C   UNK N   1      34.965  15.477   9.071  0.00  0.00     0.252 C 
HETATM   20  N   UNK N   1      33.945  16.386   9.064  0.00  0.00    -0.338 N 
HETATM   21  H   UNK N   1      33.649  16.703   9.947  0.00  0.00     0.164 HD
HETATM   22  O   UNK N   1      35.463  15.078   8.029  0.00  0.00    -0.268 OA
BRANCH  20  23
HETATM   23  C   UNK N   1      33.236  16.951   7.917  0.00  0.00     0.111 C 
HETATM   24  C   UNK N   1      32.667  15.905   6.959  0.00  0.00     0.050 C 
HETATM   25  C   UNK N   1      32.057  17.742   8.453  0.00  0.00     0.050 C 
BRANCH  23  26
HETATM   26  C   UNK N   1      34.150  17.899   7.178  0.00  0.00     0.168 C 
HETATM   27  O   UNK N   1      34.204  17.867   5.958  0.00  0.00    -0.648 OA
BRANCH  26  28
HETATM   28  O   UNK N   1      34.924  18.776   7.851  0.00  0.00    -0.775 OA
HETATM   29  H   UNK N   1      35.763  18.606   8.231  0.00  0.00     0.167 HD
ENDBRANCH  26  28
ENDBRANCH  23  26
ENDBRANCH  20  23
ENDBRANCH   1  19
BRANCH  17  30
HETATM   30  C   UNK N   1      36.578  13.374  15.349  0.00  0.00     0.022 C 
HETATM   31  C   UNK N   1      35.228  13.243  16.061  0.00  0.00     0.009 C 
HETATM   32  C   UNK N   1      35.396  13.522  17.551  0.00  0.00     0.001 C 
HETATM   33  C   UNK N   1      35.869  14.956  17.751  0.00  0.00     0.000 C 
HETATM   34  C   UNK N   1      37.195  15.174  17.027  0.00  0.00     0.001 C 
HETATM   35  C   UNK N   1      37.068  14.818  15.546  0.00  0.00     0.009 C 
ENDBRANCH  17  30
TORSDOF 5
ENDMDL
MODEL 2
REMARK VINA RESULT:      -8.6     18.139     21.844
REMARK  5 active torsions:
REMARK  status: ('A' for Active; 'I' for Inactive)
REMARK    1  A    between atoms: C_2  and  N_3 
REMARK    2  A    between atoms: C_2  and  C_30 
REMARK       I    between atoms: N_3  and  C_4 
REMARK    3  A    between atoms: C_4  and  C_5 
REMARK    4  A    between atoms: C_21  and  C_22 
REMARK    5  A    between atoms: C_30  and  O_32 
ROOT
HETATM    1  C   UNK N   1      27.403  23.626  -6.008  0.00  0.00     0.034 A 
HETATM    2  C   UNK N   1      27.246  22.842  -7.175  0.00  0.00     0.018 A 
HETATM    3  C   UNK N   1      28.216  21.888  -7.532  0.00  0.00     0.015 A 
HETATM    4  C   UNK N   1      29.341  21.745  -6.718  0.00  0.00    -0.000 A 
HETATM    5  C   UNK N   1      29.492  22.500  -5.592  0.00  0.00     0.046 A 
HETATM    6  N   UNK N   1      30.649  22.216  -4.975  0.00  0.00    -0.343 N 
HETATM    7  C   UNK N   1      31.270  21.234  -5.688  0.00  0.00     0.055 A 
HETATM    8  C   UNK N   1      32.600  20.614  -5.304  0.00  0.00     0.025 A 
HETATM    9  C   UNK N   1      33.284  20.811  -4.048  0.00  0.00     0.081 A 
HETATM   10  C   UNK N   1      34.545  20.227  -3.856  0.00  0.00     0.038 A 
HETATM   11  C   UNK N   1      35.138  19.437  -4.833  0.00  0.00     0.003 A 
HETATM   12  C   UNK N   1      34.470  19.203  -6.025  0.00  0.00     0.001 A 
HETATM   13  C   UNK N   1      33.226  19.786  -6.249  0.00  0.00     0.016 A 
HETATM   14  O   UNK N   1      32.798  21.504  -2.987  0.00  0.00    -0.349 OA
HETATM   15  C   UNK N   1      31.499  21.878  -2.774  0.00  0.00     0.196 C 
HETATM   16  C   UNK N   1      31.123  22.898  -3.792  0.00  0.00     0.156 C 
HETATM   17  C   UNK N   1      30.468  20.927  -6.826  0.00  0.00    -0.014 A 
HETATM   18  C   UNK N   1      28.544  23.449  -5.201  0.00  0.00     0.047 A 
ENDROOT
BRANCH   1  19
HETATM   19  C   UNK N   1      26.421  24.683  -5.680  0.00  0.00     0.252 C 
HETATM   20  N   UNK N   1      26.845  25.977  -5.568  0.00  0.00    -0.338 N 
HETATM   21  H   UNK N   1      27.776  26.147  -5.836  0.00  0.00     0.164 HD
HETATM   22  O   UNK N   1      25.262  24.375  -5.449  0.00  0.00    -0.268 OA
BRANCH  20  23
HETATM   23  C   UNK N   1      26.096  27.143  -5.103  0.00  0.00     0.111 C 
HETATM   24  C   UNK N   1      26.707  28.482  -5.514  0.00  0.00     0.050 C 
HETATM   25  C   UNK N   1      24.716  27.080  -5.733  0.00  0.00     0.050 C 
BRANCH  23  26
HETATM   26  C   UNK N   1      25.937  27.075  -3.604  0.00  0.00     0.168 C 
HETATM   27  O   UNK N   1      25.475  28.028  -2.995  0.00  0.00    -0.648 OA
BRANCH  26  28
HETATM   28  O   UNK N   1      26.316  25.975  -2.918  0.00  0.00    -0.775 OA
HETATM   29  H   UNK N   1      25.792  25.221  -2.738  0.00  0.00     0.167 HD
ENDBRANCH  26  28
ENDBRANCH  23  26
ENDBRANCH  20  23
ENDBRANCH   1  19
BRANCH  17  30
HETATM   30  C   UNK N   1      30.740  19.922  -7.945  0.00  0.00     0.022 C 
HETATM   31  C   UNK N   1      30.704  20.594  -9.320  0.00  0.00     0.009 C 
HETATM   32  C   UNK N   1      31.126  19.599 -10.397  0.00  0.00     0.001 C 
HETATM   33  C   UNK N   1      30.134  18.443 -10.438  0.00  0.00     0.000 C 
HETATM   34  C   UNK N   1      30.083  17.750  -9.079  0.00  0.00     0.001 C 
HETATM   35  C   UNK N   1      29.744  18.750  -7.975  0.00  0.00     0.009 C 
ENDBRANCH  17  30
TORSDOF 5
ENDMDL
MODEL 3
REMARK VINA RESULT:      -8.4      4.697     11.419
REMARK  5 active torsions:
REMARK  status: ('A' for Active; 'I' for Inactive)
REMARK    1  A    between atoms: C_2  and  N_3 
REMARK    2  A    between atoms: C_2  and  C_30 
REMARK       I    between atoms: N_3  and  C_4 
REMARK    3  A    between atoms: C_4  and  C_5 
REMARK    4  A    between atoms: C_21  and  C_22 
REMARK    5  A    between atoms: C_30  and  O_32 
ROOT
HETATM    1  C   UNK N   1      32.501  15.986   7.710  0.00  0.00     0.034 A 
HETATM    2  C   UNK N   1      31.930  17.227   8.078  0.00  0.00     0.018 A 
HETATM    3  C   UNK N   1      30.732  17.667   7.487  0.00  0.00     0.015 A 
HETATM    4  C   UNK N   1      30.130  16.859   6.521  0.00  0.00    -0.000 A 
HETATM    5  C   UNK N   1      30.680  15.662   6.166  0.00  0.00     0.046 A 
HETATM    6  N   UNK N   1      29.953  15.064   5.210  0.00  0.00    -0.343 N 
HETATM    7  C   UNK N   1      28.883  15.865   4.939  0.00  0.00     0.055 A 
HETATM    8  C   UNK N   1      27.803  15.530   3.928  0.00  0.00     0.025 A 
HETATM    9  C   UNK N   1      27.633  14.254   3.276  0.00  0.00     0.081 A 
HETATM   10  C   UNK N   1      26.628  14.108   2.308  0.00  0.00     0.038 A 
HETATM   11  C   UNK N   1      25.771  15.152   1.985  0.00  0.00     0.003 A 
HETATM   12  C   UNK N   1      25.894  16.368   2.639  0.00  0.00     0.001 A 
HETATM   13  C   UNK N   1      26.896  16.546   3.589  0.00  0.00     0.016 A 
HETATM   14  O   UNK N   1      28.355  13.135   3.536  0.00  0.00    -0.349 OA
HETATM   15  C   UNK N   1      29.141  12.899   4.631  0.00  0.00     0.196 C 
HETATM   16  C   UNK N   1      30.315  13.814   4.582  0.00  0.00     0.156 C 
HETATM   17  C   UNK N   1      28.981  17.037   5.746  0.00  0.00    -0.014 A 
HETATM   18  C   UNK N   1      31.863  15.189   6.739  0.00  0.00     0.047 A 
ENDROOT
BRANCH   1  19
HETATM   19  C   UNK N   1      33.802  15.565   8.274  0.00  0.00     0.252 C 
HETATM   20  N   UNK N   1      33.860  15.122   9.564  0.00  0.00    -0.338 N 
HETATM   21  H   UNK N   1      32.993  14.995  10.011  0.00  0.00     0.164 HD
HETATM   22  O   UNK N   1      34.814  15.681   7.598  0.00  0.00    -0.268 OA
BRANCH  20  23
HETATM   23  C   UNK N   1      35.041  14.811  10.368  0.00  0.00     0.111 C 
HETATM   24  C   UNK N   1      34.737  14.039  11.651  0.00  0.00     0.050 C 
HETATM   25  C   UNK N   1      35.945  13.927   9.529  0.00  0.00     0.050 C 
BRANCH  23  26
HETATM   26  C   UNK N   1      35.784  16.086  10.686  0.00  0.00     0.168 C 
HETATM   27  O   UNK N   1      35.169  17.135  10.816  0.00  0.00    -0.648 OA
BRANCH  26  28
HETATM   28  O   UNK N   1      37.128  16.090  10.813  0.00  0.00    -0.775 OA
HETATM   29  H   UNK N   1      37.671  15.359  11.031  0.00  0.00     0.167 HD
ENDBRANCH  26  28
ENDBRANCH  23  26
ENDBRANCH  20  23
ENDBRANCH   1  19
BRANCH  17  30
HETATM   30  C   UNK N   1      28.049  18.247   5.793  0.00  0.00     0.022 C 
HETATM   31  C   UNK N   1      28.399  19.263   4.702  0.00  0.00     0.009 C 
HETATM   32  C   UNK N   1      27.360  20.380   4.680  0.00  0.00     0.001 C 
HETATM   33  C   UNK N   1      27.386  21.125   6.009  0.00  0.00     0.000 C 
HETATM   34  C   UNK N   1      27.089  20.160   7.153  0.00  0.00     0.001 C 
HETATM   35  C   UNK N   1      28.068  18.987   7.140  0.00  0.00     0.009 C 
ENDBRANCH  17  30
TORSDOF 5
ENDMDL
MODEL 4
REMARK VINA RESULT:      -8.1      8.173     14.960
REMARK  5 active torsions:
REMARK  status: ('A' for Active; 'I' for Inactive)
REMARK    1  A    between atoms: C_2  and  N_3 
REMARK    2  A    between atoms: C_2  and  C_30 
REMARK       I    between atoms: N_3  and  C_4 
REMARK    3  A    between atoms: C_4  and  C_5 
REMARK    4  A    between atoms: C_21  and  C_22 
REMARK    5  A    between atoms: C_30  and  O_32 
ROOT
HETATM    1  C   UNK N   1      28.582  17.003   5.439  0.00  0.00     0.034 A 
HETATM    2  C   UNK N   1      27.918  15.804   5.793  0.00  0.00     0.018 A 
HETATM    3  C   UNK N   1      26.532  15.670   5.599  0.00  0.00     0.015 A 
HETATM    4  C   UNK N   1      25.826  16.749   5.067  0.00  0.00    -0.000 A 
HETATM    5  C   UNK N   1      26.465  17.906   4.725  0.00  0.00     0.046 A 
HETATM    6  N   UNK N   1      25.596  18.814   4.256  0.00  0.00    -0.343 N 
HETATM    7  C   UNK N   1      24.358  18.245   4.260  0.00  0.00     0.055 A 
HETATM    8  C   UNK N   1      23.099  18.941   3.777  0.00  0.00     0.025 A 
HETATM    9  C   UNK N   1      23.058  20.195   3.062  0.00  0.00     0.081 A 
HETATM   10  C   UNK N   1      21.815  20.756   2.737  0.00  0.00     0.038 A 
HETATM   11  C   UNK N   1      20.622  20.120   3.057  0.00  0.00     0.003 A 
HETATM   12  C   UNK N   1      20.650  18.894   3.703  0.00  0.00     0.001 A 
HETATM   13  C   UNK N   1      21.870  18.323   4.054  0.00  0.00     0.016 A 
HETATM   14  O   UNK N   1      24.140  20.892   2.632  0.00  0.00    -0.349 OA
HETATM   15  C   UNK N   1      25.423  20.429   2.512  0.00  0.00     0.196 C 
HETATM   16  C   UNK N   1      25.962  20.159   3.874  0.00  0.00     0.156 C 
HETATM   17  C   UNK N   1      24.467  16.929   4.798  0.00  0.00    -0.014 A 
HETATM   18  C   UNK N   1      27.842  18.070   4.894  0.00  0.00     0.047 A 
ENDROOT
BRANCH   1  19
HETATM   19  C   UNK N   1      30.025  17.169   5.719  0.00  0.00     0.252 C 
HETATM   20  N   UNK N   1      30.569  16.558   6.812  0.00  0.00    -0.338 N 
HETATM   21  H   UNK N   1      29.979  15.933   7.290  0.00  0.00     0.164 HD
HETATM   22  O   UNK N   1      30.693  17.903   5.006  0.00  0.00    -0.268 OA
BRANCH  20  23
HETATM   23  C   UNK N   1      31.914  16.710   7.365  0.00  0.00     0.111 C 
HETATM   24  C   UNK N   1      32.106  17.975   8.201  0.00  0.00     0.050 C 
HETATM   25  C   UNK N   1      32.163  15.532   8.289  0.00  0.00     0.050 C 
BRANCH  23  26
HETATM   26  C   UNK N   1      32.926  16.660   6.247  0.00  0.00     0.168 C 
HETATM   27  O   UNK N   1      33.154  15.604   5.676  0.00  0.00    -0.648 OA
BRANCH  26  28
HETATM   28  O   UNK N   1      33.600  17.769   5.875  0.00  0.00    -0.775 OA
HETATM   29  H   UNK N   1      33.247  18.631   5.776  0.00  0.00     0.167 HD
ENDBRANCH  26  28
ENDBRANCH  23  26
ENDBRANCH  20  23
ENDBRANCH   1  19
BRANCH  17  30
HETATM   30  C   UNK N   1      23.364  15.899   5.038  0.00  0.00     0.022 C 
HETATM   31  C   UNK N   1      23.242  15.549   6.524  0.00  0.00     0.009 C 
HETATM   32  C   UNK N   1      22.038  14.638   6.746  0.00  0.00     0.001 C 
HETATM   33  C   UNK N   1      22.245  13.329   5.993  0.00  0.00     0.000 C 
HETATM   34  C   UNK N   1      22.420  13.606   4.503  0.00  0.00     0.001 C 
HETATM   35  C   UNK N   1      23.569  14.585   4.267  0.00  0.00     0.009 C 
ENDBRANCH  17  30
TORSDOF 5
ENDMDL
MODEL 5
REMARK VINA RESULT:      -7.9      2.911      4.822
REMARK  5 active torsions:
REMARK  status: ('A' for Active; 'I' for Inactive)
REMARK    1  A    between atoms: C_2  and  N_3 
REMARK    2  A    between atoms: C_2  and  C_30 
REMARK       I    between atoms: N_3  and  C_4 
REMARK    3  A    between atoms: C_4  and  C_5 
REMARK    4  A    between atoms: C_21  and  C_22 
REMARK    5  A    between atoms: C_30  and  O_32 
ROOT
HETATM    1  C   UNK N   1      36.156  12.855  14.414  0.00  0.00     0.034 A 
HETATM    2  C   UNK N   1      35.349  12.977  15.570  0.00  0.00     0.018 A 
HETATM    3  C   UNK N   1      35.406  12.008  16.588  0.00  0.00     0.015 A 
HETATM    4  C   UNK N   1      36.263  10.918  16.423  0.00  0.00    -0.000 A 
HETATM    5  C   UNK N   1      37.041  10.800  15.308  0.00  0.00     0.046 A 
HETATM    6  N   UNK N   1      37.767   9.673  15.347  0.00  0.00    -0.343 N 
HETATM    7  C   UNK N   1      37.488   9.039  16.521  0.00  0.00     0.055 A 
HETATM    8  C   UNK N   1      38.128   7.734  16.957  0.00  0.00     0.025 A 
HETATM    9  C   UNK N   1      39.253   7.097  16.314  0.00  0.00     0.081 A 
HETATM   10  C   UNK N   1      39.697   5.854  16.787  0.00  0.00     0.038 A 
HETATM   11  C   UNK N   1      39.102   5.234  17.878  0.00  0.00     0.003 A 
HETATM   12  C   UNK N   1      38.050   5.858  18.532  0.00  0.00     0.001 A 
HETATM   13  C   UNK N   1      37.577   7.084  18.071  0.00  0.00     0.016 A 
HETATM   14  O   UNK N   1      39.966   7.615  15.282  0.00  0.00    -0.349 OA
HETATM   15  C   UNK N   1      39.974   8.916  14.858  0.00  0.00     0.196 C 
HETATM   16  C   UNK N   1      38.639   9.237  14.280  0.00  0.00     0.156 C 
HETATM   17  C   UNK N   1      36.507   9.800  17.223  0.00  0.00    -0.014 A 
HETATM   18  C   UNK N   1      37.018  11.749  14.283  0.00  0.00     0.047 A 
ENDROOT
BRANCH   1  19
HETATM   19  C   UNK N   1      36.034  13.833  13.311  0.00  0.00     0.252 C 
HETATM   20  N   UNK N   1      35.600  13.410  12.087  0.00  0.00    -0.338 N 
HETATM   21  H   UNK N   1      35.273  12.483  12.047  0.00  0.00     0.164 HD
HETATM   22  O   UNK N   1      36.386  14.989  13.493  0.00  0.00    -0.268 OA
BRANCH  20  23
HETATM   23  C   UNK N   1      35.555  14.155  10.830  0.00  0.00     0.111 C 
HETATM   24  C   UNK N   1      36.917  14.660  10.355  0.00  0.00     0.050 C 
HETATM   25  C   UNK N   1      35.040  13.210   9.758  0.00  0.00     0.050 C 
BRANCH  23  26
HETATM   26  C   UNK N   1      34.584  15.303  10.959  0.00  0.00     0.168 C 
HETATM   27  O   UNK N   1      34.989  16.454  10.902  0.00  0.00    -0.648 OA
BRANCH  26  28
HETATM   28  O   UNK N   1      33.267  15.075  11.153  0.00  0.00    -0.775 OA
HETATM   29  H   UNK N   1      32.871  14.266  11.405  0.00  0.00     0.167 HD
ENDBRANCH  26  28
ENDBRANCH  23  26
ENDBRANCH  20  23
ENDBRANCH   1  19
BRANCH  17  30
HETATM   30  C   UNK N   1      35.845   9.498  18.566  0.00  0.00     0.022 C 
HETATM   31  C   UNK N   1      34.348   9.221  18.401  0.00  0.00     0.009 C 
HETATM   32  C   UNK N   1      33.750   8.778  19.733  0.00  0.00     0.001 C 
HETATM   33  C   UNK N   1      33.887   9.903  20.751  0.00  0.00     0.000 C 
HETATM   34  C   UNK N   1      35.358  10.266  20.934  0.00  0.00     0.001 C 
HETATM   35  C   UNK N   1      35.996  10.631  19.595  0.00  0.00     0.009 C 
ENDBRANCH  17  30
TORSDOF 5
ENDMDL
MODEL 6
REMARK VINA RESULT:      -7.7      2.462      3.309
REMARK  5 active torsions:
REMARK  status: ('A' for Active; 'I' for Inactive)
REMARK    1  A    between atoms: C_2  and  N_3 
REMARK    2  A    between atoms: C_2  and  C_30 
REMARK       I    between atoms: N_3  and  C_4 
REMARK    3  A    between atoms: C_4  and  C_5 
REMARK    4  A    between atoms: C_21  and  C_22 
REMARK    5  A    between atoms: C_30  and  O_32 
ROOT
HETATM    1  C   UNK N   1      34.470  14.639  10.356  0.00  0.00     0.034 A 
HETATM    2  C   UNK N   1      34.817  14.673  11.728  0.00  0.00     0.018 A 
HETATM    3  C   UNK N   1      35.054  13.482  12.436  0.00  0.00     0.015 A 
HETATM    4  C   UNK N   1      34.924  12.268  11.760  0.00  0.00    -0.000 A 
HETATM    5  C   UNK N   1      34.590  12.234  10.437  0.00  0.00     0.046 A 
HETATM    6  N   UNK N   1      34.499  10.969   9.997  0.00  0.00    -0.343 N 
HETATM    7  C   UNK N   1      34.803  10.144  11.039  0.00  0.00     0.055 A 
HETATM    8  C   UNK N   1      34.838   8.631  10.944  0.00  0.00     0.025 A 
HETATM    9  C   UNK N   1      34.767   7.867   9.721  0.00  0.00     0.081 A 
HETATM   10  C   UNK N   1      34.742   6.466   9.789  0.00  0.00     0.038 A 
HETATM   11  C   UNK N   1      34.814   5.795  11.004  0.00  0.00     0.003 A 
HETATM   12  C   UNK N   1      34.928   6.517  12.181  0.00  0.00     0.001 A 
HETATM   13  C   UNK N   1      34.937   7.909  12.143  0.00  0.00     0.016 A 
HETATM   14  O   UNK N   1      34.754   8.387   8.468  0.00  0.00    -0.349 OA
HETATM   15  C   UNK N   1      35.103   9.659   8.100  0.00  0.00     0.196 C 
HETATM   16  C   UNK N   1      34.099  10.608   8.657  0.00  0.00     0.156 C 
HETATM   17  C   UNK N   1      35.056  10.946  12.191  0.00  0.00    -0.014 A 
HETATM   18  C   UNK N   1      34.358  13.398   9.700  0.00  0.00     0.047 A 
ENDROOT
BRANCH   1  19
HETATM   19  C   UNK N   1      34.143  15.889   9.636  0.00  0.00     0.252 C 
HETATM   20  N   UNK N   1      33.244  15.853   8.608  0.00  0.00    -0.338 N 
HETATM   21  H   UNK N   1      32.769  15.000   8.486  0.00  0.00     0.164 HD
HETATM   22  O   UNK N   1      34.730  16.920   9.927  0.00  0.00    -0.268 OA
BRANCH  20  23
HETATM   23  C   UNK N   1      32.894  16.915   7.667  0.00  0.00     0.111 C 
HETATM   24  C   UNK N   1      31.894  16.493   6.592  0.00  0.00     0.050 C 
HETATM   25  C   UNK N   1      32.239  18.031   8.461  0.00  0.00     0.050 C 
BRANCH  23  26
HETATM   26  C   UNK N   1      34.151  17.459   7.031  0.00  0.00     0.168 C 
HETATM   27  O   UNK N   1      34.645  16.887   6.071  0.00  0.00    -0.648 OA
BRANCH  26  28
HETATM   28  O   UNK N   1      34.749  18.566   7.519  0.00  0.00    -0.775 OA
HETATM   29  H   UNK N   1      34.426  19.443   7.474  0.00  0.00     0.167 HD
ENDBRANCH  26  28
ENDBRANCH  23  26
ENDBRANCH  20  23
ENDBRANCH   1  19
BRANCH  17  30
HETATM   30  C   UNK N   1      35.407  10.498  13.609  0.00  0.00     0.022 C 
HETATM   31  C   UNK N   1      34.259  10.778  14.583  0.00  0.00     0.009 C 
HETATM   32  C   UNK N   1      34.582  10.185  15.952  0.00  0.00     0.001 C 
HETATM   33  C   UNK N   1      35.824  10.860  16.518  0.00  0.00     0.000 C 
HETATM   34  C   UNK N   1      37.005  10.660  15.572  0.00  0.00     0.001 C 
HETATM   35  C   UNK N   1      36.669  11.173  14.172  0.00  0.00     0.009 C 
ENDBRANCH  17  30
TORSDOF 5
ENDMDL
MODEL 7
REMARK VINA RESULT:      -7.5      2.113      4.576
REMARK  5 active torsions:
REMARK  status: ('A' for Active; 'I' for Inactive)
REMARK    1  A    between atoms: C_2  and  N_3 
REMARK    2  A    between atoms: C_2  and  C_30 
REMARK       I    between atoms: N_3  and  C_4 
REMARK    3  A    between atoms: C_4  and  C_5 
REMARK    4  A    between atoms: C_21  and  C_22 
REMARK    5  A    between atoms: C_30  and  O_32 
ROOT
HETATM    1  C   UNK N   1      34.190  14.532  10.052  0.00  0.00     0.034 A 
HETATM    2  C   UNK N   1      33.962  13.395   9.242  0.00  0.00     0.018 A 
HETATM    3  C   UNK N   1      34.214  12.103   9.736  0.00  0.00     0.015 A 
HETATM    4  C   UNK N   1      34.707  11.971  11.035  0.00  0.00    -0.000 A 
HETATM    5  C   UNK N   1      34.928  13.067  11.817  0.00  0.00     0.046 A 
HETATM    6  N   UNK N   1      35.421  12.713  13.013  0.00  0.00    -0.343 N 
HETATM    7  C   UNK N   1      35.508  11.353  13.040  0.00  0.00     0.055 A 
HETATM    8  C   UNK N   1      35.998  10.555  14.234  0.00  0.00     0.025 A 
HETATM    9  C   UNK N   1      36.236  11.086  15.555  0.00  0.00     0.081 A 
HETATM   10  C   UNK N   1      36.756  10.243  16.548  0.00  0.00     0.038 A 
HETATM   11  C   UNK N   1      37.019   8.901  16.300  0.00  0.00     0.003 A 
HETATM   12  C   UNK N   1      36.751   8.369  15.049  0.00  0.00     0.001 A 
HETATM   13  C   UNK N   1      36.253   9.189  14.039  0.00  0.00     0.016 A 
HETATM   14  O   UNK N   1      35.968  12.355  15.954  0.00  0.00    -0.349 OA
HETATM   15  C   UNK N   1      35.169  13.266  15.318  0.00  0.00     0.196 C 
HETATM   16  C   UNK N   1      35.817  13.656  14.035  0.00  0.00     0.156 C 
HETATM   17  C   UNK N   1      35.081  10.848  11.777  0.00  0.00    -0.014 A 
HETATM   18  C   UNK N   1      34.679  14.365  11.362  0.00  0.00     0.047 A 
ENDROOT
BRANCH   1  19
HETATM   19  C   UNK N   1      34.001  15.893   9.501  0.00  0.00     0.252 C 
HETATM   20  N   UNK N   1      33.049  16.100   8.545  0.00  0.00    -0.338 N 
HETATM   21  H   UNK N   1      32.452  15.339   8.363  0.00  0.00     0.164 HD
HETATM   22  O   UNK N   1      34.743  16.794   9.862  0.00  0.00    -0.268 OA
BRANCH  20  23
HETATM   23  C   UNK N   1      32.798  17.306   7.756  0.00  0.00     0.111 C 
HETATM   24  C   UNK N   1      31.855  17.092   6.573  0.00  0.00     0.050 C 
HETATM   25  C   UNK N   1      32.132  18.319   8.670  0.00  0.00     0.050 C 
BRANCH  23  26
HETATM   26  C   UNK N   1      34.111  17.881   7.284  0.00  0.00     0.168 C 
HETATM   27  O   UNK N   1      34.630  17.460   6.261  0.00  0.00    -0.648 OA
BRANCH  26  28
HETATM   28  O   UNK N   1      34.734  18.849   7.989  0.00  0.00    -0.775 OA
HETATM   29  H   UNK N   1      35.479  18.745   8.547  0.00  0.00     0.167 HD
ENDBRANCH  26  28
ENDBRANCH  23  26
ENDBRANCH  20  23
ENDBRANCH   1  19
BRANCH  17  30
HETATM   30  C   UNK N   1      35.021   9.398  11.298  0.00  0.00     0.022 C 
HETATM   31  C   UNK N   1      35.875   9.189  10.044  0.00  0.00     0.009 C 
HETATM   32  C   UNK N   1      35.913   7.707   9.682  0.00  0.00     0.001 C 
HETATM   33  C   UNK N   1      34.505   7.228   9.350  0.00  0.00     0.000 C 
HETATM   34  C   UNK N   1      33.583   7.449  10.545  0.00  0.00     0.001 C 
HETATM   35  C   UNK N   1      33.597   8.915  10.976  0.00  0.00     0.009 C 
ENDBRANCH  17  30
TORSDOF 5
ENDMDL
MODEL 8
REMARK VINA RESULT:      -7.5      8.012     12.030
REMARK  5 active torsions:
REMARK  status: ('A' for Active; 'I' for Inactive)
REMARK    1  A    between atoms: C_2  and  N_3 
REMARK    2  A    between atoms: C_2  and  C_30 
REMARK       I    between atoms: N_3  and  C_4 
REMARK    3  A    between atoms: C_4  and  C_5 
REMARK    4  A    between atoms: C_21  and  C_22 
REMARK    5  A    between atoms: C_30  and  O_32 
ROOT
HETATM    1  C   UNK N   1      25.947  16.225   5.083  0.00  0.00     0.034 A 
HETATM    2  C   UNK N   1      26.482  15.184   4.288  0.00  0.00     0.018 A 
HETATM    3  C   UNK N   1      27.853  14.875   4.343  0.00  0.00     0.015 A 
HETATM    4  C   UNK N   1      28.672  15.628   5.186  0.00  0.00    -0.000 A 
HETATM    5  C   UNK N   1      28.156  16.632   5.953  0.00  0.00     0.046 A 
HETATM    6  N   UNK N   1      29.119  17.234   6.666  0.00  0.00    -0.343 N 
HETATM    7  C   UNK N   1      30.296  16.605   6.391  0.00  0.00     0.055 A 
HETATM    8  C   UNK N   1      31.627  16.974   7.019  0.00  0.00     0.025 A 
HETATM    9  C   UNK N   1      31.806  17.877   8.131  0.00  0.00     0.081 A 
HETATM   10  C   UNK N   1      33.105  18.179   8.566  0.00  0.00     0.038 A 
HETATM   11  C   UNK N   1      34.223  17.605   7.973  0.00  0.00     0.003 A 
HETATM   12  C   UNK N   1      34.062  16.701   6.935  0.00  0.00     0.001 A 
HETATM   13  C   UNK N   1      32.784  16.398   6.471  0.00  0.00     0.016 A 
HETATM   14  O   UNK N   1      30.806  18.459   8.841  0.00  0.00    -0.349 OA
HETATM   15  C   UNK N   1      29.488  18.092   8.860  0.00  0.00     0.196 C 
HETATM   16  C   UNK N   1      28.895  18.376   7.524  0.00  0.00     0.156 C 
HETATM   17  C   UNK N   1      30.048  15.585   5.425  0.00  0.00    -0.014 A 
HETATM   18  C   UNK N   1      26.798  16.959   5.931  0.00  0.00     0.047 A 
ENDROOT
BRANCH   1  19
HETATM   19  C   UNK N   1      24.520  16.600   4.962  0.00  0.00     0.252 C 
HETATM   20  N   UNK N   1      23.650  16.247   5.954  0.00  0.00    -0.338 N 
HETATM   21  H   UNK N   1      24.057  15.862   6.762  0.00  0.00     0.164 HD
HETATM   22  O   UNK N   1      24.132  17.160   3.948  0.00  0.00    -0.268 OA
BRANCH  20  23
HETATM   23  C   UNK N   1      22.193  16.369   5.972  0.00  0.00     0.111 C 
HETATM   24  C   UNK N   1      21.484  15.536   4.906  0.00  0.00     0.050 C 
HETATM   25  C   UNK N   1      21.710  15.862   7.319  0.00  0.00     0.050 C 
BRANCH  23  26
HETATM   26  C   UNK N   1      21.808  17.823   5.845  0.00  0.00     0.168 C 
HETATM   27  O   UNK N   1      21.680  18.511   6.847  0.00  0.00    -0.648 OA
BRANCH  26  28
HETATM   28  O   UNK N   1      21.586  18.376   4.633  0.00  0.00    -0.775 OA
HETATM   29  H   UNK N   1      22.192  18.423   3.921  0.00  0.00     0.167 HD
ENDBRANCH  26  28
ENDBRANCH  23  26
ENDBRANCH  20  23
ENDBRANCH   1  19
BRANCH  17  30
HETATM   30  C   UNK N   1      31.040  14.624   4.772  0.00  0.00     0.022 C 
HETATM   31  C   UNK N   1      31.357  15.043   3.333  0.00  0.00     0.009 C 
HETATM   32  C   UNK N   1      32.459  14.154   2.764  0.00  0.00     0.001 C 
HETATM   33  C   UNK N   1      31.974  12.711   2.714  0.00  0.00     0.000 C 
HETATM   34  C   UNK N   1      31.596  12.238   4.114  0.00  0.00     0.001 C 
HETATM   35  C   UNK N   1      30.552  13.167   4.735  0.00  0.00     0.009 C 
ENDBRANCH  17  30
TORSDOF 5
ENDMDL
MODEL 9
REMARK VINA RESULT:      -7.3     18.925     22.246
REMARK  5 active torsions:
REMARK  status: ('A' for Active; 'I' for Inactive)
REMARK    1  A    between atoms: C_2  and  N_3 
REMARK    2  A    between atoms: C_2  and  C_30 
REMARK       I    between atoms: N_3  and  C_4 
REMARK    3  A    between atoms: C_4  and  C_5 
REMARK    4  A    between atoms: C_21  and  C_22 
REMARK    5  A    between atoms: C_30  and  O_32 
ROOT
HETATM    1  C   UNK N   1      28.341  24.087  -5.190  0.00  0.00     0.034 A 
HETATM    2  C   UNK N   1      29.503  23.839  -4.421  0.00  0.00     0.018 A 
HETATM    3  C   UNK N   1      30.419  22.845  -4.810  0.00  0.00     0.015 A 
HETATM    4  C   UNK N   1      30.148  22.102  -5.960  0.00  0.00    -0.000 A 
HETATM    5  C   UNK N   1      29.028  22.341  -6.702  0.00  0.00     0.046 A 
HETATM    6  N   UNK N   1      28.956  21.502  -7.746  0.00  0.00    -0.343 N 
HETATM    7  C   UNK N   1      30.061  20.704  -7.715  0.00  0.00     0.055 A 
HETATM    8  C   UNK N   1      30.366  19.633  -8.745  0.00  0.00     0.025 A 
HETATM    9  C   UNK N   1      29.665  19.447  -9.993  0.00  0.00     0.081 A 
HETATM   10  C   UNK N   1      30.013  18.368 -10.819  0.00  0.00     0.038 A 
HETATM   11  C   UNK N   1      31.037  17.492 -10.482  0.00  0.00     0.003 A 
HETATM   12  C   UNK N   1      31.748  17.688  -9.308  0.00  0.00     0.001 A 
HETATM   13  C   UNK N   1      31.411  18.740  -8.460  0.00  0.00     0.016 A 
HETATM   14  O   UNK N   1      28.690  20.258 -10.477  0.00  0.00    -0.349 OA
HETATM   15  C   UNK N   1      28.397  21.529 -10.063  0.00  0.00     0.196 C 
HETATM   16  C   UNK N   1      27.852  21.466  -8.678  0.00  0.00     0.156 C 
HETATM   17  C   UNK N   1      30.834  21.048  -6.567  0.00  0.00    -0.014 A 
HETATM   18  C   UNK N   1      28.102  23.327  -6.352  0.00  0.00     0.047 A 
ENDROOT
BRANCH   1  19
HETATM   19  C   UNK N   1      27.340  25.076  -4.734  0.00  0.00     0.252 C 
HETATM   20  N   UNK N   1      27.379  26.346  -5.234  0.00  0.00    -0.338 N 
HETATM   21  H   UNK N   1      28.011  26.495  -5.973  0.00  0.00     0.164 HD
HETATM   22  O   UNK N   1      26.536  24.760  -3.870  0.00  0.00    -0.268 OA
BRANCH  20  23
HETATM   23  C   UNK N   1      26.604  27.513  -4.816  0.00  0.00     0.111 C 
HETATM   24  C   UNK N   1      26.962  28.799  -5.560  0.00  0.00     0.050 C 
HETATM   25  C   UNK N   1      25.145  27.225  -5.119  0.00  0.00     0.050 C 
BRANCH  23  26
HETATM   26  C   UNK N   1      26.752  27.709  -3.327  0.00  0.00     0.168 C 
HETATM   27  O   UNK N   1      27.698  28.344  -2.886  0.00  0.00    -0.648 OA
BRANCH  26  28
HETATM   28  O   UNK N   1      25.857  27.176  -2.468  0.00  0.00    -0.775 OA
HETATM   29  H   UNK N   1      25.572  26.285  -2.438  0.00  0.00     0.167 HD
ENDBRANCH  26  28
ENDBRANCH  23  26
ENDBRANCH  20  23
ENDBRANCH   1  19
BRANCH  17  30
HETATM   30  C   UNK N   1      32.140  20.428  -6.074  0.00  0.00     0.022 C 
HETATM   31  C   UNK N   1      32.005  19.907  -4.640  0.00  0.00     0.009 C 
HETATM   32  C   UNK N   1      33.273  19.163  -4.234  0.00  0.00     0.001 C 
HETATM   33  C   UNK N   1      34.454  20.126  -4.251  0.00  0.00     0.000 C 
HETATM   34  C   UNK N   1      34.623  20.721  -5.646  0.00  0.00     0.001 C 
HETATM   35  C   UNK N   1      33.332  21.398  -6.104  0.00  0.00     0.009 C 
ENDBRANCH  17  30
TORSDOF 5
ENDMDL
