MODEL 1
REMARK VINA RESULT:      -6.2      0.000      0.000
REMARK  5 active torsions:
REMARK  status: ('A' for Active; 'I' for Inactive)
REMARK    1  A    between atoms: C_2  and  C_3 
REMARK       I    between atoms: C_2  and  N_8 
REMARK    2  A    between atoms: N_8  and  C_9 
REMARK    3  A    between atoms: C_17  and  C_18 
REMARK       I    between atoms: C_18  and  N_20 
REMARK    4  A    between atoms: N_20  and  C_23 
REMARK    5  A    between atoms: N_20  and  C_21 
ROOT
HETATM    1  C   UNK N   1      31.102  16.901   4.274  0.00  0.00     0.093 A 
HETATM    2  S   UNK N   1      30.812  15.720   3.134  0.00  0.00    -0.075 SA
HETATM    3  C   UNK N   1      32.142  14.798   3.342  0.00  0.00    -0.008 A 
HETATM    4  C   UNK N   1      32.923  15.387   4.340  0.00  0.00    -0.026 A 
HETATM    5  C   UNK N   1      34.208  14.723   4.778  0.00  0.00     0.041 C 
HETATM    6  C   UNK N   1      34.617  13.532   3.898  0.00  0.00     0.005 C 
HETATM    7  C   UNK N   1      33.414  12.686   3.487  0.00  0.00     0.005 C 
HETATM    8  C   UNK N   1      32.446  13.513   2.645  0.00  0.00     0.047 C 
HETATM    9  C   UNK N   1      32.362  16.611   4.897  0.00  0.00     0.073 A 
ENDROOT
BRANCH   1  10
HETATM   10  N   UNK N   1      30.183  17.948   4.565  0.00  0.00    -0.316 N 
HETATM   11  C   UNK N   1      29.061  17.799   5.326  0.00  0.00     0.263 C 
HETATM   12  O   UNK N   1      28.803  16.729   5.858  0.00  0.00    -0.267 OA
HETATM   13  H   UNK N   1      30.369  18.840   4.193  0.00  0.00     0.169 HD
BRANCH  11  14
HETATM   14  C   UNK N   1      28.186  18.949   5.596  0.00  0.00     0.072 A 
HETATM   15  C   UNK N   1      27.862  19.442   6.860  0.00  0.00     0.025 A 
HETATM   16  C   UNK N   1      27.024  20.590   6.811  0.00  0.00     0.009 A 
HETATM   17  C   UNK N   1      26.688  20.997   5.511  0.00  0.00     0.050 A 
HETATM   18  S   UNK N   1      27.439  19.926   4.489  0.00  0.00    -0.097 SA
ENDBRANCH  11  14
ENDBRANCH   1  10
BRANCH   9  19
HETATM   19  C   UNK N   1      33.118  17.340   6.021  0.00  0.00     0.257 C 
HETATM   20  N   UNK N   1      32.773  17.390   7.357  0.00  0.00    -0.349 N 
HETATM   21  O   UNK N   1      34.133  17.935   5.689  0.00  0.00    -0.267 OA
BRANCH  20  22
HETATM   22  C   UNK N   1      31.623  16.746   7.918  0.00  0.00     0.121 C 
HETATM   23  C   UNK N   1      30.758  17.753   8.662  0.00  0.00     0.026 C 
ENDBRANCH  20  22
BRANCH  20  24
HETATM   24  C   UNK N   1      33.612  18.128   8.287  0.00  0.00     0.121 C 
HETATM   25  C   UNK N   1      34.483  17.187   9.103  0.00  0.00     0.026 C 
ENDBRANCH  20  24
ENDBRANCH   9  19
TORSDOF 5
ENDMDL
MODEL 2
REMARK VINA RESULT:      -6.2      2.967      7.031
REMARK  5 active torsions:
REMARK  status: ('A' for Active; 'I' for Inactive)
REMARK    1  A    between atoms: C_2  and  C_3 
REMARK       I    between atoms: C_2  and  N_8 
REMARK    2  A    between atoms: N_8  and  C_9 
REMARK    3  A    between atoms: C_17  and  C_18 
REMARK       I    between atoms: C_18  and  N_20 
REMARK    4  A    between atoms: N_20  and  C_23 
REMARK    5  A    between atoms: N_20  and  C_21 
ROOT
HETATM    1  C   UNK N   1      31.370  16.573   8.494  0.00  0.00     0.093 A 
HETATM    2  S   UNK N   1      30.322  17.785   8.953  0.00  0.00    -0.075 SA
HETATM    3  C   UNK N   1      29.494  17.981   7.560  0.00  0.00    -0.008 A 
HETATM    4  C   UNK N   1      30.015  17.089   6.620  0.00  0.00    -0.026 A 
HETATM    5  C   UNK N   1      29.409  17.016   5.238  0.00  0.00     0.041 C 
HETATM    6  C   UNK N   1      28.376  18.118   4.959  0.00  0.00     0.005 C 
HETATM    7  C   UNK N   1      27.492  18.393   6.173  0.00  0.00     0.005 C 
HETATM    8  C   UNK N   1      28.336  18.899   7.341  0.00  0.00     0.047 C 
HETATM    9  C   UNK N   1      31.108  16.263   7.117  0.00  0.00     0.073 A 
ENDROOT
BRANCH   1  10
HETATM   10  N   UNK N   1      32.292  15.958   9.387  0.00  0.00    -0.316 N 
HETATM   11  C   UNK N   1      33.646  16.105   9.318  0.00  0.00     0.263 C 
HETATM   12  O   UNK N   1      34.154  16.841   8.485  0.00  0.00    -0.267 OA
HETATM   13  H   UNK N   1      31.928  15.388  10.102  0.00  0.00     0.169 HD
BRANCH  11  14
HETATM   14  C   UNK N   1      34.517  15.451  10.306  0.00  0.00     0.072 A 
HETATM   15  C   UNK N   1      35.291  16.106  11.264  0.00  0.00     0.025 A 
HETATM   16  C   UNK N   1      36.004  15.211  12.109  0.00  0.00     0.009 A 
HETATM   17  C   UNK N   1      35.792  13.855  11.813  0.00  0.00     0.050 A 
HETATM   18  S   UNK N   1      34.739  13.827  10.530  0.00  0.00    -0.097 SA
ENDBRANCH  11  14
ENDBRANCH   1  10
BRANCH   9  19
HETATM   19  C   UNK N   1      31.750  15.224   6.182  0.00  0.00     0.257 C 
HETATM   20  N   UNK N   1      32.770  15.441   5.277  0.00  0.00    -0.349 N 
HETATM   21  O   UNK N   1      31.307  14.088   6.254  0.00  0.00    -0.267 OA
BRANCH  20  22
HETATM   22  C   UNK N   1      33.409  16.707   5.068  0.00  0.00     0.121 C 
HETATM   23  C   UNK N   1      32.781  17.431   3.887  0.00  0.00     0.026 C 
ENDBRANCH  20  22
BRANCH  20  24
HETATM   24  C   UNK N   1      33.260  14.335   4.471  0.00  0.00     0.121 C 
HETATM   25  C   UNK N   1      34.763  14.168   4.626  0.00  0.00     0.026 C 
ENDBRANCH  20  24
ENDBRANCH   9  19
TORSDOF 5
ENDMDL
MODEL 3
REMARK VINA RESULT:      -6.1     11.825     14.650
REMARK  5 active torsions:
REMARK  status: ('A' for Active; 'I' for Inactive)
REMARK    1  A    between atoms: C_2  and  C_3 
REMARK       I    between atoms: C_2  and  N_8 
REMARK    2  A    between atoms: N_8  and  C_9 
REMARK    3  A    between atoms: C_17  and  C_18 
REMARK       I    between atoms: C_18  and  N_20 
REMARK    4  A    between atoms: N_20  and  C_23 
REMARK    5  A    between atoms: N_20  and  C_21 
ROOT
HETATM    1  C   UNK N   1      26.973  23.734  -5.937  0.00  0.00     0.093 A 
HETATM    2  S   UNK N   1      25.934  24.769  -6.728  0.00  0.00    -0.075 SA
HETATM    3  C   UNK N   1      25.781  25.933  -5.595  0.00  0.00    -0.008 A 
HETATM    4  C   UNK N   1      26.550  25.561  -4.489  0.00  0.00    -0.026 A 
HETATM    5  C   UNK N   1      26.634  26.478  -3.291  0.00  0.00     0.041 C 
HETATM    6  C   UNK N   1      25.665  27.668  -3.356  0.00  0.00     0.005 C 
HETATM    7  C   UNK N   1      25.569  28.250  -4.765  0.00  0.00     0.005 C 
HETATM    8  C   UNK N   1      25.014  27.208  -5.732  0.00  0.00     0.047 C 
HETATM    9  C   UNK N   1      27.247  24.291  -4.642  0.00  0.00     0.073 A 
ENDROOT
BRANCH   1  10
HETATM   10  N   UNK N   1      27.503  22.555  -6.530  0.00  0.00    -0.316 N 
HETATM   11  C   UNK N   1      28.532  22.538  -7.425  0.00  0.00     0.263 C 
HETATM   12  O   UNK N   1      29.106  23.571  -7.738  0.00  0.00    -0.267 OA
HETATM   13  H   UNK N   1      27.101  21.693  -6.278  0.00  0.00     0.169 HD
BRANCH  11  14
HETATM   14  C   UNK N   1      29.031  21.264  -7.963  0.00  0.00     0.072 A 
HETATM   15  C   UNK N   1      29.376  20.144  -7.206  0.00  0.00     0.025 A 
HETATM   16  C   UNK N   1      29.791  19.041  -8.002  0.00  0.00     0.009 A 
HETATM   17  C   UNK N   1      29.775  19.295  -9.383  0.00  0.00     0.050 A 
HETATM   18  S   UNK N   1      29.249  20.861  -9.552  0.00  0.00    -0.097 SA
ENDBRANCH  11  14
ENDBRANCH   1  10
BRANCH   9  19
HETATM   19  C   UNK N   1      28.145  23.785  -3.500  0.00  0.00     0.257 C 
HETATM   20  N   UNK N   1      29.526  23.750  -3.485  0.00  0.00    -0.349 N 
HETATM   21  O   UNK N   1      27.570  23.374  -2.504  0.00  0.00    -0.267 OA
BRANCH  20  22
HETATM   22  C   UNK N   1      30.358  24.198  -4.562  0.00  0.00     0.121 C 
HETATM   23  C   UNK N   1      30.759  25.650  -4.356  0.00  0.00     0.026 C 
ENDBRANCH  20  22
BRANCH  20  24
HETATM   24  C   UNK N   1      30.216  23.239  -2.311  0.00  0.00     0.121 C 
HETATM   25  C   UNK N   1      31.324  22.275  -2.704  0.00  0.00     0.026 C 
ENDBRANCH  20  24
ENDBRANCH   9  19
TORSDOF 5
ENDMDL
MODEL 4
REMARK VINA RESULT:      -6.1      3.226      5.541
REMARK  5 active torsions:
REMARK  status: ('A' for Active; 'I' for Inactive)
REMARK    1  A    between atoms: C_2  and  C_3 
REMARK       I    between atoms: C_2  and  N_8 
REMARK    2  A    between atoms: N_8  and  C_9 
REMARK    3  A    between atoms: C_17  and  C_18 
REMARK       I    between atoms: C_18  and  N_20 
REMARK    4  A    between atoms: N_20  and  C_23 
REMARK    5  A    between atoms: N_20  and  C_21 
ROOT
HETATM    1  C   UNK N   1      27.819  17.803   6.552  0.00  0.00     0.093 A 
HETATM    2  S   UNK N   1      28.553  18.676   7.767  0.00  0.00    -0.075 SA
HETATM    3  C   UNK N   1      29.936  17.824   7.927  0.00  0.00    -0.008 A 
HETATM    4  C   UNK N   1      29.897  16.765   7.018  0.00  0.00    -0.026 A 
HETATM    5  C   UNK N   1      31.075  15.823   6.911  0.00  0.00     0.041 C 
HETATM    6  C   UNK N   1      32.135  16.038   8.001  0.00  0.00     0.005 C 
HETATM    7  C   UNK N   1      32.359  17.519   8.298  0.00  0.00     0.005 C 
HETATM    8  C   UNK N   1      31.077  18.152   8.834  0.00  0.00     0.047 C 
HETATM    9  C   UNK N   1      28.686  16.711   6.210  0.00  0.00     0.073 A 
ENDROOT
BRANCH   1  10
HETATM   10  N   UNK N   1      26.579  18.175   5.962  0.00  0.00    -0.316 N 
HETATM   11  C   UNK N   1      26.458  18.922   4.827  0.00  0.00     0.263 C 
HETATM   12  O   UNK N   1      27.448  19.281   4.206  0.00  0.00    -0.267 OA
HETATM   13  H   UNK N   1      25.752  17.874   6.402  0.00  0.00     0.169 HD
BRANCH  11  14
HETATM   14  C   UNK N   1      25.130  19.231   4.276  0.00  0.00     0.072 A 
HETATM   15  C   UNK N   1      24.840  20.278   3.402  0.00  0.00     0.025 A 
HETATM   16  C   UNK N   1      23.474  20.309   3.006  0.00  0.00     0.009 A 
HETATM   17  C   UNK N   1      22.692  19.291   3.573  0.00  0.00     0.050 A 
HETATM   18  S   UNK N   1      23.721  18.403   4.528  0.00  0.00    -0.097 SA
ENDBRANCH  11  14
ENDBRANCH   1  10
BRANCH   9  19
HETATM   19  C   UNK N   1      28.536  15.602   5.154  0.00  0.00     0.257 C 
HETATM   20  N   UNK N   1      29.016  15.619   3.860  0.00  0.00    -0.349 N 
HETATM   21  O   UNK N   1      27.929  14.601   5.506  0.00  0.00    -0.267 OA
BRANCH  20  22
HETATM   22  C   UNK N   1      29.753  16.706   3.285  0.00  0.00     0.121 C 
HETATM   23  C   UNK N   1      31.219  16.330   3.128  0.00  0.00     0.026 C 
ENDBRANCH  20  22
BRANCH  20  24
HETATM   24  C   UNK N   1      28.784  14.474   2.994  0.00  0.00     0.121 C 
HETATM   25  C   UNK N   1      27.742  14.791   1.933  0.00  0.00     0.026 C 
ENDBRANCH  20  24
ENDBRANCH   9  19
TORSDOF 5
ENDMDL
MODEL 5
REMARK VINA RESULT:      -5.9      2.917      7.628
REMARK  5 active torsions:
REMARK  status: ('A' for Active; 'I' for Inactive)
REMARK    1  A    between atoms: C_2  and  C_3 
REMARK       I    between atoms: C_2  and  N_8 
REMARK    2  A    between atoms: N_8  and  C_9 
REMARK    3  A    between atoms: C_17  and  C_18 
REMARK       I    between atoms: C_18  and  N_20 
REMARK    4  A    between atoms: N_20  and  C_23 
REMARK    5  A    between atoms: N_20  and  C_21 
ROOT
HETATM    1  C   UNK N   1      32.514  16.006   7.442  0.00  0.00     0.093 A 
HETATM    2  S   UNK N   1      32.370  17.137   8.657  0.00  0.00    -0.075 SA
HETATM    3  C   UNK N   1      30.857  17.674   8.361  0.00  0.00    -0.008 A 
HETATM    4  C   UNK N   1      30.366  16.986   7.249  0.00  0.00    -0.026 A 
HETATM    5  C   UNK N   1      28.958  17.249   6.766  0.00  0.00     0.041 C 
HETATM    6  C   UNK N   1      28.278  18.435   7.465  0.00  0.00     0.005 C 
HETATM    7  C   UNK N   1      28.600  18.479   8.958  0.00  0.00     0.005 C 
HETATM    8  C   UNK N   1      30.099  18.674   9.171  0.00  0.00     0.047 C 
HETATM    9  C   UNK N   1      31.296  16.019   6.681  0.00  0.00     0.073 A 
ENDROOT
BRANCH   1  10
HETATM   10  N   UNK N   1      33.652  15.166   7.288  0.00  0.00    -0.316 N 
HETATM   11  C   UNK N   1      34.774  15.507   6.592  0.00  0.00     0.263 C 
HETATM   12  O   UNK N   1      34.885  16.615   6.088  0.00  0.00    -0.267 OA
HETATM   13  H   UNK N   1      33.628  14.277   7.711  0.00  0.00     0.169 HD
BRANCH  11  14
HETATM   14  C   UNK N   1      35.913  14.580   6.513  0.00  0.00     0.072 A 
HETATM   15  C   UNK N   1      36.685  14.340   5.376  0.00  0.00     0.025 A 
HETATM   16  C   UNK N   1      37.745  13.421   5.609  0.00  0.00     0.009 A 
HETATM   17  C   UNK N   1      37.803  12.936   6.925  0.00  0.00     0.050 A 
HETATM   18  S   UNK N   1      36.550  13.665   7.735  0.00  0.00    -0.097 SA
ENDBRANCH  11  14
ENDBRANCH   1  10
BRANCH   9  19
HETATM   19  C   UNK N   1      30.861  15.181   5.467  0.00  0.00     0.257 C 
HETATM   20  N   UNK N   1      30.900  15.561   4.140  0.00  0.00    -0.349 N 
HETATM   21  O   UNK N   1      30.439  14.060   5.709  0.00  0.00    -0.267 OA
BRANCH  20  22
HETATM   22  C   UNK N   1      31.371  16.833   3.678  0.00  0.00     0.121 C 
HETATM   23  C   UNK N   1      32.810  16.724   3.196  0.00  0.00     0.026 C 
ENDBRANCH  20  22
BRANCH  20  24
HETATM   24  C   UNK N   1      30.450  14.633   3.116  0.00  0.00     0.121 C 
HETATM   25  C   UNK N   1      29.143  15.097   2.493  0.00  0.00     0.026 C 
ENDBRANCH  20  24
ENDBRANCH   9  19
TORSDOF 5
ENDMDL
MODEL 6
REMARK VINA RESULT:      -5.9     11.204     14.659
REMARK  5 active torsions:
REMARK  status: ('A' for Active; 'I' for Inactive)
REMARK    1  A    between atoms: C_2  and  C_3 
REMARK       I    between atoms: C_2  and  N_8 
REMARK    2  A    between atoms: N_8  and  C_9 
REMARK    3  A    between atoms: C_17  and  C_18 
REMARK       I    between atoms: C_18  and  N_20 
REMARK    4  A    between atoms: N_20  and  C_23 
REMARK    5  A    between atoms: N_20  and  C_21 
ROOT
HETATM    1  C   UNK N   1      29.807  25.603  -4.073  0.00  0.00     0.093 A 
HETATM    2  S   UNK N   1      30.524  27.055  -3.683  0.00  0.00    -0.075 SA
HETATM    3  C   UNK N   1      29.194  27.976  -3.469  0.00  0.00    -0.008 A 
HETATM    4  C   UNK N   1      28.074  27.177  -3.712  0.00  0.00    -0.026 A 
HETATM    5  C   UNK N   1      26.688  27.756  -3.546  0.00  0.00     0.041 C 
HETATM    6  C   UNK N   1      26.679  29.274  -3.313  0.00  0.00     0.005 C 
HETATM    7  C   UNK N   1      27.813  29.717  -2.391  0.00  0.00     0.005 C 
HETATM    8  C   UNK N   1      29.166  29.402  -3.025  0.00  0.00     0.047 C 
HETATM    9  C   UNK N   1      28.385  25.800  -4.074  0.00  0.00     0.073 A 
ENDROOT
BRANCH   1  10
HETATM   10  N   UNK N   1      30.540  24.403  -4.292  0.00  0.00    -0.316 N 
HETATM   11  C   UNK N   1      30.810  23.478  -3.327  0.00  0.00     0.263 C 
HETATM   12  O   UNK N   1      30.376  23.612  -2.192  0.00  0.00    -0.267 OA
HETATM   13  H   UNK N   1      30.876  24.229  -5.201  0.00  0.00     0.169 HD
BRANCH  11  14
HETATM   14  C   UNK N   1      31.553  22.252  -3.657  0.00  0.00     0.072 A 
HETATM   15  C   UNK N   1      32.630  21.738  -2.935  0.00  0.00     0.025 A 
HETATM   16  C   UNK N   1      33.125  20.516  -3.469  0.00  0.00     0.009 A 
HETATM   17  C   UNK N   1      32.439  20.073  -4.611  0.00  0.00     0.050 A 
HETATM   18  S   UNK N   1      31.259  21.204  -4.902  0.00  0.00    -0.097 SA
ENDBRANCH  11  14
ENDBRANCH   1  10
BRANCH   9  19
HETATM   19  C   UNK N   1      27.234  24.815  -4.342  0.00  0.00     0.257 C 
HETATM   20  N   UNK N   1      26.629  24.559  -5.557  0.00  0.00    -0.349 N 
HETATM   21  O   UNK N   1      26.817  24.196  -3.375  0.00  0.00    -0.267 OA
BRANCH  20  22
HETATM   22  C   UNK N   1      26.995  25.188  -6.791  0.00  0.00     0.121 C 
HETATM   23  C   UNK N   1      26.101  26.388  -7.063  0.00  0.00     0.026 C 
ENDBRANCH  20  22
BRANCH  20  24
HETATM   24  C   UNK N   1      25.550  23.586  -5.628  0.00  0.00     0.121 C 
HETATM   25  C   UNK N   1      25.757  22.624  -6.787  0.00  0.00     0.026 C 
ENDBRANCH  20  24
ENDBRANCH   9  19
TORSDOF 5
ENDMDL
MODEL 7
REMARK VINA RESULT:      -5.8      9.018     11.811
REMARK  5 active torsions:
REMARK  status: ('A' for Active; 'I' for Inactive)
REMARK    1  A    between atoms: C_2  and  C_3 
REMARK       I    between atoms: C_2  and  N_8 
REMARK    2  A    between atoms: N_8  and  C_9 
REMARK    3  A    between atoms: C_17  and  C_18 
REMARK       I    between atoms: C_18  and  N_20 
REMARK    4  A    between atoms: N_20  and  C_23 
REMARK    5  A    between atoms: N_20  and  C_21 
ROOT
HETATM    1  C   UNK N   1      36.448  13.143  13.753  0.00  0.00     0.093 A 
HETATM    2  S   UNK N   1      36.210  14.674  13.140  0.00  0.00    -0.075 SA
HETATM    3  C   UNK N   1      36.275  14.349  11.542  0.00  0.00    -0.008 A 
HETATM    4  C   UNK N   1      36.508  12.980  11.390  0.00  0.00    -0.026 A 
HETATM    5  C   UNK N   1      36.574  12.379  10.006  0.00  0.00     0.041 C 
HETATM    6  C   UNK N   1      36.575  13.424   8.880  0.00  0.00     0.005 C 
HETATM    7  C   UNK N   1      35.620  14.579   9.172  0.00  0.00     0.005 C 
HETATM    8  C   UNK N   1      36.057  15.323  10.431  0.00  0.00     0.047 C 
HETATM    9  C   UNK N   1      36.624  12.248  12.645  0.00  0.00     0.073 A 
ENDROOT
BRANCH   1  10
HETATM   10  N   UNK N   1      36.407  12.843  15.143  0.00  0.00    -0.316 N 
HETATM   11  C   UNK N   1      35.262  12.751  15.879  0.00  0.00     0.263 C 
HETATM   12  O   UNK N   1      34.167  12.877  15.350  0.00  0.00    -0.267 OA
HETATM   13  H   UNK N   1      37.262  12.692  15.607  0.00  0.00     0.169 HD
BRANCH  11  14
HETATM   14  C   UNK N   1      35.319  12.407  17.307  0.00  0.00     0.072 A 
HETATM   15  C   UNK N   1      35.147  13.301  18.363  0.00  0.00     0.025 A 
HETATM   16  C   UNK N   1      35.218  12.675  19.639  0.00  0.00     0.009 A 
HETATM   17  C   UNK N   1      35.448  11.291  19.584  0.00  0.00     0.050 A 
HETATM   18  S   UNK N   1      35.550  10.910  17.971  0.00  0.00    -0.097 SA
ENDBRANCH  11  14
ENDBRANCH   1  10
BRANCH   9  19
HETATM   19  C   UNK N   1      36.857  10.728  12.609  0.00  0.00     0.257 C 
HETATM   20  N   UNK N   1      35.925   9.740  12.858  0.00  0.00    -0.349 N 
HETATM   21  O   UNK N   1      37.988  10.362  12.326  0.00  0.00    -0.267 OA
BRANCH  20  22
HETATM   22  C   UNK N   1      34.555   9.988  13.196  0.00  0.00     0.121 C 
HETATM   23  C   UNK N   1      33.700  10.052  11.939  0.00  0.00     0.026 C 
ENDBRANCH  20  22
BRANCH  20  24
HETATM   24  C   UNK N   1      36.321   8.343  12.774  0.00  0.00     0.121 C 
HETATM   25  C   UNK N   1      35.778   7.548  13.950  0.00  0.00     0.026 C 
ENDBRANCH  20  24
ENDBRANCH   9  19
TORSDOF 5
ENDMDL
MODEL 8
REMARK VINA RESULT:      -5.7      9.448     12.436
REMARK  5 active torsions:
REMARK  status: ('A' for Active; 'I' for Inactive)
REMARK    1  A    between atoms: C_2  and  C_3 
REMARK       I    between atoms: C_2  and  N_8 
REMARK    2  A    between atoms: N_8  and  C_9 
REMARK    3  A    between atoms: C_17  and  C_18 
REMARK       I    between atoms: C_18  and  N_20 
REMARK    4  A    between atoms: N_20  and  C_23 
REMARK    5  A    between atoms: N_20  and  C_21 
ROOT
HETATM    1  C   UNK N   1      35.793  12.775  15.325  0.00  0.00     0.093 A 
HETATM    2  S   UNK N   1      35.000  13.114  16.751  0.00  0.00    -0.075 SA
HETATM    3  C   UNK N   1      35.450  11.819  17.637  0.00  0.00    -0.008 A 
HETATM    4  C   UNK N   1      36.264  11.013  16.838  0.00  0.00    -0.026 A 
HETATM    5  C   UNK N   1      36.869   9.753  17.413  0.00  0.00     0.041 C 
HETATM    6  C   UNK N   1      36.333   9.393  18.806  0.00  0.00     0.005 C 
HETATM    7  C   UNK N   1      36.150  10.628  19.685  0.00  0.00     0.005 C 
HETATM    8  C   UNK N   1      35.114  11.567  19.070  0.00  0.00     0.047 C 
HETATM    9  C   UNK N   1      36.480  11.524  15.490  0.00  0.00     0.073 A 
ENDROOT
BRANCH   1  10
HETATM   10  N   UNK N   1      35.796  13.652  14.205  0.00  0.00    -0.316 N 
HETATM   11  C   UNK N   1      35.144  13.407  13.033  0.00  0.00     0.263 C 
HETATM   12  O   UNK N   1      34.457  12.405  12.897  0.00  0.00    -0.267 OA
HETATM   13  H   UNK N   1      36.303  14.492  14.281  0.00  0.00     0.169 HD
BRANCH  11  14
HETATM   14  C   UNK N   1      35.183  14.389  11.939  0.00  0.00     0.072 A 
HETATM   15  C   UNK N   1      35.801  15.638  11.994  0.00  0.00     0.025 A 
HETATM   16  C   UNK N   1      35.709  16.358  10.770  0.00  0.00     0.009 A 
HETATM   17  C   UNK N   1      35.016  15.676   9.757  0.00  0.00     0.050 A 
HETATM   18  S   UNK N   1      34.555  14.224  10.418  0.00  0.00    -0.097 SA
ENDBRANCH  11  14
ENDBRANCH   1  10
BRANCH   9  19
HETATM   19  C   UNK N   1      37.379  10.736  14.522  0.00  0.00     0.257 C 
HETATM   20  N   UNK N   1      37.030   9.617  13.793  0.00  0.00    -0.349 N 
HETATM   21  O   UNK N   1      38.520  11.152  14.387  0.00  0.00    -0.267 OA
BRANCH  20  22
HETATM   22  C   UNK N   1      35.737   9.002  13.825  0.00  0.00     0.121 C 
HETATM   23  C   UNK N   1      35.805   7.655  14.527  0.00  0.00     0.026 C 
ENDBRANCH  20  22
BRANCH  20  24
HETATM   24  C   UNK N   1      38.013   8.999  12.917  0.00  0.00     0.121 C 
HETATM   25  C   UNK N   1      37.701   9.283  11.457  0.00  0.00     0.026 C 
ENDBRANCH  20  24
ENDBRANCH   9  19
TORSDOF 5
ENDMDL
MODEL 9
REMARK VINA RESULT:      -5.7     10.241     12.440
REMARK  5 active torsions:
REMARK  status: ('A' for Active; 'I' for Inactive)
REMARK    1  A    between atoms: C_2  and  C_3 
REMARK       I    between atoms: C_2  and  N_8 
REMARK    2  A    between atoms: N_8  and  C_9 
REMARK    3  A    between atoms: C_17  and  C_18 
REMARK       I    between atoms: C_18  and  N_20 
REMARK    4  A    between atoms: N_20  and  C_23 
REMARK    5  A    between atoms: N_20  and  C_21 
ROOT
HETATM    1  C   UNK N   1      20.936  16.174   6.245  0.00  0.00     0.093 A 
HETATM    2  S   UNK N   1      21.655  17.672   6.118  0.00  0.00    -0.075 SA
HETATM    3  C   UNK N   1      21.147  18.100   4.627  0.00  0.00    -0.008 A 
HETATM    4  C   UNK N   1      20.370  17.056   4.120  0.00  0.00    -0.026 A 
HETATM    5  C   UNK N   1      19.725  17.192   2.760  0.00  0.00     0.041 C 
HETATM    6  C   UNK N   1      20.182  18.435   1.983  0.00  0.00     0.005 C 
HETATM    7  C   UNK N   1      20.329  19.655   2.891  0.00  0.00     0.005 C 
HETATM    8  C   UNK N   1      21.404  19.404   3.945  0.00  0.00     0.047 C 
HETATM    9  C   UNK N   1      20.231  15.919   5.020  0.00  0.00     0.073 A 
ENDROOT
BRANCH   1  10
HETATM   10  N   UNK N   1      21.001  15.373   7.419  0.00  0.00    -0.316 N 
HETATM   11  C   UNK N   1      21.998  14.485   7.693  0.00  0.00     0.263 C 
HETATM   12  O   UNK N   1      22.952  14.362   6.937  0.00  0.00    -0.267 OA
HETATM   13  H   UNK N   1      20.276  15.466   8.079  0.00  0.00     0.169 HD
BRANCH  11  14
HETATM   14  C   UNK N   1      21.993  13.721   8.950  0.00  0.00     0.072 A 
HETATM   15  C   UNK N   1      20.859  13.391   9.692  0.00  0.00     0.025 A 
HETATM   16  C   UNK N   1      21.157  12.612  10.844  0.00  0.00     0.009 A 
HETATM   17  C   UNK N   1      22.523  12.334  11.008  0.00  0.00     0.050 A 
HETATM   18  S   UNK N   1      23.293  13.058   9.727  0.00  0.00    -0.097 SA
ENDBRANCH  11  14
ENDBRANCH   1  10
BRANCH   9  19
HETATM   19  C   UNK N   1      19.379  14.715   4.583  0.00  0.00     0.257 C 
HETATM   20  N   UNK N   1      19.766  13.683   3.752  0.00  0.00    -0.349 N 
HETATM   21  O   UNK N   1      18.240  14.673   5.024  0.00  0.00    -0.267 OA
BRANCH  20  22
HETATM   22  C   UNK N   1      21.063  13.570   3.154  0.00  0.00     0.121 C 
HETATM   23  C   UNK N   1      20.973  13.759   1.648  0.00  0.00     0.026 C 
ENDBRANCH  20  22
BRANCH  20  24
HETATM   24  C   UNK N   1      18.825  12.617   3.448  0.00  0.00     0.121 C 
HETATM   25  C   UNK N   1      19.132  11.367   4.257  0.00  0.00     0.026 C 
ENDBRANCH  20  24
ENDBRANCH   9  19
TORSDOF 5
ENDMDL
