REMARK  5 active torsions:
REMARK  status: ('A' for Active; 'I' for Inactive)
REMARK    1  A    between atoms: C_2  and  C_3 
REMARK       I    between atoms: C_2  and  N_8 
REMARK    2  A    between atoms: N_8  and  C_9 
REMARK    3  A    between atoms: C_17  and  C_18 
REMARK       I    between atoms: C_18  and  N_20 
REMARK    4  A    between atoms: N_20  and  C_23 
REMARK    5  A    between atoms: N_20  and  C_21 
ROOT
HETATM    1  C   UNK N   1      -0.025  -0.841  -0.330  0.00  0.00     0.093 A 
HETATM    2  S   UNK N   1       0.985  -2.121  -0.674  0.00  0.00    -0.075 SA
HETATM    3  C   UNK N   1       2.429  -1.434  -0.347  0.00  0.00    -0.008 A 
HETATM    4  C   UNK N   1       2.198  -0.115   0.051  0.00  0.00    -0.026 A 
HETATM    5  C   UNK N   1       3.360   0.760   0.461  0.00  0.00     0.041 C 
HETATM    6  C   UNK N   1       4.733   0.127   0.190  0.00  0.00     0.005 C 
HETATM    7  C   UNK N   1       4.746  -1.367   0.506  0.00  0.00     0.005 C 
HETATM    8  C   UNK N   1       3.761  -2.108  -0.395  0.00  0.00     0.047 C 
HETATM    9  C   UNK N   1       0.793   0.271   0.065  0.00  0.00     0.073 A 
ENDROOT
BRANCH   1  10
HETATM   10  N   UNK N   1      -1.444  -0.930  -0.380  0.00  0.00    -0.316 N 
HETATM   11  C   UNK N   1      -2.149  -2.090  -0.250  0.00  0.00     0.263 C 
HETATM   12  O   UNK N   1      -1.578  -3.147  -0.025  0.00  0.00    -0.267 OA
HETATM   13  H   UNK N   1      -1.952  -0.098  -0.518  0.00  0.00     0.169 HD
BRANCH  11  14
HETATM   14  C   UNK N   1      -3.619  -2.077  -0.287  0.00  0.00     0.072 A 
HETATM   15  C   UNK N   1      -4.446  -3.165  -0.008  0.00  0.00     0.025 A 
HETATM   16  C   UNK N   1      -5.830  -2.845  -0.086  0.00  0.00     0.009 A 
HETATM   17  C   UNK N   1      -6.089  -1.509  -0.429  0.00  0.00     0.050 A 
HETATM   18  S   UNK N   1      -4.604  -0.790  -0.616  0.00  0.00    -0.097 SA
ENDBRANCH  11  14
ENDBRANCH   1  10
BRANCH   9  19
HETATM   19  C   UNK N   1       0.409   1.693   0.509  0.00  0.00     0.257 C 
HETATM   20  N   UNK N   1      -0.863   2.226   0.574  0.00  0.00    -0.349 N 
HETATM   21  O   UNK N   1       1.332   2.422   0.840  0.00  0.00    -0.267 OA
BRANCH  20  22
HETATM   22  C   UNK N   1      -2.057   1.512   0.231  0.00  0.00     0.121 C 
HETATM   23  C   UNK N   1      -2.939   1.330   1.457  0.00  0.00     0.026 C 
ENDBRANCH  20  22
BRANCH  20  24
HETATM   24  C   UNK N   1      -1.043   3.597   1.024  0.00  0.00     0.121 C 
HETATM   25  C   UNK N   1      -0.499   4.584   0.004  0.00  0.00     0.026 C 
ENDBRANCH  20  24
ENDBRANCH   9  19
TORSDOF 5
