MODEL 1
REMARK VINA RESULT:      -6.4      0.000      0.000
REMARK  5 active torsions:
REMARK  status: ('A' for Active; 'I' for Inactive)
REMARK    1  A    between atoms: C_2  and  C_3 
REMARK       I    between atoms: C_2  and  N_8 
REMARK    2  A    between atoms: N_8  and  C_9 
REMARK    3  A    between atoms: C_18  and  C_19 
REMARK       I    between atoms: C_19  and  N_21 
REMARK    4  A    between atoms: N_21  and  C_22 
REMARK    5  A    between atoms: N_21  and  C_24 
ROOT
HETATM    1  C   UNK N   1      31.146  16.593   8.405  0.00  0.00     0.093 A 
HETATM    2  S   UNK N   1      30.167  17.803   9.007  0.00  0.00    -0.075 SA
HETATM    3  C   UNK N   1      29.284  18.139   7.670  0.00  0.00    -0.008 A 
HETATM    4  C   UNK N   1      29.722  17.296   6.650  0.00  0.00    -0.026 A 
HETATM    5  C   UNK N   1      29.083  17.369   5.290  0.00  0.00     0.045 C 
HETATM    6  C   UNK N   1      27.662  17.926   5.371  0.00  0.00    -0.014 C 
HETATM    7  C   UNK N   1      27.138  18.140   3.967  0.00  0.00     0.010 C 
HETATM    8  C   UNK N   1      27.654  19.261   6.122  0.00  0.00     0.009 C 
HETATM    9  C   UNK N   1      28.172  19.137   7.562  0.00  0.00     0.047 C 
HETATM   10  C   UNK N   1      30.773  16.377   7.039  0.00  0.00     0.073 A 
ENDROOT
BRANCH   1  11
HETATM   11  N   UNK N   1      32.156  15.940   9.170  0.00  0.00    -0.316 N 
HETATM   12  C   UNK N   1      33.463  16.333   9.206  0.00  0.00     0.263 C 
HETATM   13  O   UNK N   1      33.877  17.196   8.446  0.00  0.00    -0.267 OA
HETATM   14  H   UNK N   1      31.895  15.156   9.705  0.00  0.00     0.169 HD
BRANCH  12  15
HETATM   15  C   UNK N   1      34.402  15.715  10.154  0.00  0.00     0.072 A 
HETATM   16  S   UNK N   1      34.608  14.090  10.389  0.00  0.00    -0.097 SA
HETATM   17  C   UNK N   1      35.814  14.111  11.527  0.00  0.00     0.050 A 
HETATM   18  C   UNK N   1      36.100  15.464  11.757  0.00  0.00     0.009 A 
HETATM   19  C   UNK N   1      35.309  16.367  10.987  0.00  0.00     0.025 A 
ENDBRANCH  12  15
ENDBRANCH   1  11
BRANCH  10  20
HETATM   20  C   UNK N   1      31.310  15.380   6.020  0.00  0.00     0.257 C 
HETATM   21  O   UNK N   1      30.822  14.256   6.043  0.00  0.00    -0.267 OA
HETATM   22  N   UNK N   1      32.329  15.611   5.125  0.00  0.00    -0.349 N 
BRANCH  22  23
HETATM   23  C   UNK N   1      33.063  16.846   5.069  0.00  0.00     0.121 C 
HETATM   24  C   UNK N   1      32.548  17.708   3.927  0.00  0.00     0.026 C 
ENDBRANCH  22  23
BRANCH  22  25
HETATM   25  C   UNK N   1      32.814  14.526   4.289  0.00  0.00     0.121 C 
HETATM   26  C   UNK N   1      34.325  14.393   4.370  0.00  0.00     0.026 C 
ENDBRANCH  22  25
ENDBRANCH  10  20
TORSDOF 5
ENDMDL
MODEL 2
REMARK VINA RESULT:      -6.2      2.686      7.211
REMARK  5 active torsions:
REMARK  status: ('A' for Active; 'I' for Inactive)
REMARK    1  A    between atoms: C_2  and  C_3 
REMARK       I    between atoms: C_2  and  N_8 
REMARK    2  A    between atoms: N_8  and  C_9 
REMARK    3  A    between atoms: C_18  and  C_19 
REMARK       I    between atoms: C_19  and  N_21 
REMARK    4  A    between atoms: N_21  and  C_22 
REMARK    5  A    between atoms: N_21  and  C_24 
ROOT
HETATM    1  C   UNK N   1      31.075  16.796   4.234  0.00  0.00     0.093 A 
HETATM    2  S   UNK N   1      30.843  15.556   3.142  0.00  0.00    -0.075 SA
HETATM    3  C   UNK N   1      32.231  14.719   3.372  0.00  0.00    -0.008 A 
HETATM    4  C   UNK N   1      32.972  15.386   4.346  0.00  0.00    -0.026 A 
HETATM    5  C   UNK N   1      34.306  14.840   4.779  0.00  0.00     0.045 C 
HETATM    6  C   UNK N   1      34.399  13.335   4.533  0.00  0.00    -0.014 C 
HETATM    7  C   UNK N   1      35.813  12.877   4.820  0.00  0.00     0.010 C 
HETATM    8  C   UNK N   1      34.047  13.009   3.079  0.00  0.00     0.009 C 
HETATM    9  C   UNK N   1      32.624  13.439   2.699  0.00  0.00     0.047 C 
HETATM   10  C   UNK N   1      32.332  16.570   4.883  0.00  0.00     0.073 A 
ENDROOT
BRANCH   1  11
HETATM   11  N   UNK N   1      30.148  17.861   4.429  0.00  0.00    -0.316 N 
HETATM   12  C   UNK N   1      29.048  17.782   5.234  0.00  0.00     0.263 C 
HETATM   13  O   UNK N   1      28.709  16.715   5.726  0.00  0.00    -0.267 OA
HETATM   14  H   UNK N   1      30.310  18.707   3.952  0.00  0.00     0.169 HD
BRANCH  12  15
HETATM   15  C   UNK N   1      28.242  18.979   5.517  0.00  0.00     0.072 A 
HETATM   16  S   UNK N   1      27.794  19.510   7.019  0.00  0.00    -0.097 SA
HETATM   17  C   UNK N   1      26.970  20.887   6.607  0.00  0.00     0.050 A 
HETATM   18  C   UNK N   1      27.034  20.970   5.208  0.00  0.00     0.009 A 
HETATM   19  C   UNK N   1      27.749  19.899   4.594  0.00  0.00     0.025 A 
ENDBRANCH  12  15
ENDBRANCH   1  11
BRANCH  10  20
HETATM   20  C   UNK N   1      33.028  17.364   5.981  0.00  0.00     0.257 C 
HETATM   21  O   UNK N   1      34.024  17.998   5.653  0.00  0.00    -0.267 OA
HETATM   22  N   UNK N   1      32.675  17.379   7.312  0.00  0.00    -0.349 N 
BRANCH  22  23
HETATM   23  C   UNK N   1      31.600  16.592   7.851  0.00  0.00     0.121 C 
HETATM   24  C   UNK N   1      30.638  17.482   8.624  0.00  0.00     0.026 C 
ENDBRANCH  22  23
BRANCH  22  25
HETATM   25  C   UNK N   1      33.504  18.094   8.268  0.00  0.00     0.121 C 
HETATM   26  C   UNK N   1      34.362  17.141   9.082  0.00  0.00     0.026 C 
ENDBRANCH  22  25
ENDBRANCH  10  20
TORSDOF 5
ENDMDL
MODEL 3
REMARK VINA RESULT:      -6.1      7.811     11.083
REMARK  5 active torsions:
REMARK  status: ('A' for Active; 'I' for Inactive)
REMARK    1  A    between atoms: C_2  and  C_3 
REMARK       I    between atoms: C_2  and  N_8 
REMARK    2  A    between atoms: N_8  and  C_9 
REMARK    3  A    between atoms: C_18  and  C_19 
REMARK       I    between atoms: C_19  and  N_21 
REMARK    4  A    between atoms: N_21  and  C_22 
REMARK    5  A    between atoms: N_21  and  C_24 
ROOT
HETATM    1  C   UNK N   1      36.873  12.778  14.415  0.00  0.00     0.093 A 
HETATM    2  S   UNK N   1      36.642  14.171  15.304  0.00  0.00    -0.075 SA
HETATM    3  C   UNK N   1      36.024  13.527  16.676  0.00  0.00    -0.008 A 
HETATM    4  C   UNK N   1      35.963  12.145  16.506  0.00  0.00    -0.026 A 
HETATM    5  C   UNK N   1      35.439  11.275  17.616  0.00  0.00     0.045 C 
HETATM    6  C   UNK N   1      35.602  11.950  18.978  0.00  0.00    -0.014 C 
HETATM    7  C   UNK N   1      34.904  11.113  20.028  0.00  0.00     0.010 C 
HETATM    8  C   UNK N   1      34.983  13.351  18.956  0.00  0.00     0.009 C 
HETATM    9  C   UNK N   1      35.634  14.274  17.916  0.00  0.00     0.047 C 
HETATM   10  C   UNK N   1      36.463  11.674  15.230  0.00  0.00     0.073 A 
ENDROOT
BRANCH   1  11
HETATM   11  N   UNK N   1      37.383  12.766  13.084  0.00  0.00    -0.316 N 
HETATM   12  C   UNK N   1      36.647  13.079  11.978  0.00  0.00     0.263 C 
HETATM   13  O   UNK N   1      35.438  13.246  12.059  0.00  0.00    -0.267 OA
HETATM   14  H   UNK N   1      38.326  12.514  12.954  0.00  0.00     0.169 HD
BRANCH  12  15
HETATM   15  C   UNK N   1      37.294  13.212  10.664  0.00  0.00     0.072 A 
HETATM   16  S   UNK N   1      36.527  13.575   9.243  0.00  0.00    -0.097 SA
HETATM   17  C   UNK N   1      37.826  13.607   8.213  0.00  0.00     0.050 A 
HETATM   18  C   UNK N   1      38.950  13.324   9.003  0.00  0.00     0.009 A 
HETATM   19  C   UNK N   1      38.653  13.102  10.380  0.00  0.00     0.025 A 
ENDBRANCH  12  15
ENDBRANCH   1  11
BRANCH  10  20
HETATM   20  C   UNK N   1      36.483  10.178  14.941  0.00  0.00     0.257 C 
HETATM   21  O   UNK N   1      37.427   9.544  15.395  0.00  0.00    -0.267 OA
HETATM   22  N   UNK N   1      35.572   9.495  14.168  0.00  0.00    -0.349 N 
BRANCH  22  23
HETATM   23  C   UNK N   1      34.482  10.136  13.483  0.00  0.00     0.121 C 
HETATM   24  C   UNK N   1      33.475  10.670  14.491  0.00  0.00     0.026 C 
ENDBRANCH  22  23
BRANCH  22  25
HETATM   25  C   UNK N   1      35.783   8.085  13.884  0.00  0.00     0.121 C 
HETATM   26  C   UNK N   1      36.124   7.857  12.421  0.00  0.00     0.026 C 
ENDBRANCH  22  25
ENDBRANCH  10  20
TORSDOF 5
ENDMDL
MODEL 4
REMARK VINA RESULT:      -6.0      8.847     11.477
REMARK  5 active torsions:
REMARK  status: ('A' for Active; 'I' for Inactive)
REMARK    1  A    between atoms: C_2  and  C_3 
REMARK       I    between atoms: C_2  and  N_8 
REMARK    2  A    between atoms: N_8  and  C_9 
REMARK    3  A    between atoms: C_18  and  C_19 
REMARK       I    between atoms: C_19  and  N_21 
REMARK    4  A    between atoms: N_21  and  C_22 
REMARK    5  A    between atoms: N_21  and  C_24 
ROOT
HETATM    1  C   UNK N   1      21.190  15.882   6.558  0.00  0.00     0.093 A 
HETATM    2  S   UNK N   1      20.021  15.675   7.731  0.00  0.00    -0.075 SA
HETATM    3  C   UNK N   1      20.749  14.535   8.653  0.00  0.00    -0.008 A 
HETATM    4  C   UNK N   1      21.984  14.247   8.075  0.00  0.00    -0.026 A 
HETATM    5  C   UNK N   1      22.893  13.232   8.713  0.00  0.00     0.045 C 
HETATM    6  C   UNK N   1      22.609  13.091  10.208  0.00  0.00    -0.014 C 
HETATM    7  C   UNK N   1      23.424  11.940  10.756  0.00  0.00     0.010 C 
HETATM    8  C   UNK N   1      21.121  12.814  10.444  0.00  0.00     0.009 C 
HETATM    9  C   UNK N   1      20.215  13.936   9.918  0.00  0.00     0.047 C 
HETATM   10  C   UNK N   1      22.285  15.017   6.884  0.00  0.00     0.073 A 
ENDROOT
BRANCH   1  11
HETATM   11  N   UNK N   1      21.054  16.773   5.454  0.00  0.00    -0.316 N 
HETATM   12  C   UNK N   1      21.358  18.103   5.502  0.00  0.00     0.263 C 
HETATM   13  O   UNK N   1      21.628  18.645   6.564  0.00  0.00    -0.267 OA
HETATM   14  H   UNK N   1      20.718  16.407   4.605  0.00  0.00     0.169 HD
BRANCH  12  15
HETATM   15  C   UNK N   1      21.356  18.914   4.274  0.00  0.00     0.072 A 
HETATM   16  S   UNK N   1      22.693  19.549   3.534  0.00  0.00    -0.097 SA
HETATM   17  C   UNK N   1      21.981  20.279   2.227  0.00  0.00     0.050 A 
HETATM   18  C   UNK N   1      20.607  20.024   2.345  0.00  0.00     0.009 A 
HETATM   19  C   UNK N   1      20.254  19.256   3.494  0.00  0.00     0.025 A 
ENDBRANCH  12  15
ENDBRANCH   1  11
BRANCH  10  20
HETATM   20  C   UNK N   1      23.623  14.818   6.183  0.00  0.00     0.257 C 
HETATM   21  O   UNK N   1      24.533  15.569   6.513  0.00  0.00    -0.267 OA
HETATM   22  N   UNK N   1      23.878  13.917   5.175  0.00  0.00    -0.349 N 
BRANCH  22  23
HETATM   23  C   UNK N   1      22.872  13.056   4.614  0.00  0.00     0.121 C 
HETATM   24  C   UNK N   1      23.183  11.605   4.949  0.00  0.00     0.026 C 
ENDBRANCH  22  23
BRANCH  22  25
HETATM   25  C   UNK N   1      25.175  13.918   4.519  0.00  0.00     0.121 C 
HETATM   26  C   UNK N   1      25.096  14.531   3.131  0.00  0.00     0.026 C 
ENDBRANCH  22  25
ENDBRANCH  10  20
TORSDOF 5
ENDMDL
MODEL 5
REMARK VINA RESULT:      -6.0     13.145     16.358
REMARK  5 active torsions:
REMARK  status: ('A' for Active; 'I' for Inactive)
REMARK    1  A    between atoms: C_2  and  C_3 
REMARK       I    between atoms: C_2  and  N_8 
REMARK    2  A    between atoms: N_8  and  C_9 
REMARK    3  A    between atoms: C_18  and  C_19 
REMARK       I    between atoms: C_19  and  N_21 
REMARK    4  A    between atoms: N_21  and  C_22 
REMARK    5  A    between atoms: N_21  and  C_24 
ROOT
HETATM    1  C   UNK N   1      27.436  26.578  -5.530  0.00  0.00     0.093 A 
HETATM    2  S   UNK N   1      26.818  26.841  -7.057  0.00  0.00    -0.075 SA
HETATM    3  C   UNK N   1      26.323  25.325  -7.423  0.00  0.00    -0.008 A 
HETATM    4  C   UNK N   1      26.624  24.506  -6.336  0.00  0.00    -0.026 A 
HETATM    5  C   UNK N   1      26.273  23.044  -6.377  0.00  0.00     0.045 C 
HETATM    6  C   UNK N   1      25.117  22.775  -7.339  0.00  0.00    -0.014 C 
HETATM    7  C   UNK N   1      24.927  21.279  -7.473  0.00  0.00     0.010 C 
HETATM    8  C   UNK N   1      25.420  23.371  -8.718  0.00  0.00     0.009 C 
HETATM    9  C   UNK N   1      25.627  24.891  -8.677  0.00  0.00     0.047 C 
HETATM   10  C   UNK N   1      27.242  25.193  -5.219  0.00  0.00     0.073 A 
ENDROOT
BRANCH   1  11
HETATM   11  N   UNK N   1      28.041  27.596  -4.736  0.00  0.00    -0.316 N 
HETATM   12  C   UNK N   1      27.493  28.104  -3.594  0.00  0.00     0.263 C 
HETATM   13  O   UNK N   1      26.352  27.813  -3.266  0.00  0.00    -0.267 OA
HETATM   14  H   UNK N   1      28.910  27.955  -5.030  0.00  0.00     0.169 HD
BRANCH  12  15
HETATM   15  C   UNK N   1      28.261  29.023  -2.741  0.00  0.00     0.072 A 
HETATM   16  S   UNK N   1      29.908  29.042  -2.581  0.00  0.00    -0.097 SA
HETATM   17  C   UNK N   1      30.084  30.317  -1.536  0.00  0.00     0.050 A 
HETATM   18  C   UNK N   1      28.787  30.785  -1.280  0.00  0.00     0.009 A 
HETATM   19  C   UNK N   1      27.762  30.060  -1.956  0.00  0.00     0.025 A 
ENDBRANCH  12  15
ENDBRANCH   1  11
BRANCH  10  20
HETATM   20  C   UNK N   1      27.584  24.411  -3.957  0.00  0.00     0.257 C 
HETATM   21  O   UNK N   1      26.757  24.439  -3.053  0.00  0.00    -0.267 OA
HETATM   22  N   UNK N   1      28.760  23.735  -3.722  0.00  0.00    -0.349 N 
BRANCH  22  23
HETATM   23  C   UNK N   1      29.858  23.718  -4.650  0.00  0.00     0.121 C 
HETATM   24  C   UNK N   1      29.746  22.510  -5.567  0.00  0.00     0.026 C 
ENDBRANCH  22  23
BRANCH  22  25
HETATM   25  C   UNK N   1      28.994  23.129  -2.422  0.00  0.00     0.121 C 
HETATM   26  C   UNK N   1      30.473  22.874  -2.185  0.00  0.00     0.026 C 
ENDBRANCH  22  25
ENDBRANCH  10  20
TORSDOF 5
ENDMDL
MODEL 6
REMARK VINA RESULT:      -6.0      7.304      9.616
REMARK  5 active torsions:
REMARK  status: ('A' for Active; 'I' for Inactive)
REMARK    1  A    between atoms: C_2  and  C_3 
REMARK       I    between atoms: C_2  and  N_8 
REMARK    2  A    between atoms: N_8  and  C_9 
REMARK    3  A    between atoms: C_18  and  C_19 
REMARK       I    between atoms: C_19  and  N_21 
REMARK    4  A    between atoms: N_21  and  C_22 
REMARK    5  A    between atoms: N_21  and  C_24 
ROOT
HETATM    1  C   UNK N   1      36.336  13.220  13.831  0.00  0.00     0.093 A 
HETATM    2  S   UNK N   1      36.197  14.678  13.032  0.00  0.00    -0.075 SA
HETATM    3  C   UNK N   1      36.372  14.168  11.487  0.00  0.00    -0.008 A 
HETATM    4  C   UNK N   1      36.555  12.787  11.514  0.00  0.00    -0.026 A 
HETATM    5  C   UNK N   1      36.737  12.028  10.228  0.00  0.00     0.045 C 
HETATM    6  C   UNK N   1      36.111  12.772   9.049  0.00  0.00    -0.014 C 
HETATM    7  C   UNK N   1      36.475  12.055   7.767  0.00  0.00     0.010 C 
HETATM    8  C   UNK N   1      36.631  14.211   8.989  0.00  0.00     0.009 C 
HETATM    9  C   UNK N   1      36.303  15.017  10.254  0.00  0.00     0.047 C 
HETATM   10  C   UNK N   1      36.517  12.201  12.840  0.00  0.00     0.073 A 
ENDROOT
BRANCH   1  11
HETATM   11  N   UNK N   1      36.283  13.087  15.249  0.00  0.00    -0.316 N 
HETATM   12  C   UNK N   1      35.145  12.806  15.950  0.00  0.00     0.263 C 
HETATM   13  O   UNK N   1      34.055  12.804  15.396  0.00  0.00    -0.267 OA
HETATM   14  H   UNK N   1      37.118  13.205  15.756  0.00  0.00     0.169 HD
BRANCH  12  15
HETATM   15  C   UNK N   1      35.208  12.513  17.390  0.00  0.00     0.072 A 
HETATM   16  S   UNK N   1      35.430  11.017  18.061  0.00  0.00    -0.097 SA
HETATM   17  C   UNK N   1      35.443  11.420  19.669  0.00  0.00     0.050 A 
HETATM   18  C   UNK N   1      35.269  12.811  19.718  0.00  0.00     0.009 A 
HETATM   19  C   UNK N   1      35.138  13.427  18.438  0.00  0.00     0.025 A 
ENDBRANCH  12  15
ENDBRANCH   1  11
BRANCH  10  20
HETATM   20  C   UNK N   1      36.668  10.693  12.996  0.00  0.00     0.257 C 
HETATM   21  O   UNK N   1      37.808  10.248  12.949  0.00  0.00    -0.267 OA
HETATM   22  N   UNK N   1      35.637   9.789  13.120  0.00  0.00    -0.349 N 
BRANCH  22  23
HETATM   23  C   UNK N   1      34.250  10.164  13.075  0.00  0.00     0.121 C 
HETATM   24  C   UNK N   1      33.694   9.939  11.677  0.00  0.00     0.026 C 
ENDBRANCH  22  23
BRANCH  22  25
HETATM   25  C   UNK N   1      35.928   8.366  13.145  0.00  0.00     0.121 C 
HETATM   26  C   UNK N   1      35.881   7.813  14.560  0.00  0.00     0.026 C 
ENDBRANCH  22  25
ENDBRANCH  10  20
TORSDOF 5
ENDMDL
MODEL 7
REMARK VINA RESULT:      -5.9      3.792      8.129
REMARK  5 active torsions:
REMARK  status: ('A' for Active; 'I' for Inactive)
REMARK    1  A    between atoms: C_2  and  C_3 
REMARK       I    between atoms: C_2  and  N_8 
REMARK    2  A    between atoms: N_8  and  C_9 
REMARK    3  A    between atoms: C_18  and  C_19 
REMARK       I    between atoms: C_19  and  N_21 
REMARK    4  A    between atoms: N_21  and  C_22 
REMARK    5  A    between atoms: N_21  and  C_24 
ROOT
HETATM    1  C   UNK N   1      27.545  18.254   6.243  0.00  0.00     0.093 A 
HETATM    2  S   UNK N   1      28.164  18.885   7.658  0.00  0.00    -0.075 SA
HETATM    3  C   UNK N   1      29.607  18.113   7.700  0.00  0.00    -0.008 A 
HETATM    4  C   UNK N   1      29.684  17.295   6.574  0.00  0.00    -0.026 A 
HETATM    5  C   UNK N   1      30.912  16.461   6.335  0.00  0.00     0.045 C 
HETATM    6  C   UNK N   1      32.137  17.060   7.026  0.00  0.00    -0.014 C 
HETATM    7  C   UNK N   1      33.294  16.093   6.899  0.00  0.00     0.010 C 
HETATM    8  C   UNK N   1      31.845  17.307   8.509  0.00  0.00     0.009 C 
HETATM    9  C   UNK N   1      30.680  18.282   8.733  0.00  0.00     0.047 C 
HETATM   10  C   UNK N   1      28.530  17.366   5.700  0.00  0.00     0.073 A 
ENDROOT
BRANCH   1  11
HETATM   11  N   UNK N   1      26.256  18.581   5.729  0.00  0.00    -0.316 N 
HETATM   12  C   UNK N   1      26.045  19.358   4.626  0.00  0.00     0.263 C 
HETATM   13  O   UNK N   1      26.971  19.954   4.096  0.00  0.00    -0.267 OA
HETATM   14  H   UNK N   1      25.469  18.224   6.199  0.00  0.00     0.169 HD
BRANCH  12  15
HETATM   15  C   UNK N   1      24.695  19.501   4.062  0.00  0.00     0.072 A 
HETATM   16  S   UNK N   1      23.401  18.524   4.392  0.00  0.00    -0.097 SA
HETATM   17  C   UNK N   1      22.235  19.268   3.479  0.00  0.00     0.050 A 
HETATM   18  C   UNK N   1      22.865  20.360   2.866  0.00  0.00     0.009 A 
HETATM   19  C   UNK N   1      24.248  20.493   3.192  0.00  0.00     0.025 A 
ENDBRANCH  12  15
ENDBRANCH   1  11
BRANCH  10  20
HETATM   20  C   UNK N   1      28.513  16.546   4.416  0.00  0.00     0.257 C 
HETATM   21  O   UNK N   1      28.948  17.092   3.410  0.00  0.00    -0.267 OA
HETATM   22  N   UNK N   1      27.996  15.278   4.277  0.00  0.00    -0.349 N 
BRANCH  22  23
HETATM   23  C   UNK N   1      27.353  14.567   5.349  0.00  0.00     0.121 C 
HETATM   24  C   UNK N   1      25.864  14.875   5.359  0.00  0.00     0.026 C 
ENDBRANCH  22  23
BRANCH  22  25
HETATM   25  C   UNK N   1      27.944  14.662   2.962  0.00  0.00     0.121 C 
HETATM   26  C   UNK N   1      28.289  13.184   3.027  0.00  0.00     0.026 C 
ENDBRANCH  22  25
ENDBRANCH  10  20
TORSDOF 5
ENDMDL
MODEL 8
REMARK VINA RESULT:      -5.9     13.509     16.701
REMARK  5 active torsions:
REMARK  status: ('A' for Active; 'I' for Inactive)
REMARK    1  A    between atoms: C_2  and  C_3 
REMARK       I    between atoms: C_2  and  N_8 
REMARK    2  A    between atoms: N_8  and  C_9 
REMARK    3  A    between atoms: C_18  and  C_19 
REMARK       I    between atoms: C_19  and  N_21 
REMARK    4  A    between atoms: N_21  and  C_22 
REMARK    5  A    between atoms: N_21  and  C_24 
ROOT
HETATM    1  C   UNK N   1      29.177  25.333  -4.476  0.00  0.00     0.093 A 
HETATM    2  S   UNK N   1      30.030  24.496  -3.312  0.00  0.00    -0.075 SA
HETATM    3  C   UNK N   1      30.164  23.043  -4.055  0.00  0.00    -0.008 A 
HETATM    4  C   UNK N   1      29.529  23.139  -5.292  0.00  0.00    -0.026 A 
HETATM    5  C   UNK N   1      29.496  21.950  -6.213  0.00  0.00     0.045 C 
HETATM    6  C   UNK N   1      30.658  20.997  -5.934  0.00  0.00    -0.014 C 
HETATM    7  C   UNK N   1      30.476  19.744  -6.763  0.00  0.00     0.010 C 
HETATM    8  C   UNK N   1      30.695  20.620  -4.450  0.00  0.00     0.009 C 
HETATM    9  C   UNK N   1      30.880  21.836  -3.531  0.00  0.00     0.047 C 
HETATM   10  C   UNK N   1      28.970  24.445  -5.581  0.00  0.00     0.073 A 
ENDROOT
BRANCH   1  11
HETATM   11  N   UNK N   1      28.756  26.687  -4.327  0.00  0.00    -0.316 N 
HETATM   12  C   UNK N   1      27.556  27.062  -3.795  0.00  0.00     0.263 C 
HETATM   13  O   UNK N   1      26.693  26.230  -3.552  0.00  0.00    -0.267 OA
HETATM   14  H   UNK N   1      29.369  27.396  -4.627  0.00  0.00     0.169 HD
BRANCH  12  15
HETATM   15  C   UNK N   1      27.272  28.477  -3.516  0.00  0.00     0.072 A 
HETATM   16  S   UNK N   1      28.086  29.430  -2.434  0.00  0.00    -0.097 SA
HETATM   17  C   UNK N   1      27.295  30.869  -2.661  0.00  0.00     0.050 A 
HETATM   18  C   UNK N   1      26.326  30.623  -3.646  0.00  0.00     0.009 A 
HETATM   19  C   UNK N   1      26.313  29.280  -4.127  0.00  0.00     0.025 A 
ENDBRANCH  12  15
ENDBRANCH   1  11
BRANCH  10  20
HETATM   20  C   UNK N   1      28.281  24.684  -6.919  0.00  0.00     0.257 C 
HETATM   21  O   UNK N   1      28.950  25.227  -7.790  0.00  0.00    -0.267 OA
HETATM   22  N   UNK N   1      26.966  24.402  -7.211  0.00  0.00    -0.349 N 
BRANCH  22  23
HETATM   23  C   UNK N   1      26.042  23.869  -6.247  0.00  0.00     0.121 C 
HETATM   24  C   UNK N   1      25.562  22.495  -6.688  0.00  0.00     0.026 C 
ENDBRANCH  22  23
BRANCH  22  25
HETATM   25  C   UNK N   1      26.415  24.791  -8.497  0.00  0.00     0.121 C 
HETATM   26  C   UNK N   1      25.810  26.184  -8.445  0.00  0.00     0.026 C 
ENDBRANCH  22  25
ENDBRANCH  10  20
TORSDOF 5
ENDMDL
MODEL 9
REMARK VINA RESULT:      -5.6      6.187     11.617
REMARK  5 active torsions:
REMARK  status: ('A' for Active; 'I' for Inactive)
REMARK    1  A    between atoms: C_2  and  C_3 
REMARK       I    between atoms: C_2  and  N_8 
REMARK    2  A    between atoms: N_8  and  C_9 
REMARK    3  A    between atoms: C_18  and  C_19 
REMARK       I    between atoms: C_19  and  N_21 
REMARK    4  A    between atoms: N_21  and  C_22 
REMARK    5  A    between atoms: N_21  and  C_24 
ROOT
HETATM    1  C   UNK N   1      36.027  12.686  15.205  0.00  0.00     0.093 A 
HETATM    2  S   UNK N   1      35.160  13.030  16.588  0.00  0.00    -0.075 SA
HETATM    3  C   UNK N   1      35.496  11.692  17.469  0.00  0.00    -0.008 A 
HETATM    4  C   UNK N   1      36.331  10.879  16.704  0.00  0.00    -0.026 A 
HETATM    5  C   UNK N   1      36.819   9.570  17.261  0.00  0.00     0.045 C 
HETATM    6  C   UNK N   1      36.824   9.580  18.789  0.00  0.00    -0.014 C 
HETATM    7  C   UNK N   1      37.153   8.191  19.289  0.00  0.00     0.010 C 
HETATM    8  C   UNK N   1      35.451   9.998  19.324  0.00  0.00     0.009 C 
HETATM    9  C   UNK N   1      35.035  11.403  18.865  0.00  0.00     0.047 C 
HETATM   10  C   UNK N   1      36.678  11.425  15.407  0.00  0.00     0.073 A 
ENDROOT
BRANCH   1  11
HETATM   11  N   UNK N   1      36.062  13.536  14.062  0.00  0.00    -0.316 N 
HETATM   12  C   UNK N   1      35.221  13.419  12.993  0.00  0.00     0.263 C 
HETATM   13  O   UNK N   1      34.472  12.458  12.890  0.00  0.00    -0.267 OA
HETATM   14  H   UNK N   1      36.736  14.254  14.041  0.00  0.00     0.169 HD
BRANCH  12  15
HETATM   15  C   UNK N   1      35.207  14.443  11.937  0.00  0.00     0.072 A 
HETATM   16  S   UNK N   1      34.407  14.330  10.493  0.00  0.00    -0.097 SA
HETATM   17  C   UNK N   1      34.778  15.808   9.840  0.00  0.00     0.050 A 
HETATM   18  C   UNK N   1      35.578  16.459  10.791  0.00  0.00     0.009 A 
HETATM   19  C   UNK N   1      35.819  15.693  11.970  0.00  0.00     0.025 A 
ENDBRANCH  12  15
ENDBRANCH   1  11
BRANCH  10  20
HETATM   20  C   UNK N   1      37.615  10.645  14.493  0.00  0.00     0.257 C 
HETATM   21  O   UNK N   1      38.791  10.990  14.490  0.00  0.00    -0.267 OA
HETATM   22  N   UNK N   1      37.246   9.637  13.632  0.00  0.00    -0.349 N 
BRANCH  22  23
HETATM   23  C   UNK N   1      35.884   9.212  13.454  0.00  0.00     0.121 C 
HETATM   24  C   UNK N   1      35.681   7.838  14.073  0.00  0.00     0.026 C 
ENDBRANCH  22  23
BRANCH  22  25
HETATM   25  C   UNK N   1      38.233   9.060  12.735  0.00  0.00     0.121 C 
HETATM   26  C   UNK N   1      37.894   9.340  11.281  0.00  0.00     0.026 C 
ENDBRANCH  22  25
ENDBRANCH  10  20
TORSDOF 5
ENDMDL
