REMARK  5 active torsions:
REMARK  status: ('A' for Active; 'I' for Inactive)
REMARK    1  A    between atoms: C_2  and  C_3 
REMARK       I    between atoms: C_2  and  N_8 
REMARK    2  A    between atoms: N_8  and  C_9 
REMARK    3  A    between atoms: C_18  and  C_19 
REMARK       I    between atoms: C_19  and  N_21 
REMARK    4  A    between atoms: N_21  and  C_22 
REMARK    5  A    between atoms: N_21  and  C_24 
ROOT
HETATM    1  C   UNK N   1      -0.278  -2.111  -0.107  0.00  0.00     0.093 A 
HETATM    2  S   UNK N   1       0.706  -3.451   0.035  0.00  0.00    -0.075 SA
HETATM    3  C   UNK N   1       2.172  -2.738  -0.114  0.00  0.00    -0.008 A 
HETATM    4  C   UNK N   1       1.963  -1.371  -0.288  0.00  0.00    -0.026 A 
HETATM    5  C   UNK N   1       3.139  -0.446  -0.445  0.00  0.00     0.045 C 
HETATM    6  C   UNK N   1       4.398  -1.031   0.194  0.00  0.00    -0.014 C 
HETATM    7  C   UNK N   1       5.578  -0.147  -0.146  0.00  0.00     0.010 C 
HETATM    8  C   UNK N   1       4.657  -2.445  -0.335  0.00  0.00     0.009 C 
HETATM    9  C   UNK N   1       3.506  -3.415  -0.032  0.00  0.00     0.047 C 
HETATM   10  C   UNK N   1       0.571  -0.968  -0.266  0.00  0.00     0.073 A 
ENDROOT
BRANCH   1  11
HETATM   11  N   UNK N   1      -1.702  -2.169  -0.074  0.00  0.00    -0.316 N 
HETATM   12  C   UNK N   1      -2.429  -3.294  -0.338  0.00  0.00     0.263 C 
HETATM   13  O   UNK N   1      -1.888  -4.299  -0.776  0.00  0.00    -0.267 OA
HETATM   14  H   UNK N   1      -2.192  -1.346   0.153  0.00  0.00     0.169 HD
BRANCH  12  15
HETATM   15  C   UNK N   1      -3.882  -3.314  -0.111  0.00  0.00     0.072 A 
HETATM   16  S   UNK N   1      -4.893  -4.583  -0.437  0.00  0.00    -0.097 SA
HETATM   17  C   UNK N   1      -6.332  -3.950   0.089  0.00  0.00     0.050 A 
HETATM   18  C   UNK N   1      -6.036  -2.663   0.561  0.00  0.00     0.009 A 
HETATM   19  C   UNK N   1      -4.660  -2.304   0.450  0.00  0.00     0.025 A 
ENDBRANCH  12  15
ENDBRANCH   1  11
BRANCH  10  20
HETATM   20  C   UNK N   1       0.217   0.507  -0.409  0.00  0.00     0.257 C 
HETATM   21  O   UNK N   1       1.086   1.238  -0.869  0.00  0.00    -0.267 OA
HETATM   22  N   UNK N   1      -0.962   1.095  -0.011  0.00  0.00    -0.349 N 
BRANCH  22  23
HETATM   23  C   UNK N   1      -2.019   0.375   0.646  0.00  0.00     0.121 C 
HETATM   24  C   UNK N   1      -3.314   0.518  -0.139  0.00  0.00     0.026 C 
ENDBRANCH  22  23
BRANCH  22  25
HETATM   25  C   UNK N   1      -1.115   2.537  -0.105  0.00  0.00     0.121 C 
HETATM   26  C   UNK N   1      -1.212   2.993  -1.551  0.00  0.00     0.026 C 
ENDBRANCH  22  25
ENDBRANCH  10  20
TORSDOF 5
