REMARK  6 active torsions:
REMARK  status: ('A' for Active; 'I' for Inactive)
REMARK    1  A    between atoms: N_1  and  N_3 
REMARK       I    between atoms: N_3  and  C_4 
REMARK    2  A    between atoms: C_4  and  C_6 
REMARK    3  A    between atoms: C_8  and  O_13 
REMARK    4  A    between atoms: C_9  and  O_12 
REMARK    5  A    between atoms: C_14  and  C_15 
REMARK    6  A    between atoms: C_16  and  O_17 
ROOT
HETATM    1  N   UNK N   1       2.600  -1.442   0.000  0.00  0.00    -0.308 N 
ATOM      2  HN  UNK N   1       2.917  -2.412   0.000  1.00  0.00     0.186 HD
HETATM    3  C   UNK N   1       3.507  -0.526   0.000  0.00  0.00     0.122 C 
ENDROOT
BRANCH   1   4
HETATM    4  N   UNK N   1       1.249  -1.226  -0.000  0.00  0.00    -0.266 N 
HETATM    5  C   UNK N   1       0.356  -2.252  -0.000  0.00  0.00     0.270 C 
HETATM    6  O   UNK N   1      -0.836  -1.987  -0.000  0.00  0.00    -0.266 OA
HETATM    7  H   UNK N   1       0.914  -0.300  -0.000  0.00  0.00     0.190 HD
BRANCH   5   8
HETATM    8  C   UNK N   1       0.779  -3.689  -0.000  0.00  0.00     0.036 A 
HETATM    9  C   UNK N   1       2.133  -4.056  -0.000  0.00  0.00     0.056 A 
HETATM   10  C   UNK N   1       2.520  -5.393   0.000  0.00  0.00     0.099 A 
HETATM   11  C   UNK N   1       1.547  -6.396   0.000  0.00  0.00     0.098 A 
HETATM   12  C   UNK N   1       0.191  -6.049   0.000  0.00  0.00     0.040 A 
HETATM   13  C   UNK N   1      -0.191  -4.703  -0.000  0.00  0.00     0.020 A 
BRANCH  10  14
HETATM   14  O   UNK N   1       3.827  -5.706   0.000  0.00  0.00    -0.358 OA
HETATM   15  H   UNK N   1       4.093  -6.605   0.000  0.00  0.00     0.217 HD
ENDBRANCH  10  14
BRANCH  11  16
HETATM   16  O   UNK N   1       1.907  -7.690   0.000  0.00  0.00    -0.358 OA
HETATM   17  H   UNK N   1       1.252  -8.359   0.000  0.00  0.00     0.217 HD
ENDBRANCH  11  16
ENDBRANCH   5   8
ENDBRANCH   1   4
BRANCH   3  18
HETATM   18  C   UNK N   1       3.448   0.974   0.000  0.00  0.00     0.025 A 
HETATM   19  C   UNK N   1       2.268   1.779   0.000  0.00  0.00     0.080 A 
HETATM   20  C   UNK N   1       2.387   3.181   0.000  0.00  0.00     0.038 A 
HETATM   21  C   UNK N   1       3.630   3.802  -0.000  0.00  0.00     0.015 A 
HETATM   22  C   UNK N   1       4.788   3.039  -0.000  0.00  0.00    -0.025 A 
HETATM   23  C   UNK N   1       6.033   3.675  -0.000  0.00  0.00     0.012 A 
HETATM   24  C   UNK N   1       4.709   1.628   0.000  0.00  0.00    -0.011 A 
HETATM   25  C   UNK N   1       7.209   2.921  -0.000  0.00  0.00     0.001 A 
HETATM   26  C   UNK N   1       7.147   1.528  -0.000  0.00  0.00     0.001 A 
HETATM   27  C   UNK N   1       5.908   0.886   0.000  0.00  0.00     0.013 A 
BRANCH  19  28
HETATM   28  O   UNK N   1       1.036   1.224   0.000  0.00  0.00    -0.355 OA
HETATM   29  C   UNK N   1      -0.137   1.948   0.000  0.00  0.00     0.210 C 
ENDBRANCH  19  28
ENDBRANCH   3  18
TORSDOF 6
