MODEL 1
REMARK VINA RESULT:      -7.7      0.000      0.000
REMARK  6 active torsions:
REMARK  status: ('A' for Active; 'I' for Inactive)
REMARK    1  A    between atoms: N_1  and  N_3 
REMARK       I    between atoms: N_3  and  C_4 
REMARK    2  A    between atoms: C_4  and  C_6 
REMARK    3  A    between atoms: C_8  and  O_13 
REMARK    4  A    between atoms: C_9  and  O_12 
REMARK    5  A    between atoms: C_14  and  C_15 
REMARK    6  A    between atoms: C_16  and  O_17 
ROOT
HETATM    1  N   UNK N   1      35.947  13.887  13.999  0.00  0.00    -0.308 N 
ATOM      2  HN  UNK N   1      35.767  14.872  13.806  1.00  0.00     0.186 HD
HETATM    3  C   UNK N   1      35.290  13.347  14.968  0.00  0.00     0.122 C 
ENDROOT
BRANCH   1   4
HETATM    4  N   UNK N   1      36.866  13.252  13.208  0.00  0.00    -0.266 N 
HETATM    5  C   UNK N   1      36.895  13.425  11.859  0.00  0.00     0.270 C 
HETATM    6  O   UNK N   1      37.742  12.828  11.214  0.00  0.00    -0.266 OA
HETATM    7  H   UNK N   1      37.524  12.653  13.628  0.00  0.00     0.190 HD
BRANCH   5   8
HETATM    8  C   UNK N   1      35.932  14.318  11.140  0.00  0.00     0.036 A 
HETATM    9  C   UNK N   1      36.195  15.683  10.952  0.00  0.00     0.056 A 
HETATM   10  C   UNK N   1      35.295  16.508  10.282  0.00  0.00     0.099 A 
HETATM   11  C   UNK N   1      34.104  15.973   9.784  0.00  0.00     0.098 A 
HETATM   12  C   UNK N   1      33.825  14.613   9.961  0.00  0.00     0.040 A 
HETATM   13  C   UNK N   1      34.733  13.790  10.635  0.00  0.00     0.020 A 
BRANCH  10  14
HETATM   14  O   UNK N   1      35.582  17.811  10.122  0.00  0.00    -0.358 OA
HETATM   15  H   UNK N   1      36.040  18.098   9.356  0.00  0.00     0.217 HD
ENDBRANCH  10  14
BRANCH  11  16
HETATM   16  O   UNK N   1      33.228  16.758   9.135  0.00  0.00    -0.358 OA
HETATM   17  H   UNK N   1      33.345  17.687   9.129  0.00  0.00     0.217 HD
ENDBRANCH  11  16
ENDBRANCH   5   8
ENDBRANCH   1   4
BRANCH   3  18
HETATM   18  C   UNK N   1      35.272  11.962  15.547  0.00  0.00     0.025 A 
HETATM   19  C   UNK N   1      35.272  10.734  14.818  0.00  0.00     0.080 A 
HETATM   20  C   UNK N   1      35.254   9.514  15.517  0.00  0.00     0.038 A 
HETATM   21  C   UNK N   1      35.237   9.475  16.906  0.00  0.00     0.015 A 
HETATM   22  C   UNK N   1      35.237  10.656  17.634  0.00  0.00    -0.025 A 
HETATM   23  C   UNK N   1      35.219  10.605  19.031  0.00  0.00     0.012 A 
HETATM   24  C   UNK N   1      35.254  11.902  16.967  0.00  0.00    -0.011 A 
HETATM   25  C   UNK N   1      35.219  11.785  19.778  0.00  0.00     0.001 A 
HETATM   26  C   UNK N   1      35.236  13.022  19.134  0.00  0.00     0.001 A 
HETATM   27  C   UNK N   1      35.254  13.080  17.740  0.00  0.00     0.013 A 
BRANCH  19  28
HETATM   28  O   UNK N   1      35.288  10.717  13.467  0.00  0.00    -0.355 OA
HETATM   29  C   UNK N   1      34.164  10.574  12.682  0.00  0.00     0.210 C 
ENDBRANCH  19  28
ENDBRANCH   3  18
TORSDOF 6
ENDMDL
MODEL 2
REMARK VINA RESULT:      -7.5      4.482      9.951
REMARK  6 active torsions:
REMARK  status: ('A' for Active; 'I' for Inactive)
REMARK    1  A    between atoms: N_1  and  N_3 
REMARK       I    between atoms: N_3  and  C_4 
REMARK    2  A    between atoms: C_4  and  C_6 
REMARK    3  A    between atoms: C_8  and  O_13 
REMARK    4  A    between atoms: C_9  and  O_12 
REMARK    5  A    between atoms: C_14  and  C_15 
REMARK    6  A    between atoms: C_16  and  O_17 
ROOT
HETATM    1  N   UNK N   1      32.749  16.098   9.204  0.00  0.00    -0.308 N 
ATOM      2  HN  UNK N   1      32.520  15.501  10.000  1.00  0.00     0.186 HD
HETATM    3  C   UNK N   1      32.124  15.872   8.100  0.00  0.00     0.122 C 
ENDROOT
BRANCH   1   4
HETATM    4  N   UNK N   1      33.692  17.068   9.403  0.00  0.00    -0.266 N 
HETATM    5  C   UNK N   1      34.899  16.795   9.968  0.00  0.00     0.270 C 
HETATM    6  O   UNK N   1      35.694  17.710  10.115  0.00  0.00    -0.266 OA
HETATM    7  H   UNK N   1      33.491  17.992   9.127  0.00  0.00     0.190 HD
BRANCH   5   8
HETATM    8  C   UNK N   1      35.286  15.419  10.415  0.00  0.00     0.036 A 
HETATM    9  C   UNK N   1      34.695  14.818  11.537  0.00  0.00     0.056 A 
HETATM   10  C   UNK N   1      35.059  13.538  11.948  0.00  0.00     0.099 A 
HETATM   11  C   UNK N   1      36.031  12.832  11.235  0.00  0.00     0.098 A 
HETATM   12  C   UNK N   1      36.632  13.416  10.113  0.00  0.00     0.040 A 
HETATM   13  C   UNK N   1      36.261  14.702   9.706  0.00  0.00     0.020 A 
BRANCH  10  14
HETATM   14  O   UNK N   1      34.471  12.995  13.027  0.00  0.00    -0.358 OA
HETATM   15  H   UNK N   1      33.544  13.069  13.142  0.00  0.00     0.217 HD
ENDBRANCH  10  14
BRANCH  11  16
HETATM   16  O   UNK N   1      36.392  11.597  11.620  0.00  0.00    -0.358 OA
HETATM   17  H   UNK N   1      36.424  11.381  12.531  0.00  0.00     0.217 HD
ENDBRANCH  11  16
ENDBRANCH   5   8
ENDBRANCH   1   4
BRANCH   3  18
HETATM   18  C   UNK N   1      32.177  16.514   6.744  0.00  0.00     0.025 A 
HETATM   19  C   UNK N   1      33.352  16.806   5.986  0.00  0.00     0.080 A 
HETATM   20  C   UNK N   1      33.227  17.413   4.723  0.00  0.00     0.038 A 
HETATM   21  C   UNK N   1      31.983  17.736   4.194  0.00  0.00     0.015 A 
HETATM   22  C   UNK N   1      30.830  17.461   4.913  0.00  0.00    -0.025 A 
HETATM   23  C   UNK N   1      29.584  17.790   4.371  0.00  0.00     0.012 A 
HETATM   24  C   UNK N   1      30.915  16.852   6.186  0.00  0.00    -0.011 A 
HETATM   25  C   UNK N   1      28.413  17.520   5.083  0.00  0.00     0.001 A 
HETATM   26  C   UNK N   1      28.480  16.919   6.339  0.00  0.00     0.001 A 
HETATM   27  C   UNK N   1      29.720  16.587   6.887  0.00  0.00     0.013 A 
BRANCH  19  28
HETATM   28  O   UNK N   1      34.584  16.511   6.455  0.00  0.00    -0.355 OA
HETATM   29  C   UNK N   1      35.242  15.325   6.208  0.00  0.00     0.210 C 
ENDBRANCH  19  28
ENDBRANCH   3  18
TORSDOF 6
ENDMDL
MODEL 3
REMARK VINA RESULT:      -7.3      7.310     11.968
REMARK  6 active torsions:
REMARK  status: ('A' for Active; 'I' for Inactive)
REMARK    1  A    between atoms: N_1  and  N_3 
REMARK       I    between atoms: N_3  and  C_4 
REMARK    2  A    between atoms: C_4  and  C_6 
REMARK    3  A    between atoms: C_8  and  O_13 
REMARK    4  A    between atoms: C_9  and  O_12 
REMARK    5  A    between atoms: C_14  and  C_15 
REMARK    6  A    between atoms: C_16  and  O_17 
ROOT
HETATM    1  N   UNK N   1      30.458  16.956   6.781  0.00  0.00    -0.308 N 
ATOM      2  HN  UNK N   1      30.920  16.927   7.691  1.00  0.00     0.186 HD
HETATM    3  C   UNK N   1      29.246  17.395   6.750  0.00  0.00     0.122 C 
ENDROOT
BRANCH   1   4
HETATM    4  N   UNK N   1      31.177  16.525   5.700  0.00  0.00    -0.266 N 
HETATM    5  C   UNK N   1      32.526  16.358   5.754  0.00  0.00     0.270 C 
HETATM    6  O   UNK N   1      33.105  15.970   4.751  0.00  0.00    -0.266 OA
HETATM    7  H   UNK N   1      30.704  16.331   4.859  0.00  0.00     0.190 HD
BRANCH   5   8
HETATM    8  C   UNK N   1      33.324  16.629   6.992  0.00  0.00     0.036 A 
HETATM    9  C   UNK N   1      33.953  17.865   7.204  0.00  0.00     0.056 A 
HETATM   10  C   UNK N   1      34.693  18.112   8.357  0.00  0.00     0.099 A 
HETATM   11  C   UNK N   1      34.817  17.115   9.327  0.00  0.00     0.098 A 
HETATM   12  C   UNK N   1      34.196  15.875   9.134  0.00  0.00     0.040 A 
HETATM   13  C   UNK N   1      33.454  15.634   7.972  0.00  0.00     0.020 A 
BRANCH  10  14
HETATM   14  O   UNK N   1      35.281  19.309   8.525  0.00  0.00    -0.358 OA
HETATM   15  H   UNK N   1      36.199  19.406   8.360  0.00  0.00     0.217 HD
ENDBRANCH  10  14
BRANCH  11  16
HETATM   16  O   UNK N   1      35.528  17.340  10.444  0.00  0.00    -0.358 OA
HETATM   17  H   UNK N   1      35.755  16.627  11.008  0.00  0.00     0.217 HD
ENDBRANCH  11  16
ENDBRANCH   5   8
ENDBRANCH   1   4
BRANCH   3  18
HETATM   18  C   UNK N   1      28.254  17.587   5.640  0.00  0.00     0.025 A 
HETATM   19  C   UNK N   1      27.944  16.652   4.606  0.00  0.00     0.080 A 
HETATM   20  C   UNK N   1      26.983  16.989   3.635  0.00  0.00     0.038 A 
HETATM   21  C   UNK N   1      26.327  18.214   3.659  0.00  0.00     0.015 A 
HETATM   22  C   UNK N   1      26.614  19.135   4.655  0.00  0.00    -0.025 A 
HETATM   23  C   UNK N   1      25.948  20.365   4.669  0.00  0.00     0.012 A 
HETATM   24  C   UNK N   1      27.573  18.834   5.648  0.00  0.00    -0.011 A 
HETATM   25  C   UNK N   1      26.225  21.304   5.665  0.00  0.00     0.001 A 
HETATM   26  C   UNK N   1      27.169  21.020   6.651  0.00  0.00     0.001 A 
HETATM   27  C   UNK N   1      27.838  19.796   6.644  0.00  0.00     0.013 A 
BRANCH  19  28
HETATM   28  O   UNK N   1      28.553  15.448   4.538  0.00  0.00    -0.355 OA
HETATM   29  C   UNK N   1      28.016  14.282   5.039  0.00  0.00     0.210 C 
ENDBRANCH  19  28
ENDBRANCH   3  18
TORSDOF 6
ENDMDL
MODEL 4
REMARK VINA RESULT:      -7.2      6.376     10.569
REMARK  6 active torsions:
REMARK  status: ('A' for Active; 'I' for Inactive)
REMARK    1  A    between atoms: N_1  and  N_3 
REMARK       I    between atoms: N_3  and  C_4 
REMARK    2  A    between atoms: C_4  and  C_6 
REMARK    3  A    between atoms: C_8  and  O_13 
REMARK    4  A    between atoms: C_9  and  O_12 
REMARK    5  A    between atoms: C_14  and  C_15 
REMARK    6  A    between atoms: C_16  and  O_17 
ROOT
HETATM    1  N   UNK N   1      31.419  18.276   8.805  0.00  0.00    -0.308 N 
ATOM      2  HN  UNK N   1      31.494  19.272   9.015  1.00  0.00     0.186 HD
HETATM    3  C   UNK N   1      32.277  17.782   7.980  0.00  0.00     0.122 C 
ENDROOT
BRANCH   1   4
HETATM    4  N   UNK N   1      30.417  17.581   9.425  0.00  0.00    -0.266 N 
HETATM    5  C   UNK N   1      29.179  17.458   8.874  0.00  0.00     0.270 C 
HETATM    6  O   UNK N   1      28.331  16.823   9.482  0.00  0.00    -0.266 OA
HETATM    7  H   UNK N   1      30.597  17.157  10.295  0.00  0.00     0.190 HD
BRANCH   5   8
HETATM    8  C   UNK N   1      28.819  18.071   7.556  0.00  0.00     0.036 A 
HETATM    9  C   UNK N   1      28.209  19.331   7.473  0.00  0.00     0.056 A 
HETATM   10  C   UNK N   1      27.876  19.895   6.245  0.00  0.00     0.099 A 
HETATM   11  C   UNK N   1      28.152  19.199   5.065  0.00  0.00     0.098 A 
HETATM   12  C   UNK N   1      28.761  17.940   5.128  0.00  0.00     0.040 A 
HETATM   13  C   UNK N   1      29.092  17.379   6.366  0.00  0.00     0.020 A 
BRANCH  10  14
HETATM   14  O   UNK N   1      27.293  21.105   6.206  0.00  0.00    -0.358 OA
HETATM   15  H   UNK N   1      26.382  21.193   6.411  0.00  0.00     0.217 HD
ENDBRANCH  10  14
BRANCH  11  16
HETATM   16  O   UNK N   1      27.837  19.732   3.874  0.00  0.00    -0.358 OA
HETATM   17  H   UNK N   1      28.466  20.247   3.409  0.00  0.00     0.217 HD
ENDBRANCH  11  16
ENDBRANCH   5   8
ENDBRANCH   1   4
BRANCH   3  18
HETATM   18  C   UNK N   1      32.493  16.402   7.431  0.00  0.00     0.025 A 
HETATM   19  C   UNK N   1      32.590  15.192   8.185  0.00  0.00     0.080 A 
HETATM   20  C   UNK N   1      32.795  13.973   7.513  0.00  0.00     0.038 A 
HETATM   21  C   UNK N   1      32.906  13.919   6.129  0.00  0.00     0.015 A 
HETATM   22  C   UNK N   1      32.815  15.081   5.379  0.00  0.00    -0.025 A 
HETATM   23  C   UNK N   1      32.928  15.014   3.987  0.00  0.00     0.012 A 
HETATM   24  C   UNK N   1      32.609  16.325   6.018  0.00  0.00    -0.011 A 
HETATM   25  C   UNK N   1      32.839  16.176   3.216  0.00  0.00     0.001 A 
HETATM   26  C   UNK N   1      32.636  17.410   3.832  0.00  0.00     0.001 A 
HETATM   27  C   UNK N   1      32.522  17.485   5.221  0.00  0.00     0.013 A 
BRANCH  19  28
HETATM   28  O   UNK N   1      32.488  15.191   9.533  0.00  0.00    -0.355 OA
HETATM   29  C   UNK N   1      33.549  14.977  10.386  0.00  0.00     0.210 C 
ENDBRANCH  19  28
ENDBRANCH   3  18
TORSDOF 6
ENDMDL
MODEL 5
REMARK VINA RESULT:      -7.2      8.408     10.548
REMARK  6 active torsions:
REMARK  status: ('A' for Active; 'I' for Inactive)
REMARK    1  A    between atoms: N_1  and  N_3 
REMARK       I    between atoms: N_3  and  C_4 
REMARK    2  A    between atoms: C_4  and  C_6 
REMARK    3  A    between atoms: C_8  and  O_13 
REMARK    4  A    between atoms: C_9  and  O_12 
REMARK    5  A    between atoms: C_14  and  C_15 
REMARK    6  A    between atoms: C_16  and  O_17 
ROOT
HETATM    1  N   UNK N   1      31.569  17.908   3.787  0.00  0.00    -0.308 N 
ATOM      2  HN  UNK N   1      31.274  18.848   3.521  1.00  0.00     0.186 HD
HETATM    3  C   UNK N   1      32.670  17.801   4.449  0.00  0.00     0.122 C 
ENDROOT
BRANCH   1   4
HETATM    4  N   UNK N   1      30.762  16.869   3.411  0.00  0.00    -0.266 N 
HETATM    5  C   UNK N   1      29.732  16.440   4.189  0.00  0.00     0.270 C 
HETATM    6  O   UNK N   1      29.051  15.507   3.793  0.00  0.00    -0.266 OA
HETATM    7  H   UNK N   1      30.932  16.419   2.552  0.00  0.00     0.190 HD
BRANCH   5   8
HETATM    8  C   UNK N   1      29.403  17.067   5.509  0.00  0.00     0.036 A 
HETATM    9  C   UNK N   1      28.438  18.079   5.622  0.00  0.00     0.056 A 
HETATM   10  C   UNK N   1      28.136  18.658   6.851  0.00  0.00     0.099 A 
HETATM   11  C   UNK N   1      28.804  18.229   8.002  0.00  0.00     0.098 A 
HETATM   12  C   UNK N   1      29.771  17.220   7.909  0.00  0.00     0.040 A 
HETATM   13  C   UNK N   1      30.068  16.643   6.670  0.00  0.00     0.020 A 
BRANCH  10  14
HETATM   14  O   UNK N   1      27.205  19.625   6.920  0.00  0.00    -0.358 OA
HETATM   15  H   UNK N   1      27.435  20.510   6.716  0.00  0.00     0.217 HD
ENDBRANCH  10  14
BRANCH  11  16
HETATM   16  O   UNK N   1      28.523  18.779   9.194  0.00  0.00    -0.358 OA
HETATM   17  H   UNK N   1      27.809  19.379   9.277  0.00  0.00     0.217 HD
ENDBRANCH  11  16
ENDBRANCH   5   8
ENDBRANCH   1   4
BRANCH   3  18
HETATM   18  C   UNK N   1      33.421  16.627   5.007  0.00  0.00     0.025 A 
HETATM   19  C   UNK N   1      33.766  15.429   4.311  0.00  0.00     0.080 A 
HETATM   20  C   UNK N   1      34.476  14.418   4.984  0.00  0.00     0.038 A 
HETATM   21  C   UNK N   1      34.850  14.559   6.315  0.00  0.00     0.015 A 
HETATM   22  C   UNK N   1      34.524  15.714   7.009  0.00  0.00    -0.025 A 
HETATM   23  C   UNK N   1      34.906  15.845   8.348  0.00  0.00     0.012 A 
HETATM   24  C   UNK N   1      33.812  16.752   6.367  0.00  0.00    -0.011 A 
HETATM   25  C   UNK N   1      34.586  17.002   9.062  0.00  0.00     0.001 A 
HETATM   26  C   UNK N   1      33.883  18.035   8.442  0.00  0.00     0.001 A 
HETATM   27  C   UNK N   1      33.499  17.912   7.106  0.00  0.00     0.013 A 
BRANCH  19  28
HETATM   28  O   UNK N   1      33.426  15.243   3.016  0.00  0.00    -0.355 OA
HETATM   29  C   UNK N   1      33.326  14.007   2.414  0.00  0.00     0.210 C 
ENDBRANCH  19  28
ENDBRANCH   3  18
TORSDOF 6
ENDMDL
MODEL 6
REMARK VINA RESULT:      -7.2     13.156     15.703
REMARK  6 active torsions:
REMARK  status: ('A' for Active; 'I' for Inactive)
REMARK    1  A    between atoms: N_1  and  N_3 
REMARK       I    between atoms: N_3  and  C_4 
REMARK    2  A    between atoms: C_4  and  C_6 
REMARK    3  A    between atoms: C_8  and  O_13 
REMARK    4  A    between atoms: C_9  and  O_12 
REMARK    5  A    between atoms: C_14  and  C_15 
REMARK    6  A    between atoms: C_16  and  O_17 
ROOT
HETATM    1  N   UNK N   1      21.429  16.183   6.509  0.00  0.00    -0.308 N 
ATOM      2  HN  UNK N   1      20.511  16.465   6.164  1.00  0.00     0.186 HD
HETATM    3  C   UNK N   1      21.512  15.040   7.098  0.00  0.00     0.122 C 
ENDROOT
BRANCH   1   4
HETATM    4  N   UNK N   1      22.466  17.053   6.306  0.00  0.00    -0.266 N 
HETATM    5  C   UNK N   1      22.629  17.717   5.130  0.00  0.00     0.270 C 
HETATM    6  O   UNK N   1      23.577  18.478   5.017  0.00  0.00    -0.266 OA
HETATM    7  H   UNK N   1      23.113  17.202   7.033  0.00  0.00     0.190 HD
BRANCH   5   8
HETATM    8  C   UNK N   1      21.692  17.549   3.973  0.00  0.00     0.036 A 
HETATM    9  C   UNK N   1      20.664  18.470   3.721  0.00  0.00     0.056 A 
HETATM   10  C   UNK N   1      19.797  18.309   2.645  0.00  0.00     0.099 A 
HETATM   11  C   UNK N   1      19.946  17.211   1.792  0.00  0.00     0.098 A 
HETATM   12  C   UNK N   1      20.966  16.283   2.027  0.00  0.00     0.040 A 
HETATM   13  C   UNK N   1      21.835  16.450   3.112  0.00  0.00     0.020 A 
BRANCH  10  14
HETATM   14  O   UNK N   1      18.823  19.211   2.435  0.00  0.00    -0.358 OA
HETATM   15  H   UNK N   1      18.034  19.175   2.941  0.00  0.00     0.217 HD
ENDBRANCH  10  14
BRANCH  11  16
HETATM   16  O   UNK N   1      19.116  17.044   0.750  0.00  0.00    -0.358 OA
HETATM   17  H   UNK N   1      18.364  17.595   0.656  0.00  0.00     0.217 HD
ENDBRANCH  11  16
ENDBRANCH   5   8
ENDBRANCH   1   4
BRANCH   3  18
HETATM   18  C   UNK N   1      22.652  14.291   7.725  0.00  0.00     0.025 A 
HETATM   19  C   UNK N   1      23.995  14.227   7.244  0.00  0.00     0.080 A 
HETATM   20  C   UNK N   1      24.950  13.476   7.954  0.00  0.00     0.038 A 
HETATM   21  C   UNK N   1      24.614  12.794   9.117  0.00  0.00     0.015 A 
HETATM   22  C   UNK N   1      23.316  12.843   9.602  0.00  0.00    -0.025 A 
HETATM   23  C   UNK N   1      22.990  12.152  10.773  0.00  0.00     0.012 A 
HETATM   24  C   UNK N   1      22.329  13.587   8.916  0.00  0.00    -0.011 A 
HETATM   25  C   UNK N   1      21.687  12.192  11.275  0.00  0.00     0.001 A 
HETATM   26  C   UNK N   1      20.703  12.921  10.609  0.00  0.00     0.001 A 
HETATM   27  C   UNK N   1      21.020  13.613   9.439  0.00  0.00     0.013 A 
BRANCH  19  28
HETATM   28  O   UNK N   1      24.372  14.872   6.118  0.00  0.00    -0.355 OA
HETATM   29  C   UNK N   1      24.419  14.287   4.871  0.00  0.00     0.210 C 
ENDBRANCH  19  28
ENDBRANCH   3  18
TORSDOF 6
ENDMDL
MODEL 7
REMARK VINA RESULT:      -6.9     19.788     22.860
REMARK  6 active torsions:
REMARK  status: ('A' for Active; 'I' for Inactive)
REMARK    1  A    between atoms: N_1  and  N_3 
REMARK       I    between atoms: N_3  and  C_4 
REMARK    2  A    between atoms: C_4  and  C_6 
REMARK    3  A    between atoms: C_8  and  O_13 
REMARK    4  A    between atoms: C_9  and  O_12 
REMARK    5  A    between atoms: C_14  and  C_15 
REMARK    6  A    between atoms: C_16  and  O_17 
ROOT
HETATM    1  N   UNK N   1      30.574  24.516  -4.461  0.00  0.00    -0.308 N 
ATOM      2  HN  UNK N   1      31.546  24.775  -4.635  1.00  0.00     0.186 HD
HETATM    3  C   UNK N   1      29.787  24.463  -5.481  0.00  0.00     0.122 C 
ENDROOT
BRANCH   1   4
HETATM    4  N   UNK N   1      30.220  24.255  -3.166  0.00  0.00    -0.266 N 
HETATM    5  C   UNK N   1      30.553  23.089  -2.550  0.00  0.00     0.270 C 
HETATM    6  O   UNK N   1      30.204  22.921  -1.392  0.00  0.00    -0.266 OA
HETATM    7  H   UNK N   1      29.708  24.931  -2.666  0.00  0.00     0.190 HD
BRANCH   5   8
HETATM    8  C   UNK N   1      31.328  22.007  -3.237  0.00  0.00     0.036 A 
HETATM    9  C   UNK N   1      32.718  21.890  -3.084  0.00  0.00     0.056 A 
HETATM   10  C   UNK N   1      33.434  20.882  -3.725  0.00  0.00     0.099 A 
HETATM   11  C   UNK N   1      32.762  19.965  -4.538  0.00  0.00     0.098 A 
HETATM   12  C   UNK N   1      31.376  20.066  -4.702  0.00  0.00     0.040 A 
HETATM   13  C   UNK N   1      30.663  21.081  -4.055  0.00  0.00     0.020 A 
BRANCH  10  14
HETATM   14  O   UNK N   1      34.764  20.802  -3.555  0.00  0.00    -0.358 OA
HETATM   15  H   UNK N   1      35.117  20.587  -2.713  0.00  0.00     0.217 HD
ENDBRANCH  10  14
BRANCH  11  16
HETATM   16  O   UNK N   1      33.441  18.988  -5.162  0.00  0.00    -0.358 OA
HETATM   17  H   UNK N   1      34.082  19.203  -5.810  0.00  0.00     0.217 HD
ENDBRANCH  11  16
ENDBRANCH   5   8
ENDBRANCH   1   4
BRANCH   3  18
HETATM   18  C   UNK N   1      28.331  24.131  -5.635  0.00  0.00     0.025 A 
HETATM   19  C   UNK N   1      27.239  24.768  -4.972  0.00  0.00     0.080 A 
HETATM   20  C   UNK N   1      25.925  24.334  -5.229  0.00  0.00     0.038 A 
HETATM   21  C   UNK N   1      25.666  23.296  -6.116  0.00  0.00     0.015 A 
HETATM   22  C   UNK N   1      26.713  22.664  -6.770  0.00  0.00    -0.025 A 
HETATM   23  C   UNK N   1      26.440  21.621  -7.660  0.00  0.00     0.012 A 
HETATM   24  C   UNK N   1      28.046  23.072  -6.538  0.00  0.00    -0.011 A 
HETATM   25  C   UNK N   1      27.483  20.974  -8.327  0.00  0.00     0.001 A 
HETATM   26  C   UNK N   1      28.803  21.366  -8.108  0.00  0.00     0.001 A 
HETATM   27  C   UNK N   1      29.084  22.406  -7.221  0.00  0.00     0.013 A 
BRANCH  19  28
HETATM   28  O   UNK N   1      27.437  25.782  -4.100  0.00  0.00    -0.355 OA
HETATM   29  C   UNK N   1      26.435  26.368  -3.356  0.00  0.00     0.210 C 
ENDBRANCH  19  28
ENDBRANCH   3  18
TORSDOF 6
ENDMDL
MODEL 8
REMARK VINA RESULT:      -6.8      2.775      4.715
REMARK  6 active torsions:
REMARK  status: ('A' for Active; 'I' for Inactive)
REMARK    1  A    between atoms: N_1  and  N_3 
REMARK       I    between atoms: N_3  and  C_4 
REMARK    2  A    between atoms: C_4  and  C_6 
REMARK    3  A    between atoms: C_8  and  O_13 
REMARK    4  A    between atoms: C_9  and  O_12 
REMARK    5  A    between atoms: C_14  and  C_15 
REMARK    6  A    between atoms: C_16  and  O_17 
ROOT
HETATM    1  N   UNK N   1      37.339  14.541  10.793  0.00  0.00    -0.308 N 
ATOM      2  HN  UNK N   1      38.027  14.562  10.040  1.00  0.00     0.186 HD
HETATM    3  C   UNK N   1      37.108  13.401  11.348  0.00  0.00     0.122 C 
ENDROOT
BRANCH   1   4
HETATM    4  N   UNK N   1      36.742  15.726  11.126  0.00  0.00    -0.266 N 
HETATM    5  C   UNK N   1      35.558  16.114  10.579  0.00  0.00     0.270 C 
HETATM    6  O   UNK N   1      35.081  17.185  10.922  0.00  0.00    -0.266 OA
HETATM    7  H   UNK N   1      37.182  16.315  11.781  0.00  0.00     0.190 HD
BRANCH   5   8
HETATM    8  C   UNK N   1      34.822  15.281   9.576  0.00  0.00     0.036 A 
HETATM    9  C   UNK N   1      35.111  15.356   8.205  0.00  0.00     0.056 A 
HETATM   10  C   UNK N   1      34.423  14.579   7.277  0.00  0.00     0.099 A 
HETATM   11  C   UNK N   1      33.424  13.704   7.711  0.00  0.00     0.098 A 
HETATM   12  C   UNK N   1      33.122  13.615   9.075  0.00  0.00     0.040 A 
HETATM   13  C   UNK N   1      33.817  14.399  10.002  0.00  0.00     0.020 A 
BRANCH  10  14
HETATM   14  O   UNK N   1      34.727  14.678   5.972  0.00  0.00    -0.358 OA
HETATM   15  H   UNK N   1      35.014  13.920   5.499  0.00  0.00     0.217 HD
ENDBRANCH  10  14
BRANCH  11  16
HETATM   16  O   UNK N   1      32.753  12.948   6.827  0.00  0.00    -0.358 OA
HETATM   17  H   UNK N   1      32.607  13.262   5.957  0.00  0.00     0.217 HD
ENDBRANCH  11  16
ENDBRANCH   5   8
ENDBRANCH   1   4
BRANCH   3  18
HETATM   18  C   UNK N   1      36.193  12.969  12.457  0.00  0.00     0.025 A 
HETATM   19  C   UNK N   1      36.046  13.596  13.732  0.00  0.00     0.080 A 
HETATM   20  C   UNK N   1      35.138  13.062  14.666  0.00  0.00     0.038 A 
HETATM   21  C   UNK N   1      34.380  11.934  14.374  0.00  0.00     0.015 A 
HETATM   22  C   UNK N   1      34.507  11.311  13.142  0.00  0.00    -0.025 A 
HETATM   23  C   UNK N   1      33.739  10.177  12.860  0.00  0.00     0.012 A 
HETATM   24  C   UNK N   1      35.408  11.818  12.179  0.00  0.00    -0.011 A 
HETATM   25  C   UNK N   1      33.855   9.537  11.624  0.00  0.00     0.001 A 
HETATM   26  C   UNK N   1      34.740  10.026  10.664  0.00  0.00     0.001 A 
HETATM   27  C   UNK N   1      35.510  11.157  10.938  0.00  0.00     0.013 A 
BRANCH  19  28
HETATM   28  O   UNK N   1      36.760  14.694  14.064  0.00  0.00    -0.355 OA
HETATM   29  C   UNK N   1      37.118  15.021  15.355  0.00  0.00     0.210 C 
ENDBRANCH  19  28
ENDBRANCH   3  18
TORSDOF 6
ENDMDL
MODEL 9
REMARK VINA RESULT:      -6.8     12.265     15.946
REMARK  6 active torsions:
REMARK  status: ('A' for Active; 'I' for Inactive)
REMARK    1  A    between atoms: N_1  and  N_3 
REMARK       I    between atoms: N_3  and  C_4 
REMARK    2  A    between atoms: C_4  and  C_6 
REMARK    3  A    between atoms: C_8  and  O_13 
REMARK    4  A    between atoms: C_9  and  O_12 
REMARK    5  A    between atoms: C_14  and  C_15 
REMARK    6  A    between atoms: C_16  and  O_17 
ROOT
HETATM    1  N   UNK N   1      24.260  16.775   3.548  0.00  0.00    -0.308 N 
ATOM      2  HN  UNK N   1      23.873  16.700   2.606  1.00  0.00     0.186 HD
HETATM    3  C   UNK N   1      25.513  17.059   3.649  0.00  0.00     0.122 C 
ENDROOT
BRANCH   1   4
HETATM    4  N   UNK N   1      23.403  16.565   4.594  0.00  0.00    -0.266 N 
HETATM    5  C   UNK N   1      22.196  17.186   4.671  0.00  0.00     0.270 C 
HETATM    6  O   UNK N   1      21.481  16.952   5.633  0.00  0.00    -0.266 OA
HETATM    7  H   UNK N   1      23.670  15.945   5.312  0.00  0.00     0.190 HD
BRANCH   5   8
HETATM    8  C   UNK N   1      21.712  18.142   3.624  0.00  0.00     0.036 A 
HETATM    9  C   UNK N   1      22.095  19.492   3.629  0.00  0.00     0.056 A 
HETATM   10  C   UNK N   1      21.642  20.375   2.654  0.00  0.00     0.099 A 
HETATM   11  C   UNK N   1      20.790  19.917   1.645  0.00  0.00     0.098 A 
HETATM   12  C   UNK N   1      20.398  18.574   1.624  0.00  0.00     0.040 A 
HETATM   13  C   UNK N   1      20.856  17.691   2.608  0.00  0.00     0.020 A 
BRANCH  10  14
HETATM   14  O   UNK N   1      22.030  21.661   2.691  0.00  0.00    -0.358 OA
HETATM   15  H   UNK N   1      22.724  21.924   3.264  0.00  0.00     0.217 HD
ENDBRANCH  10  14
BRANCH  11  16
HETATM   16  O   UNK N   1      20.346  20.759   0.698  0.00  0.00    -0.358 OA
HETATM   17  H   UNK N   1      19.490  20.649   0.335  0.00  0.00     0.217 HD
ENDBRANCH  11  16
ENDBRANCH   5   8
ENDBRANCH   1   4
BRANCH   3  18
HETATM   18  C   UNK N   1      26.429  17.251   4.823  0.00  0.00     0.025 A 
HETATM   19  C   UNK N   1      27.059  16.222   5.588  0.00  0.00     0.080 A 
HETATM   20  C   UNK N   1      27.893  16.573   6.665  0.00  0.00     0.038 A 
HETATM   21  C   UNK N   1      28.119  17.902   7.002  0.00  0.00     0.015 A 
HETATM   22  C   UNK N   1      27.517  18.916   6.273  0.00  0.00    -0.025 A 
HETATM   23  C   UNK N   1      27.751  20.250   6.622  0.00  0.00     0.012 A 
HETATM   24  C   UNK N   1      26.672  18.603   5.184  0.00  0.00    -0.011 A 
HETATM   25  C   UNK N   1      27.152  21.283   5.897  0.00  0.00     0.001 A 
HETATM   26  C   UNK N   1      26.316  20.989   4.821  0.00  0.00     0.001 A 
HETATM   27  C   UNK N   1      26.078  19.661   4.466  0.00  0.00     0.013 A 
BRANCH  19  28
HETATM   28  O   UNK N   1      26.872  14.915   5.300  0.00  0.00    -0.355 OA
HETATM   29  C   UNK N   1      26.021  14.085   5.998  0.00  0.00     0.210 C 
ENDBRANCH  19  28
ENDBRANCH   3  18
TORSDOF 6
ENDMDL
