MODEL 1
REMARK VINA RESULT:      -7.1      0.000      0.000
REMARK  4 active torsions:
REMARK  status: ('A' for Active; 'I' for Inactive)
REMARK    1  A    between atoms: N_1  and  C_2 
REMARK    2  A    between atoms: C_10  and  C_18 
REMARK    3  A    between atoms: N_13  and  C_14 
REMARK    4  A    between atoms: C_18  and  C_19 
ROOT
HETATM    1  C   UNK N   1      28.329  17.127   8.089  0.00  0.00     0.116 A 
HETATM    2  N   UNK N   1      28.507  17.134   9.442  0.00  0.00    -0.338 N 
ATOM      3  HN  UNK N   1      27.690  17.089  10.051  1.00  0.00     0.168 HD
HETATM    4  C   UNK N   1      29.753  17.200  10.001  0.00  0.00     0.183 A 
HETATM    5  N   UNK N   1      30.859  17.227   9.210  0.00  0.00    -0.336 N 
ATOM      6  HN  UNK N   1      31.794  17.248   9.620  1.00  0.00     0.168 HD
HETATM    7  C   UNK N   1      30.694  17.224   7.867  0.00  0.00     0.140 A 
HETATM    8  C   UNK N   1      29.467  17.197   7.262  0.00  0.00     0.077 A 
HETATM    9  C   UNK N   1      29.758  17.227   5.882  0.00  0.00     0.048 A 
HETATM   10  N   UNK N   1      31.108  17.212   5.741  0.00  0.00    -0.299 N 
ATOM     11  HN  UNK N   1      31.610  17.205   4.853  1.00  0.00     0.187 HD
HETATM   12  N   UNK N   1      31.669  17.208   6.942  0.00  0.00    -0.267 N 
ENDROOT
BRANCH   9  13
HETATM   13  C   UNK N   1      28.894  17.298   4.643  0.00  0.00     0.099 C 
BRANCH  13  14
HETATM   14  C   UNK N   1      27.788  18.301   4.557  0.00  0.00    -0.046 A 
HETATM   15  C   UNK N   1      27.913  19.548   5.188  0.00  0.00     0.014 A 
HETATM   16  C   UNK N   1      26.866  20.473   5.124  0.00  0.00    -0.061 A 
HETATM   17  C   UNK N   1      25.708  20.172   4.402  0.00  0.00     0.007 A 
HETATM   18  C   UNK N   1      26.965  21.761   5.858  0.00  0.00     0.048 C 
HETATM   19  C   UNK N   1      25.599  18.950   3.733  0.00  0.00     0.008 A 
HETATM   20  C   UNK N   1      26.630  18.012   3.808  0.00  0.00    -0.055 A 
HETATM   21  C   UNK N   1      26.486  16.718   3.076  0.00  0.00     0.049 C 
ENDBRANCH  13  14
ENDBRANCH   9  13
BRANCH   1  22
HETATM   22  N   UNK N   1      27.032  16.972   7.578  0.00  0.00    -0.385 N 
HETATM   23  H   UNK N   1      26.335  17.637   7.780  0.00  0.00     0.157 HD
HETATM   24  H   UNK N   1      26.817  16.193   7.015  0.00  0.00     0.157 HD
ENDBRANCH   1  22
BRANCH  12  25
HETATM   25  C   UNK N   1      33.119  17.166   7.185  0.00  0.00     0.044 C 
HETATM   26  C   UNK N   1      33.868  17.223   5.867  0.00  0.00     0.039 C 
HETATM   27  C   UNK N   1      33.516  15.890   7.911  0.00  0.00     0.039 C 
HETATM   28  C   UNK N   1      33.545  18.340   8.051  0.00  0.00     0.039 C 
ENDBRANCH  12  25
TORSDOF 4
ENDMDL
MODEL 2
REMARK VINA RESULT:      -7.0      1.845      3.773
REMARK  4 active torsions:
REMARK  status: ('A' for Active; 'I' for Inactive)
REMARK    1  A    between atoms: N_1  and  C_2 
REMARK    2  A    between atoms: C_10  and  C_18 
REMARK    3  A    between atoms: N_13  and  C_14 
REMARK    4  A    between atoms: C_18  and  C_19 
ROOT
HETATM    1  C   UNK N   1      30.950  16.634   3.393  0.00  0.00     0.116 A 
HETATM    2  N   UNK N   1      32.052  16.414   2.618  0.00  0.00    -0.338 N 
ATOM      3  HN  UNK N   1      31.945  16.366   1.605  1.00  0.00     0.168 HD
HETATM    4  C   UNK N   1      33.295  16.257   3.165  0.00  0.00     0.183 A 
HETATM    5  N   UNK N   1      33.468  16.351   4.512  0.00  0.00    -0.336 N 
ATOM      6  HN  UNK N   1      34.396  16.263   4.926  1.00  0.00     0.168 HD
HETATM    7  C   UNK N   1      32.381  16.565   5.290  0.00  0.00     0.140 A 
HETATM    8  C   UNK N   1      31.113  16.691   4.790  0.00  0.00     0.077 A 
HETATM    9  C   UNK N   1      30.306  16.877   5.932  0.00  0.00     0.048 A 
HETATM   10  N   UNK N   1      31.121  16.909   7.018  0.00  0.00    -0.299 N 
ATOM     11  HN  UNK N   1      30.818  17.053   7.981  1.00  0.00     0.187 HD
HETATM   12  N   UNK N   1      32.373  16.723   6.624  0.00  0.00    -0.267 N 
ENDROOT
BRANCH   9  13
HETATM   13  C   UNK N   1      28.813  17.004   6.135  0.00  0.00     0.099 C 
BRANCH  13  14
HETATM   14  C   UNK N   1      28.149  18.337   6.001  0.00  0.00    -0.046 A 
HETATM   15  C   UNK N   1      27.667  18.765   4.755  0.00  0.00     0.014 A 
HETATM   16  C   UNK N   1      27.069  20.023   4.630  0.00  0.00    -0.061 A 
HETATM   17  C   UNK N   1      26.916  20.840   5.753  0.00  0.00     0.007 A 
HETATM   18  C   UNK N   1      26.630  20.510   3.297  0.00  0.00     0.048 C 
HETATM   19  C   UNK N   1      27.352  20.398   7.005  0.00  0.00     0.008 A 
HETATM   20  C   UNK N   1      27.970  19.152   7.135  0.00  0.00    -0.055 A 
HETATM   21  C   UNK N   1      28.418  18.705   8.487  0.00  0.00     0.049 C 
ENDBRANCH  13  14
ENDBRANCH   9  13
BRANCH   1  22
HETATM   22  N   UNK N   1      29.718  16.871   2.766  0.00  0.00    -0.385 N 
HETATM   23  H   UNK N   1      29.595  17.665   2.195  0.00  0.00     0.157 HD
HETATM   24  H   UNK N   1      28.972  16.242   2.896  0.00  0.00     0.157 HD
ENDBRANCH   1  22
BRANCH  12  25
HETATM   25  C   UNK N   1      33.538  16.721   7.524  0.00  0.00     0.044 C 
HETATM   26  C   UNK N   1      34.131  18.115   7.608  0.00  0.00     0.039 C 
HETATM   27  C   UNK N   1      34.613  15.768   7.025  0.00  0.00     0.039 C 
HETATM   28  C   UNK N   1      33.131  16.267   8.916  0.00  0.00     0.039 C 
ENDBRANCH  12  25
TORSDOF 4
ENDMDL
MODEL 3
REMARK VINA RESULT:      -6.8      1.674      2.742
REMARK  4 active torsions:
REMARK  status: ('A' for Active; 'I' for Inactive)
REMARK    1  A    between atoms: N_1  and  C_2 
REMARK    2  A    between atoms: C_10  and  C_18 
REMARK    3  A    between atoms: N_13  and  C_14 
REMARK    4  A    between atoms: C_18  and  C_19 
ROOT
HETATM    1  C   UNK N   1      31.405  17.708   8.372  0.00  0.00     0.116 A 
HETATM    2  N   UNK N   1      32.713  17.880   8.722  0.00  0.00    -0.338 N 
ATOM      3  HN  UNK N   1      32.934  18.282   9.633  1.00  0.00     0.168 HD
HETATM    4  C   UNK N   1      33.733  17.528   7.882  0.00  0.00     0.183 A 
HETATM    5  N   UNK N   1      33.463  16.959   6.677  0.00  0.00    -0.336 N 
ATOM      6  HN  UNK N   1      34.218  16.668   6.056  1.00  0.00     0.168 HD
HETATM    7  C   UNK N   1      32.169  16.786   6.318  0.00  0.00     0.140 A 
HETATM    8  C   UNK N   1      31.115  17.157   7.109  0.00  0.00     0.077 A 
HETATM    9  C   UNK N   1      29.975  16.821   6.349  0.00  0.00     0.048 A 
HETATM   10  N   UNK N   1      30.398  16.229   5.202  0.00  0.00    -0.299 N 
ATOM     11  HN  UNK N   1      29.792  15.860   4.469  1.00  0.00     0.187 HD
HETATM   12  N   UNK N   1      31.723  16.209   5.190  0.00  0.00    -0.267 N 
ENDROOT
BRANCH   9  13
HETATM   13  C   UNK N   1      28.492  17.019   6.566  0.00  0.00     0.099 C 
BRANCH  13  14
HETATM   14  C   UNK N   1      27.774  18.131   5.871  0.00  0.00    -0.046 A 
HETATM   15  C   UNK N   1      27.814  19.433   6.393  0.00  0.00     0.014 A 
HETATM   16  C   UNK N   1      27.120  20.465   5.753  0.00  0.00    -0.061 A 
HETATM   17  C   UNK N   1      26.418  20.210   4.572  0.00  0.00     0.007 A 
HETATM   18  C   UNK N   1      27.096  21.827   6.347  0.00  0.00     0.048 C 
HETATM   19  C   UNK N   1      26.415  18.925   4.023  0.00  0.00     0.008 A 
HETATM   20  C   UNK N   1      27.087  17.884   4.667  0.00  0.00    -0.055 A 
HETATM   21  C   UNK N   1      27.071  16.524   4.052  0.00  0.00     0.049 C 
ENDBRANCH  13  14
ENDBRANCH   9  13
BRANCH   1  22
HETATM   22  N   UNK N   1      30.408  18.009   9.311  0.00  0.00    -0.385 N 
HETATM   23  H   UNK N   1      29.526  17.574   9.258  0.00  0.00     0.157 HD
HETATM   24  H   UNK N   1      30.590  18.660  10.027  0.00  0.00     0.157 HD
ENDBRANCH   1  22
BRANCH  12  25
HETATM   25  C   UNK N   1      32.537  15.621   4.114  0.00  0.00     0.044 C 
HETATM   26  C   UNK N   1      33.065  16.714   3.205  0.00  0.00     0.039 C 
HETATM   27  C   UNK N   1      31.718  14.650   3.277  0.00  0.00     0.039 C 
HETATM   28  C   UNK N   1      33.708  14.849   4.699  0.00  0.00     0.039 C 
ENDBRANCH  12  25
TORSDOF 4
ENDMDL
MODEL 4
REMARK VINA RESULT:      -6.7     12.338     15.919
REMARK  4 active torsions:
REMARK  status: ('A' for Active; 'I' for Inactive)
REMARK    1  A    between atoms: N_1  and  C_2 
REMARK    2  A    between atoms: C_10  and  C_18 
REMARK    3  A    between atoms: N_13  and  C_14 
REMARK    4  A    between atoms: C_18  and  C_19 
ROOT
HETATM    1  C   UNK N   1      35.304  12.684  19.257  0.00  0.00     0.116 A 
HETATM    2  N   UNK N   1      35.419  13.905  18.658  0.00  0.00    -0.338 N 
ATOM      3  HN  UNK N   1      35.523  14.736  19.241  1.00  0.00     0.168 HD
HETATM    4  C   UNK N   1      35.398  14.043  17.298  0.00  0.00     0.183 A 
HETATM    5  N   UNK N   1      35.294  12.946  16.500  0.00  0.00    -0.336 N 
ATOM      6  HN  UNK N   1      35.306  13.037  15.483  1.00  0.00     0.168 HD
HETATM    7  C   UNK N   1      35.176  11.730  17.083  0.00  0.00     0.140 A 
HETATM    8  C   UNK N   1      35.155  11.547  18.439  0.00  0.00     0.077 A 
HETATM    9  C   UNK N   1      34.998  10.155  18.600  0.00  0.00     0.048 A 
HETATM   10  N   UNK N   1      34.993   9.590  17.365  0.00  0.00    -0.299 N 
ATOM     11  HN  UNK N   1      34.917   8.592  17.171  1.00  0.00     0.187 HD
HETATM   12  N   UNK N   1      35.103  10.546  16.452  0.00  0.00    -0.267 N 
ENDROOT
BRANCH   9  13
HETATM   13  C   UNK N   1      34.819   9.266  19.810  0.00  0.00     0.099 C 
BRANCH  13  14
HETATM   14  C   UNK N   1      33.515   8.574  20.046  0.00  0.00    -0.046 A 
HETATM   15  C   UNK N   1      33.234   7.357  19.407  0.00  0.00     0.014 A 
HETATM   16  C   UNK N   1      32.003   6.726  19.612  0.00  0.00    -0.061 A 
HETATM   17  C   UNK N   1      31.065   7.287  20.483  0.00  0.00     0.007 A 
HETATM   18  C   UNK N   1      31.673   5.479  18.875  0.00  0.00     0.048 C 
HETATM   19  C   UNK N   1      31.359   8.475  21.158  0.00  0.00     0.008 A 
HETATM   20  C   UNK N   1      32.577   9.123  20.943  0.00  0.00    -0.055 A 
HETATM   21  C   UNK N   1      32.865  10.386  21.685  0.00  0.00     0.049 C 
ENDBRANCH  13  14
ENDBRANCH   9  13
BRANCH   1  22
HETATM   22  N   UNK N   1      35.419  12.601  20.652  0.00  0.00    -0.385 N 
HETATM   23  H   UNK N   1      35.130  11.788  21.128  0.00  0.00     0.157 HD
HETATM   24  H   UNK N   1      35.790  13.359  21.159  0.00  0.00     0.157 HD
ENDBRANCH   1  22
BRANCH  12  25
HETATM   25  C   UNK N   1      35.160  10.310  15.001  0.00  0.00     0.044 C 
HETATM   26  C   UNK N   1      36.270  11.138  14.383  0.00  0.00     0.039 C 
HETATM   27  C   UNK N   1      33.846  10.687  14.334  0.00  0.00     0.039 C 
HETATM   28  C   UNK N   1      35.416   8.839  14.714  0.00  0.00     0.039 C 
ENDBRANCH  12  25
TORSDOF 4
ENDMDL
MODEL 5
REMARK VINA RESULT:      -6.6      1.563      3.227
REMARK  4 active torsions:
REMARK  status: ('A' for Active; 'I' for Inactive)
REMARK    1  A    between atoms: N_1  and  C_2 
REMARK    2  A    between atoms: C_10  and  C_18 
REMARK    3  A    between atoms: N_13  and  C_14 
REMARK    4  A    between atoms: C_18  and  C_19 
ROOT
HETATM    1  C   UNK N   1      30.913  17.605   8.745  0.00  0.00     0.116 A 
HETATM    2  N   UNK N   1      32.169  17.209   9.105  0.00  0.00    -0.338 N 
ATOM      3  HN  UNK N   1      32.446  17.267  10.085  1.00  0.00     0.168 HD
HETATM    4  C   UNK N   1      33.063  16.736   8.186  0.00  0.00     0.183 A 
HETATM    5  N   UNK N   1      32.704  16.617   6.879  0.00  0.00    -0.336 N 
ATOM      6  HN  UNK N   1      33.356  16.240   6.191  1.00  0.00     0.168 HD
HETATM    7  C   UNK N   1      31.463  17.011   6.510  0.00  0.00     0.140 A 
HETATM    8  C   UNK N   1      30.547  17.525   7.388  0.00  0.00     0.077 A 
HETATM    9  C   UNK N   1      29.423  17.816   6.588  0.00  0.00     0.048 A 
HETATM   10  N   UNK N   1      29.699  17.416   5.320  0.00  0.00    -0.299 N 
ATOM     11  HN  UNK N   1      29.061  17.481   4.527  1.00  0.00     0.187 HD
HETATM   12  N   UNK N   1      30.931  16.929   5.279  0.00  0.00    -0.267 N 
ENDROOT
BRANCH   9  13
HETATM   13  C   UNK N   1      28.089  18.469   6.874  0.00  0.00     0.099 C 
BRANCH  13  14
HETATM   14  C   UNK N   1      27.108  18.687   5.767  0.00  0.00    -0.046 A 
HETATM   15  C   UNK N   1      26.422  17.600   5.206  0.00  0.00     0.014 A 
HETATM   16  C   UNK N   1      25.523  17.807   4.154  0.00  0.00    -0.061 A 
HETATM   17  C   UNK N   1      25.279  19.100   3.686  0.00  0.00     0.007 A 
HETATM   18  C   UNK N   1      24.856  16.648   3.506  0.00  0.00     0.048 C 
HETATM   19  C   UNK N   1      25.925  20.191   4.273  0.00  0.00     0.008 A 
HETATM   20  C   UNK N   1      26.839  19.993   5.310  0.00  0.00    -0.055 A 
HETATM   21  C   UNK N   1      27.508  21.179   5.922  0.00  0.00     0.049 C 
ENDBRANCH  13  14
ENDBRANCH   9  13
BRANCH   1  22
HETATM   22  N   UNK N   1      30.015  18.000   9.748  0.00  0.00    -0.385 N 
HETATM   23  H   UNK N   1      29.895  18.954   9.962  0.00  0.00     0.157 HD
HETATM   24  H   UNK N   1      29.502  17.320  10.242  0.00  0.00     0.157 HD
ENDBRANCH   1  22
BRANCH  12  25
HETATM   25  C   UNK N   1      31.569  16.375   4.074  0.00  0.00     0.044 C 
HETATM   26  C   UNK N   1      30.577  16.350   2.927  0.00  0.00     0.039 C 
HETATM   27  C   UNK N   1      32.061  14.957   4.318  0.00  0.00     0.039 C 
HETATM   28  C   UNK N   1      32.770  17.217   3.676  0.00  0.00     0.039 C 
ENDBRANCH  12  25
TORSDOF 4
ENDMDL
MODEL 6
REMARK VINA RESULT:      -6.6      9.227     13.048
REMARK  4 active torsions:
REMARK  status: ('A' for Active; 'I' for Inactive)
REMARK    1  A    between atoms: N_1  and  C_2 
REMARK    2  A    between atoms: C_10  and  C_18 
REMARK    3  A    between atoms: N_13  and  C_14 
REMARK    4  A    between atoms: C_18  and  C_19 
ROOT
HETATM    1  C   UNK N   1      36.468  13.599  13.082  0.00  0.00     0.116 A 
HETATM    2  N   UNK N   1      37.185  14.083  12.026  0.00  0.00    -0.338 N 
ATOM      3  HN  UNK N   1      37.879  14.812  12.191  1.00  0.00     0.168 HD
HETATM    4  C   UNK N   1      36.997  13.616  10.756  0.00  0.00     0.183 A 
HETATM    5  N   UNK N   1      36.102  12.619  10.517  0.00  0.00    -0.336 N 
ATOM      6  HN  UNK N   1      35.975  12.245   9.576  1.00  0.00     0.168 HD
HETATM    7  C   UNK N   1      35.382  12.134  11.556  0.00  0.00     0.140 A 
HETATM    8  C   UNK N   1      35.509  12.597  12.838  0.00  0.00     0.077 A 
HETATM    9  C   UNK N   1      34.573  11.841  13.575  0.00  0.00     0.048 A 
HETATM   10  N   UNK N   1      33.996  10.951  12.727  0.00  0.00    -0.299 N 
ATOM     11  HN  UNK N   1      33.295  10.257  12.986  1.00  0.00     0.187 HD
HETATM   12  N   UNK N   1      34.489  11.131  11.510  0.00  0.00    -0.267 N 
ENDROOT
BRANCH   9  13
HETATM   13  C   UNK N   1      34.124  11.874  15.018  0.00  0.00     0.099 C 
BRANCH  13  14
HETATM   14  C   UNK N   1      34.807  11.017  16.036  0.00  0.00    -0.046 A 
HETATM   15  C   UNK N   1      35.022   9.654  15.783  0.00  0.00     0.014 A 
HETATM   16  C   UNK N   1      35.640   8.853  16.749  0.00  0.00    -0.061 A 
HETATM   17  C   UNK N   1      36.076   9.414  17.951  0.00  0.00     0.007 A 
HETATM   18  C   UNK N   1      35.797   7.394  16.515  0.00  0.00     0.048 C 
HETATM   19  C   UNK N   1      35.905  10.781  18.188  0.00  0.00     0.008 A 
HETATM   20  C   UNK N   1      35.271  11.586  17.238  0.00  0.00    -0.055 A 
HETATM   21  C   UNK N   1      35.110  13.043  17.518  0.00  0.00     0.049 C 
ENDBRANCH  13  14
ENDBRANCH   9  13
BRANCH   1  22
HETATM   22  N   UNK N   1      36.768  14.060  14.372  0.00  0.00    -0.385 N 
HETATM   23  H   UNK N   1      37.189  13.459  15.029  0.00  0.00     0.157 HD
HETATM   24  H   UNK N   1      36.557  14.988  14.622  0.00  0.00     0.157 HD
ENDBRANCH   1  22
BRANCH  12  25
HETATM   25  C   UNK N   1      34.117  10.330  10.333  0.00  0.00     0.044 C 
HETATM   26  C   UNK N   1      35.341   9.631   9.773  0.00  0.00     0.039 C 
HETATM   27  C   UNK N   1      33.518  11.205   9.243  0.00  0.00     0.039 C 
HETATM   28  C   UNK N   1      33.077   9.288  10.710  0.00  0.00     0.039 C 
ENDBRANCH  12  25
TORSDOF 4
ENDMDL
MODEL 7
REMARK VINA RESULT:      -6.6      5.962     10.883
REMARK  4 active torsions:
REMARK  status: ('A' for Active; 'I' for Inactive)
REMARK    1  A    between atoms: N_1  and  C_2 
REMARK    2  A    between atoms: C_10  and  C_18 
REMARK    3  A    between atoms: N_13  and  C_14 
REMARK    4  A    between atoms: C_18  and  C_19 
ROOT
HETATM    1  C   UNK N   1      37.622  13.786   9.930  0.00  0.00     0.116 A 
HETATM    2  N   UNK N   1      37.956  13.511   8.636  0.00  0.00    -0.338 N 
ATOM      3  HN  UNK N   1      38.869  13.103   8.434  1.00  0.00     0.168 HD
HETATM    4  C   UNK N   1      37.098  13.768   7.603  0.00  0.00     0.183 A 
HETATM    5  N   UNK N   1      35.861  14.279   7.850  0.00  0.00    -0.336 N 
ATOM      6  HN  UNK N   1      35.204  14.448   7.088  1.00  0.00     0.168 HD
HETATM    7  C   UNK N   1      35.521  14.559   9.130  0.00  0.00     0.140 A 
HETATM    8  C   UNK N   1      36.361  14.354  10.192  0.00  0.00     0.077 A 
HETATM    9  C   UNK N   1      35.622  14.795  11.309  0.00  0.00     0.048 A 
HETATM   10  N   UNK N   1      34.393  15.174  10.874  0.00  0.00    -0.299 N 
ATOM     11  HN  UNK N   1      33.636  15.517  11.465  1.00  0.00     0.187 HD
HETATM   12  N   UNK N   1      34.337  15.028   9.558  0.00  0.00    -0.267 N 
ENDROOT
BRANCH   9  13
HETATM   13  C   UNK N   1      35.951  14.932  12.779  0.00  0.00     0.099 C 
BRANCH  13  14
HETATM   14  C   UNK N   1      35.712  13.788  13.711  0.00  0.00    -0.046 A 
HETATM   15  C   UNK N   1      34.954  12.683  13.294  0.00  0.00     0.014 A 
HETATM   16  C   UNK N   1      34.712  11.626  14.179  0.00  0.00    -0.061 A 
HETATM   17  C   UNK N   1      35.256  11.652  15.466  0.00  0.00     0.007 A 
HETATM   18  C   UNK N   1      33.845  10.493  13.765  0.00  0.00     0.048 C 
HETATM   19  C   UNK N   1      36.050  12.728  15.869  0.00  0.00     0.008 A 
HETATM   20  C   UNK N   1      36.280  13.797  15.000  0.00  0.00    -0.055 A 
HETATM   21  C   UNK N   1      37.138  14.929  15.458  0.00  0.00     0.049 C 
ENDBRANCH  13  14
ENDBRANCH   9  13
BRANCH   1  22
HETATM   22  N   UNK N   1      38.512  13.420  10.951  0.00  0.00    -0.385 N 
HETATM   23  H   UNK N   1      38.174  13.031  11.790  0.00  0.00     0.157 HD
HETATM   24  H   UNK N   1      39.480  13.552  10.827  0.00  0.00     0.157 HD
ENDBRANCH   1  22
BRANCH  12  25
HETATM   25  C   UNK N   1      33.150  15.316   8.737  0.00  0.00     0.044 C 
HETATM   26  C   UNK N   1      33.366  16.588   7.940  0.00  0.00     0.039 C 
HETATM   27  C   UNK N   1      31.914  15.494   9.606  0.00  0.00     0.039 C 
HETATM   28  C   UNK N   1      32.877  14.168   7.780  0.00  0.00     0.039 C 
ENDBRANCH  12  25
TORSDOF 4
ENDMDL
MODEL 8
REMARK VINA RESULT:      -6.6      5.241      7.828
REMARK  4 active torsions:
REMARK  status: ('A' for Active; 'I' for Inactive)
REMARK    1  A    between atoms: N_1  and  C_2 
REMARK    2  A    between atoms: C_10  and  C_18 
REMARK    3  A    between atoms: N_13  and  C_14 
REMARK    4  A    between atoms: C_18  and  C_19 
ROOT
HETATM    1  C   UNK N   1      21.763  18.575   3.566  0.00  0.00     0.116 A 
HETATM    2  N   UNK N   1      21.739  19.746   2.865  0.00  0.00    -0.338 N 
ATOM      3  HN  UNK N   1      20.880  20.023   2.390  1.00  0.00     0.168 HD
HETATM    4  C   UNK N   1      22.837  20.556   2.784  0.00  0.00     0.183 A 
HETATM    5  N   UNK N   1      23.984  20.225   3.438  0.00  0.00    -0.336 N 
ATOM      6  HN  UNK N   1      24.799  20.838   3.406  1.00  0.00     0.168 HD
HETATM    7  C   UNK N   1      24.020  19.064   4.133  0.00  0.00     0.140 A 
HETATM    8  C   UNK N   1      22.958  18.203   4.212  0.00  0.00     0.077 A 
HETATM    9  C   UNK N   1      23.434  17.135   5.001  0.00  0.00     0.048 A 
HETATM   10  N   UNK N   1      24.700  17.436   5.389  0.00  0.00    -0.299 N 
ATOM     11  HN  UNK N   1      25.288  16.857   5.988  1.00  0.00     0.187 HD
HETATM   12  N   UNK N   1      25.048  18.602   4.864  0.00  0.00    -0.267 N 
ENDROOT
BRANCH   9  13
HETATM   13  C   UNK N   1      22.834  15.814   5.425  0.00  0.00     0.099 C 
BRANCH  13  14
HETATM   14  C   UNK N   1      22.038  15.722   6.687  0.00  0.00    -0.046 A 
HETATM   15  C   UNK N   1      21.162  16.757   7.047  0.00  0.00     0.014 A 
HETATM   16  C   UNK N   1      20.438  16.678   8.242  0.00  0.00    -0.061 A 
HETATM   17  C   UNK N   1      20.558  15.552   9.060  0.00  0.00     0.007 A 
HETATM   18  C   UNK N   1      19.571  17.808   8.663  0.00  0.00     0.048 C 
HETATM   19  C   UNK N   1      21.393  14.498   8.682  0.00  0.00     0.008 A 
HETATM   20  C   UNK N   1      22.136  14.577   7.501  0.00  0.00    -0.055 A 
HETATM   21  C   UNK N   1      23.014  13.431   7.121  0.00  0.00     0.049 C 
ENDBRANCH  13  14
ENDBRANCH   9  13
BRANCH   1  22
HETATM   22  N   UNK N   1      20.579  17.831   3.682  0.00  0.00    -0.385 N 
HETATM   23  H   UNK N   1      19.711  18.241   3.463  0.00  0.00     0.157 HD
HETATM   24  H   UNK N   1      20.617  16.894   3.983  0.00  0.00     0.157 HD
ENDBRANCH   1  22
BRANCH  12  25
HETATM   25  C   UNK N   1      26.343  19.264   5.088  0.00  0.00     0.044 C 
HETATM   26  C   UNK N   1      27.274  18.339   5.849  0.00  0.00     0.039 C 
HETATM   27  C   UNK N   1      26.172  20.544   5.891  0.00  0.00     0.039 C 
HETATM   28  C   UNK N   1      26.985  19.634   3.761  0.00  0.00     0.039 C 
ENDBRANCH  12  25
TORSDOF 4
ENDMDL
MODEL 9
REMARK VINA RESULT:      -6.5      8.049     12.400
REMARK  4 active torsions:
REMARK  status: ('A' for Active; 'I' for Inactive)
REMARK    1  A    between atoms: N_1  and  C_2 
REMARK    2  A    between atoms: C_10  and  C_18 
REMARK    3  A    between atoms: N_13  and  C_14 
REMARK    4  A    between atoms: C_18  and  C_19 
ROOT
HETATM    1  C   UNK N   1      35.613  14.411  12.300  0.00  0.00     0.116 A 
HETATM    2  N   UNK N   1      34.832  15.103  11.421  0.00  0.00    -0.338 N 
ATOM      3  HN  UNK N   1      34.795  16.120  11.484  1.00  0.00     0.168 HD
HETATM    4  C   UNK N   1      34.098  14.467  10.459  0.00  0.00     0.183 A 
HETATM    5  N   UNK N   1      34.158  13.113  10.334  0.00  0.00    -0.336 N 
ATOM      6  HN  UNK N   1      33.635  12.633   9.601  1.00  0.00     0.168 HD
HETATM    7  C   UNK N   1      34.927  12.417  11.203  0.00  0.00     0.140 A 
HETATM    8  C   UNK N   1      35.649  13.006  12.205  0.00  0.00     0.077 A 
HETATM    9  C   UNK N   1      36.270  11.927  12.868  0.00  0.00     0.048 A 
HETATM   10  N   UNK N   1      35.941  10.787  12.207  0.00  0.00    -0.299 N 
ATOM     11  HN  UNK N   1      36.265   9.851  12.446  1.00  0.00     0.187 HD
HETATM   12  N   UNK N   1      35.131  11.089  11.202  0.00  0.00    -0.267 N 
ENDROOT
BRANCH   9  13
HETATM   13  C   UNK N   1      37.140  11.832  14.101  0.00  0.00     0.099 C 
BRANCH  13  14
HETATM   14  C   UNK N   1      36.513  11.714  15.453  0.00  0.00    -0.046 A 
HETATM   15  C   UNK N   1      36.025  12.854  16.109  0.00  0.00     0.014 A 
HETATM   16  C   UNK N   1      35.462  12.740  17.384  0.00  0.00    -0.061 A 
HETATM   17  C   UNK N   1      35.352  11.487  17.992  0.00  0.00     0.007 A 
HETATM   18  C   UNK N   1      35.016  13.957  18.112  0.00  0.00     0.048 C 
HETATM   19  C   UNK N   1      35.794  10.343  17.324  0.00  0.00     0.008 A 
HETATM   20  C   UNK N   1      36.376  10.449  16.058  0.00  0.00    -0.055 A 
HETATM   21  C   UNK N   1      36.833   9.208  15.367  0.00  0.00     0.049 C 
ENDBRANCH  13  14
ENDBRANCH   9  13
BRANCH   1  22
HETATM   22  N   UNK N   1      36.407  15.127  13.208  0.00  0.00    -0.385 N 
HETATM   23  H   UNK N   1      36.768  16.010  12.965  0.00  0.00     0.157 HD
HETATM   24  H   UNK N   1      36.605  14.744  14.094  0.00  0.00     0.157 HD
ENDBRANCH   1  22
BRANCH  12  25
HETATM   25  C   UNK N   1      34.588  10.110  10.247  0.00  0.00     0.044 C 
HETATM   26  C   UNK N   1      35.054  10.441   8.842  0.00  0.00     0.039 C 
HETATM   27  C   UNK N   1      33.067  10.114  10.264  0.00  0.00     0.039 C 
HETATM   28  C   UNK N   1      35.048   8.707  10.608  0.00  0.00     0.039 C 
ENDBRANCH  12  25
TORSDOF 4
ENDMDL
