MODEL 1
REMARK VINA RESULT:      -8.2      0.000      0.000
REMARK  0 active torsions:
REMARK  status: ('A' for Active; 'I' for Inactive)
ROOT
HETATM    1  C   UNK N   1      27.716  21.550  -7.820  0.00  0.00     0.163 A 
HETATM    2  N   UNK N   1      26.525  22.151  -8.413  0.00  0.00    -0.353 N 
HETATM    3  C   UNK N   1      28.000  22.505  -6.691  0.00  0.00    -0.010 A 
HETATM    4  C   UNK N   1      29.022  22.487  -5.734  0.00  0.00     0.014 A 
HETATM    5  C   UNK N   1      29.109  23.475  -4.762  0.00  0.00     0.072 A 
HETATM    6  N   UNK N   1      30.168  23.266  -3.944  0.00  0.00    -0.353 N 
HETATM    7  C   UNK N   1      30.744  22.130  -4.417  0.00  0.00     0.043 A 
HETATM    8  C   UNK N   1      30.063  21.635  -5.510  0.00  0.00     0.004 A 
HETATM    9  C   UNK N   1      30.461  20.478  -6.173  0.00  0.00     0.014 A 
HETATM   10  C   UNK N   1      31.599  19.811  -5.690  0.00  0.00     0.001 A 
HETATM   11  C   UNK N   1      32.302  20.313  -4.569  0.00  0.00     0.002 A 
HETATM   12  C   UNK N   1      31.874  21.488  -3.919  0.00  0.00     0.030 A 
HETATM   13  O   UNK N   1      25.202  23.947  -8.056  0.00  0.00    -0.268 OA
HETATM   14  C   UNK N   1      26.167  23.267  -7.750  0.00  0.00     0.253 A 
HETATM   15  C   UNK N   1      27.066  23.520  -6.666  0.00  0.00     0.054 A 
HETATM   16  C   UNK N   1      27.144  24.526  -5.687  0.00  0.00     0.022 A 
HETATM   17  C   UNK N   1      28.161  24.506  -4.738  0.00  0.00     0.073 A 
HETATM   18  N   UNK N   1      28.062  25.555  -3.888  0.00  0.00    -0.353 N 
HETATM   19  C   UNK N   1      26.969  26.237  -4.314  0.00  0.00     0.043 A 
HETATM   20  C   UNK N   1      26.388  25.631  -5.412  0.00  0.00     0.004 A 
HETATM   21  C   UNK N   1      25.252  26.149  -6.026  0.00  0.00     0.014 A 
HETATM   22  C   UNK N   1      24.700  27.326  -5.493  0.00  0.00     0.001 A 
HETATM   23  C   UNK N   1      25.291  27.950  -4.370  0.00  0.00     0.002 A 
HETATM   24  C   UNK N   1      26.441  27.403  -3.767  0.00  0.00     0.030 A 
HETATM   25  H   UNK N   1      26.048  21.787  -9.193  0.00  0.00     0.163 HD
HETATM   26  H   UNK N   1      30.455  23.813  -3.178  0.00  0.00     0.166 HD
HETATM   27  H   UNK N   1      28.651  25.774  -3.130  0.00  0.00     0.166 HD
ENDROOT
TORSDOF 0
ENDMDL
MODEL 2
REMARK VINA RESULT:      -8.0      1.195      6.034
REMARK  0 active torsions:
REMARK  status: ('A' for Active; 'I' for Inactive)
ROOT
HETATM    1  C   UNK N   1      26.667  23.119  -7.655  0.00  0.00     0.163 A 
HETATM    2  N   UNK N   1      27.296  21.909  -8.177  0.00  0.00    -0.353 N 
HETATM    3  C   UNK N   1      27.531  23.409  -6.456  0.00  0.00    -0.010 A 
HETATM    4  C   UNK N   1      27.451  24.448  -5.521  0.00  0.00     0.014 A 
HETATM    5  C   UNK N   1      28.358  24.538  -4.473  0.00  0.00     0.072 A 
HETATM    6  N   UNK N   1      28.099  25.613  -3.692  0.00  0.00    -0.353 N 
HETATM    7  C   UNK N   1      27.014  26.197  -4.266  0.00  0.00     0.043 A 
HETATM    8  C   UNK N   1      26.600  25.505  -5.385  0.00  0.00     0.004 A 
HETATM    9  C   UNK N   1      25.507  25.907  -6.147  0.00  0.00     0.014 A 
HETATM   10  C   UNK N   1      24.821  27.063  -5.738  0.00  0.00     0.001 A 
HETATM   11  C   UNK N   1      25.240  27.778  -4.592  0.00  0.00     0.002 A 
HETATM   12  C   UNK N   1      26.352  27.345  -3.841  0.00  0.00     0.030 A 
HETATM   13  O   UNK N   1      29.036  20.567  -7.653  0.00  0.00    -0.268 OA
HETATM   14  C   UNK N   1      28.348  21.547  -7.419  0.00  0.00     0.253 A 
HETATM   15  C   UNK N   1      28.526  22.461  -6.333  0.00  0.00     0.054 A 
HETATM   16  C   UNK N   1      29.450  22.542  -5.276  0.00  0.00     0.022 A 
HETATM   17  C   UNK N   1      29.368  23.575  -4.349  0.00  0.00     0.073 A 
HETATM   18  N   UNK N   1      30.343  23.477  -3.414  0.00  0.00    -0.353 N 
HETATM   19  C   UNK N   1      31.040  22.367  -3.765  0.00  0.00     0.043 A 
HETATM   20  C   UNK N   1      30.517  21.775  -4.899  0.00  0.00     0.004 A 
HETATM   21  C   UNK N   1      31.066  20.622  -5.450  0.00  0.00     0.014 A 
HETATM   22  C   UNK N   1      32.187  20.062  -4.814  0.00  0.00     0.001 A 
HETATM   23  C   UNK N   1      32.725  20.664  -3.653  0.00  0.00     0.002 A 
HETATM   24  C   UNK N   1      32.150  21.832  -3.116  0.00  0.00     0.030 A 
HETATM   25  H   UNK N   1      26.990  21.424  -8.977  0.00  0.00     0.163 HD
HETATM   26  H   UNK N   1      28.586  25.907  -2.888  0.00  0.00     0.166 HD
HETATM   27  H   UNK N   1      30.508  24.076  -2.651  0.00  0.00     0.166 HD
ENDROOT
TORSDOF 0
ENDMDL
MODEL 3
REMARK VINA RESULT:      -7.8      2.050      6.737
REMARK  0 active torsions:
REMARK  status: ('A' for Active; 'I' for Inactive)
ROOT
HETATM    1  C   UNK N   1      29.122  23.955  -2.937  0.00  0.00     0.163 A 
HETATM    2  N   UNK N   1      30.078  22.859  -2.800  0.00  0.00    -0.353 N 
HETATM    3  C   UNK N   1      28.602  23.722  -4.331  0.00  0.00    -0.010 A 
HETATM    4  C   UNK N   1      27.650  24.438  -5.065  0.00  0.00     0.014 A 
HETATM    5  C   UNK N   1      27.305  24.054  -6.355  0.00  0.00     0.072 A 
HETATM    6  N   UNK N   1      26.370  24.882  -6.879  0.00  0.00    -0.353 N 
HETATM    7  C   UNK N   1      26.133  25.791  -5.898  0.00  0.00     0.043 A 
HETATM    8  C   UNK N   1      26.902  25.542  -4.780  0.00  0.00     0.004 A 
HETATM    9  C   UNK N   1      26.838  26.337  -3.641  0.00  0.00     0.014 A 
HETATM   10  C   UNK N   1      25.950  27.427  -3.657  0.00  0.00     0.001 A 
HETATM   11  C   UNK N   1      25.158  27.688  -4.800  0.00  0.00     0.002 A 
HETATM   12  C   UNK N   1      25.245  26.863  -5.939  0.00  0.00     0.030 A 
HETATM   13  O   UNK N   1      30.838  21.135  -4.046  0.00  0.00    -0.268 OA
HETATM   14  C   UNK N   1      30.116  22.109  -3.917  0.00  0.00     0.253 A 
HETATM   15  C   UNK N   1      29.206  22.618  -4.898  0.00  0.00     0.054 A 
HETATM   16  C   UNK N   1      28.865  22.220  -6.202  0.00  0.00     0.022 A 
HETATM   17  C   UNK N   1      27.918  22.934  -6.930  0.00  0.00     0.073 A 
HETATM   18  N   UNK N   1      27.731  22.393  -8.157  0.00  0.00    -0.353 N 
HETATM   19  C   UNK N   1      28.573  21.330  -8.193  0.00  0.00     0.043 A 
HETATM   20  C   UNK N   1      29.278  21.200  -7.012  0.00  0.00     0.004 A 
HETATM   21  C   UNK N   1      30.204  20.180  -6.814  0.00  0.00     0.014 A 
HETATM   22  C   UNK N   1      30.407  19.268  -7.863  0.00  0.00     0.001 A 
HETATM   23  C   UNK N   1      29.688  19.397  -9.074  0.00  0.00     0.002 A 
HETATM   24  C   UNK N   1      28.756  20.440  -9.248  0.00  0.00     0.030 A 
HETATM   25  H   UNK N   1      30.621  22.692  -1.996  0.00  0.00     0.163 HD
HETATM   26  H   UNK N   1      25.954  24.835  -7.770  0.00  0.00     0.166 HD
HETATM   27  H   UNK N   1      27.121  22.704  -8.865  0.00  0.00     0.166 HD
ENDROOT
TORSDOF 0
ENDMDL
MODEL 4
REMARK VINA RESULT:      -7.8     17.228     20.057
REMARK  0 active torsions:
REMARK  status: ('A' for Active; 'I' for Inactive)
ROOT
HETATM    1  C   UNK N   1      34.339  11.270  10.596  0.00  0.00     0.163 A 
HETATM    2  N   UNK N   1      33.692  11.195   9.289  0.00  0.00    -0.353 N 
HETATM    3  C   UNK N   1      34.603  12.748  10.712  0.00  0.00    -0.010 A 
HETATM    4  C   UNK N   1      35.208  13.474  11.745  0.00  0.00     0.014 A 
HETATM    5  C   UNK N   1      35.358  14.852  11.657  0.00  0.00     0.072 A 
HETATM    6  N   UNK N   1      35.966  15.350  12.760  0.00  0.00    -0.353 N 
HETATM    7  C   UNK N   1      36.194  14.263  13.542  0.00  0.00     0.043 A 
HETATM    8  C   UNK N   1      35.741  13.105  12.945  0.00  0.00     0.004 A 
HETATM    9  C   UNK N   1      35.861  11.859  13.550  0.00  0.00     0.014 A 
HETATM   10  C   UNK N   1      36.470  11.807  14.816  0.00  0.00     0.001 A 
HETATM   11  C   UNK N   1      36.938  12.990  15.435  0.00  0.00     0.002 A 
HETATM   12  C   UNK N   1      36.801  14.239  14.795  0.00  0.00     0.030 A 
HETATM   13  O   UNK N   1      33.086  12.612   7.637  0.00  0.00    -0.268 OA
HETATM   14  C   UNK N   1      33.591  12.416   8.730  0.00  0.00     0.253 A 
HETATM   15  C   UNK N   1      34.150  13.413   9.591  0.00  0.00     0.054 A 
HETATM   16  C   UNK N   1      34.296  14.807   9.491  0.00  0.00     0.022 A 
HETATM   17  C   UNK N   1      34.898  15.526  10.519  0.00  0.00     0.073 A 
HETATM   18  N   UNK N   1      34.944  16.849  10.233  0.00  0.00    -0.353 N 
HETATM   19  C   UNK N   1      34.363  16.954   9.011  0.00  0.00     0.043 A 
HETATM   20  C   UNK N   1      33.958  15.722   8.533  0.00  0.00     0.004 A 
HETATM   21  C   UNK N   1      33.336  15.578   7.297  0.00  0.00     0.014 A 
HETATM   22  C   UNK N   1      33.125  16.738   6.532  0.00  0.00     0.001 A 
HETATM   23  C   UNK N   1      33.538  18.000   7.016  0.00  0.00     0.002 A 
HETATM   24  C   UNK N   1      34.167  18.118   8.272  0.00  0.00     0.030 A 
HETATM   25  H   UNK N   1      33.373  10.362   8.873  0.00  0.00     0.163 HD
HETATM   26  H   UNK N   1      36.191  16.289  12.953  0.00  0.00     0.166 HD
HETATM   27  H   UNK N   1      35.316  17.573  10.788  0.00  0.00     0.166 HD
ENDROOT
TORSDOF 0
ENDMDL
MODEL 5
REMARK VINA RESULT:      -7.8     11.744     13.762
REMARK  0 active torsions:
REMARK  status: ('A' for Active; 'I' for Inactive)
ROOT
HETATM    1  C   UNK N   1      31.443  16.153   8.472  0.00  0.00     0.163 A 
HETATM    2  N   UNK N   1      30.757  17.082   9.364  0.00  0.00    -0.353 N 
HETATM    3  C   UNK N   1      30.832  16.510   7.143  0.00  0.00    -0.010 A 
HETATM    4  C   UNK N   1      31.070  15.975   5.872  0.00  0.00     0.014 A 
HETATM    5  C   UNK N   1      30.392  16.451   4.757  0.00  0.00     0.072 A 
HETATM    6  N   UNK N   1      30.773  15.797   3.635  0.00  0.00    -0.353 N 
HETATM    7  C   UNK N   1      31.701  14.902   4.062  0.00  0.00     0.043 A 
HETATM    8  C   UNK N   1      31.901  14.991   5.425  0.00  0.00     0.004 A 
HETATM    9  C   UNK N   1      32.804  14.176   6.099  0.00  0.00     0.014 A 
HETATM   10  C   UNK N   1      33.526  13.239   5.340  0.00  0.00     0.001 A 
HETATM   11  C   UNK N   1      33.327  13.142   3.943  0.00  0.00     0.002 A 
HETATM   12  C   UNK N   1      32.403  13.982   3.288  0.00  0.00     0.030 A 
HETATM   13  O   UNK N   1      29.198  18.710   9.209  0.00  0.00    -0.268 OA
HETATM   14  C   UNK N   1      29.890  17.855   8.682  0.00  0.00     0.253 A 
HETATM   15  C   UNK N   1      29.909  17.526   7.290  0.00  0.00     0.054 A 
HETATM   16  C   UNK N   1      29.217  18.016   6.169  0.00  0.00     0.022 A 
HETATM   17  C   UNK N   1      29.455  17.483   4.907  0.00  0.00     0.073 A 
HETATM   18  N   UNK N   1      28.693  18.087   3.965  0.00  0.00    -0.353 N 
HETATM   19  C   UNK N   1      27.971  19.008   4.651  0.00  0.00     0.043 A 
HETATM   20  C   UNK N   1      28.270  18.988   5.999  0.00  0.00     0.004 A 
HETATM   21  C   UNK N   1      27.654  19.845   6.905  0.00  0.00     0.014 A 
HETATM   22  C   UNK N   1      26.702  20.750   6.406  0.00  0.00     0.001 A 
HETATM   23  C   UNK N   1      26.392  20.775   5.027  0.00  0.00     0.002 A 
HETATM   24  C   UNK N   1      27.032  19.895   4.131  0.00  0.00     0.030 A 
HETATM   25  H   UNK N   1      30.908  17.136  10.336  0.00  0.00     0.163 HD
HETATM   26  H   UNK N   1      30.450  15.937   2.715  0.00  0.00     0.166 HD
HETATM   27  H   UNK N   1      28.669  17.899   2.998  0.00  0.00     0.166 HD
ENDROOT
TORSDOF 0
ENDMDL
MODEL 6
REMARK VINA RESULT:      -7.8     17.466     20.754
REMARK  0 active torsions:
REMARK  status: ('A' for Active; 'I' for Inactive)
ROOT
HETATM    1  C   UNK N   1      33.818  12.490   8.518  0.00  0.00     0.163 A 
HETATM    2  N   UNK N   1      33.986  11.220   9.217  0.00  0.00    -0.353 N 
HETATM    3  C   UNK N   1      34.363  13.461   9.532  0.00  0.00    -0.010 A 
HETATM    4  C   UNK N   1      34.484  14.854   9.467  0.00  0.00     0.014 A 
HETATM    5  C   UNK N   1      35.022  15.576  10.525  0.00  0.00     0.072 A 
HETATM    6  N   UNK N   1      35.045  16.902  10.253  0.00  0.00    -0.353 N 
HETATM    7  C   UNK N   1      34.513  17.002   9.006  0.00  0.00     0.043 A 
HETATM    8  C   UNK N   1      34.162  15.765   8.505  0.00  0.00     0.004 A 
HETATM    9  C   UNK N   1      33.596  15.607   7.244  0.00  0.00     0.014 A 
HETATM   10  C   UNK N   1      33.385  16.765   6.476  0.00  0.00     0.001 A 
HETATM   11  C   UNK N   1      33.742  18.037   6.984  0.00  0.00     0.002 A 
HETATM   12  C   UNK N   1      34.314  18.164   8.266  0.00  0.00     0.030 A 
HETATM   13  O   UNK N   1      34.776  10.494  11.207  0.00  0.00    -0.268 OA
HETATM   14  C   UNK N   1      34.536  11.406  10.433  0.00  0.00     0.253 A 
HETATM   15  C   UNK N   1      34.786  12.796  10.665  0.00  0.00     0.054 A 
HETATM   16  C   UNK N   1      35.332  13.515  11.742  0.00  0.00     0.022 A 
HETATM   17  C   UNK N   1      35.450  14.899  11.675  0.00  0.00     0.073 A 
HETATM   18  N   UNK N   1      35.997  15.402  12.807  0.00  0.00    -0.353 N 
HETATM   19  C   UNK N   1      36.222  14.316  13.588  0.00  0.00     0.043 A 
HETATM   20  C   UNK N   1      35.825  13.149  12.963  0.00  0.00     0.004 A 
HETATM   21  C   UNK N   1      35.956  11.905  13.571  0.00  0.00     0.014 A 
HETATM   22  C   UNK N   1      36.514  11.862  14.861  0.00  0.00     0.001 A 
HETATM   23  C   UNK N   1      36.921  13.054  15.504  0.00  0.00     0.002 A 
HETATM   24  C   UNK N   1      36.776  14.301  14.865  0.00  0.00     0.030 A 
HETATM   25  H   UNK N   1      33.732  10.343   8.849  0.00  0.00     0.163 HD
HETATM   26  H   UNK N   1      35.373  17.630  10.828  0.00  0.00     0.166 HD
HETATM   27  H   UNK N   1      36.189  16.345  13.016  0.00  0.00     0.166 HD
ENDROOT
TORSDOF 0
ENDMDL
MODEL 7
REMARK VINA RESULT:      -7.7     13.608     15.917
REMARK  0 active torsions:
REMARK  status: ('A' for Active; 'I' for Inactive)
ROOT
HETATM    1  C   UNK N   1      33.863  14.543   5.322  0.00  0.00     0.163 A 
HETATM    2  N   UNK N   1      32.797  14.781   4.354  0.00  0.00    -0.353 N 
HETATM    3  C   UNK N   1      33.353  15.302   6.518  0.00  0.00    -0.010 A 
HETATM    4  C   UNK N   1      33.921  15.468   7.787  0.00  0.00     0.014 A 
HETATM    5  C   UNK N   1      33.281  16.218   8.765  0.00  0.00     0.072 A 
HETATM    6  N   UNK N   1      34.002  16.247   9.911  0.00  0.00    -0.353 N 
HETATM    7  C   UNK N   1      35.106  15.503   9.637  0.00  0.00     0.043 A 
HETATM    8  C   UNK N   1      35.080  15.016   8.346  0.00  0.00     0.004 A 
HETATM    9  C   UNK N   1      36.101  14.226   7.829  0.00  0.00     0.014 A 
HETATM   10  C   UNK N   1      37.185  13.928   8.673  0.00  0.00     0.001 A 
HETATM   11  C   UNK N   1      37.217  14.425   9.998  0.00  0.00     0.002 A 
HETATM   12  C   UNK N   1      36.167  15.224  10.493  0.00  0.00     0.030 A 
HETATM   13  O   UNK N   1      30.827  15.885   4.269  0.00  0.00    -0.268 OA
HETATM   14  C   UNK N   1      31.825  15.548   4.884  0.00  0.00     0.253 A 
HETATM   15  C   UNK N   1      32.138  15.894   6.237  0.00  0.00     0.054 A 
HETATM   16  C   UNK N   1      31.481  16.655   7.219  0.00  0.00     0.022 A 
HETATM   17  C   UNK N   1      32.048  16.818   8.479  0.00  0.00     0.073 A 
HETATM   18  N   UNK N   1      31.264  17.581   9.277  0.00  0.00    -0.353 N 
HETATM   19  C   UNK N   1      30.195  17.897   8.503  0.00  0.00     0.043 A 
HETATM   20  C   UNK N   1      30.301  17.345   7.240  0.00  0.00     0.004 A 
HETATM   21  C   UNK N   1      29.323  17.532   6.269  0.00  0.00     0.014 A 
HETATM   22  C   UNK N   1      28.203  18.310   6.609  0.00  0.00     0.001 A 
HETATM   23  C   UNK N   1      28.091  18.877   7.900  0.00  0.00     0.002 A 
HETATM   24  C   UNK N   1      29.097  18.672   8.865  0.00  0.00     0.030 A 
HETATM   25  H   UNK N   1      32.790  14.428   3.435  0.00  0.00     0.163 HD
HETATM   26  H   UNK N   1      33.778  16.704  10.754  0.00  0.00     0.166 HD
HETATM   27  H   UNK N   1      31.432  17.847  10.210  0.00  0.00     0.166 HD
ENDROOT
TORSDOF 0
ENDMDL
MODEL 8
REMARK VINA RESULT:      -7.7     21.580     24.919
REMARK  0 active torsions:
REMARK  status: ('A' for Active; 'I' for Inactive)
ROOT
HETATM    1  C   UNK N   1      36.965   9.017  15.211  0.00  0.00     0.163 A 
HETATM    2  N   UNK N   1      37.470   8.277  14.058  0.00  0.00    -0.353 N 
HETATM    3  C   UNK N   1      36.880  10.414  14.654  0.00  0.00    -0.010 A 
HETATM    4  C   UNK N   1      36.463  11.601  15.266  0.00  0.00     0.014 A 
HETATM    5  C   UNK N   1      36.459  12.802  14.568  0.00  0.00     0.072 A 
HETATM    6  N   UNK N   1      36.021  13.820  15.346  0.00  0.00    -0.353 N 
HETATM    7  C   UNK N   1      35.750  13.239  16.544  0.00  0.00     0.043 A 
HETATM    8  C   UNK N   1      36.012  11.885  16.521  0.00  0.00     0.004 A 
HETATM    9  C   UNK N   1      35.813  11.069  17.630  0.00  0.00     0.014 A 
HETATM   10  C   UNK N   1      35.327  11.674  18.803  0.00  0.00     0.001 A 
HETATM   11  C   UNK N   1      35.057  13.062  18.834  0.00  0.00     0.002 A 
HETATM   12  C   UNK N   1      35.269  13.862  17.693  0.00  0.00     0.030 A 
HETATM   13  O   UNK N   1      38.067   8.708  11.922  0.00  0.00    -0.268 OA
HETATM   14  C   UNK N   1      37.652   9.093  13.003  0.00  0.00     0.253 A 
HETATM   15  C   UNK N   1      37.293  10.438  13.337  0.00  0.00     0.054 A 
HETATM   16  C   UNK N   1      37.294  11.647  12.621  0.00  0.00     0.022 A 
HETATM   17  C   UNK N   1      36.879  12.826  13.231  0.00  0.00     0.073 A 
HETATM   18  N   UNK N   1      36.953  13.875  12.378  0.00  0.00    -0.353 N 
HETATM   19  C   UNK N   1      37.420  13.341  11.222  0.00  0.00     0.043 A 
HETATM   20  C   UNK N   1      37.637  11.982  11.340  0.00  0.00     0.004 A 
HETATM   21  C   UNK N   1      38.116  11.216  10.283  0.00  0.00     0.014 A 
HETATM   22  C   UNK N   1      38.379  11.870   9.067  0.00  0.00     0.001 A 
HETATM   23  C   UNK N   1      38.158  13.261   8.941  0.00  0.00     0.002 A 
HETATM   24  C   UNK N   1      37.672  14.013  10.029  0.00  0.00     0.030 A 
HETATM   25  H   UNK N   1      37.653   7.310  14.054  0.00  0.00     0.163 HD
HETATM   26  H   UNK N   1      35.921  14.768  15.100  0.00  0.00     0.166 HD
HETATM   27  H   UNK N   1      36.719  14.815  12.558  0.00  0.00     0.166 HD
ENDROOT
TORSDOF 0
ENDMDL
MODEL 9
REMARK VINA RESULT:      -7.6     14.198     17.444
REMARK  0 active torsions:
REMARK  status: ('A' for Active; 'I' for Inactive)
ROOT
HETATM    1  C   UNK N   1      35.282  16.310  10.172  0.00  0.00     0.163 A 
HETATM    2  N   UNK N   1      34.383  17.428   9.906  0.00  0.00    -0.353 N 
HETATM    3  C   UNK N   1      35.330  15.639   8.824  0.00  0.00    -0.010 A 
HETATM    4  C   UNK N   1      36.026  14.497   8.413  0.00  0.00     0.014 A 
HETATM    5  C   UNK N   1      35.935  14.036   7.106  0.00  0.00     0.072 A 
HETATM    6  N   UNK N   1      36.685  12.923   6.925  0.00  0.00    -0.353 N 
HETATM    7  C   UNK N   1      37.249  12.692   8.140  0.00  0.00     0.043 A 
HETATM    8  C   UNK N   1      36.862  13.640   9.066  0.00  0.00     0.004 A 
HETATM    9  C   UNK N   1      37.308  13.618  10.383  0.00  0.00     0.014 A 
HETATM   10  C   UNK N   1      38.182  12.583  10.757  0.00  0.00     0.001 A 
HETATM   11  C   UNK N   1      38.583  11.608   9.813  0.00  0.00     0.002 A 
HETATM   12  C   UNK N   1      38.113  11.657   8.485  0.00  0.00     0.030 A 
HETATM   13  O   UNK N   1      33.211  18.256   8.160  0.00  0.00    -0.268 OA
HETATM   14  C   UNK N   1      33.969  17.421   8.624  0.00  0.00     0.253 A 
HETATM   15  C   UNK N   1      34.541  16.317   7.916  0.00  0.00     0.054 A 
HETATM   16  C   UNK N   1      34.441  15.859   6.591  0.00  0.00     0.022 A 
HETATM   17  C   UNK N   1      35.134  14.724   6.185  0.00  0.00     0.073 A 
HETATM   18  N   UNK N   1      34.908  14.449   4.878  0.00  0.00    -0.353 N 
HETATM   19  C   UNK N   1      34.062  15.427   4.467  0.00  0.00     0.043 A 
HETATM   20  C   UNK N   1      33.760  16.303   5.492  0.00  0.00     0.004 A 
HETATM   21  C   UNK N   1      32.911  17.389   5.308  0.00  0.00     0.014 A 
HETATM   22  C   UNK N   1      32.357  17.578   4.031  0.00  0.00     0.001 A 
HETATM   23  C   UNK N   1      32.663  16.685   2.979  0.00  0.00     0.002 A 
HETATM   24  C   UNK N   1      33.527  15.592   3.192  0.00  0.00     0.030 A 
HETATM   25  H   UNK N   1      34.114  18.098  10.575  0.00  0.00     0.163 HD
HETATM   26  H   UNK N   1      36.797  12.398   6.100  0.00  0.00     0.166 HD
HETATM   27  H   UNK N   1      35.274  13.706   4.347  0.00  0.00     0.166 HD
ENDROOT
TORSDOF 0
ENDMDL
