REMARK  0 active torsions:
REMARK  status: ('A' for Active; 'I' for Inactive)
ROOT
HETATM    1  C   UNK N   1       1.311   2.762  -0.000  0.00  0.00     0.163 A 
HETATM    2  N   UNK N   1       0.081   3.548  -0.000  0.00  0.00    -0.353 N 
HETATM    3  C   UNK N   1       0.766   1.358  -0.000  0.00  0.00    -0.010 A 
HETATM    4  C   UNK N   1       1.442   0.132  -0.000  0.00  0.00     0.014 A 
HETATM    5  C   UNK N   1       0.744  -1.069   0.000  0.00  0.00     0.072 A 
HETATM    6  N   UNK N   1       1.589  -2.127   0.000  0.00  0.00    -0.353 N 
HETATM    7  C   UNK N   1       2.829  -1.571   0.000  0.00  0.00     0.043 A 
HETATM    8  C   UNK N   1       2.766  -0.193  -0.000  0.00  0.00     0.004 A 
HETATM    9  C   UNK N   1       3.906   0.604  -0.000  0.00  0.00     0.014 A 
HETATM   10  C   UNK N   1       5.153  -0.045  -0.000  0.00  0.00     0.001 A 
HETATM   11  C   UNK N   1       5.225  -1.458   0.000  0.00  0.00     0.002 A 
HETATM   12  C   UNK N   1       4.051  -2.238   0.000  0.00  0.00     0.030 A 
HETATM   13  O   UNK N   1      -2.147   3.172   0.000  0.00  0.00    -0.268 OA
HETATM   14  C   UNK N   1      -1.003   2.749  -0.000  0.00  0.00     0.253 A 
HETATM   15  C   UNK N   1      -0.614   1.372  -0.000  0.00  0.00     0.054 A 
HETATM   16  C   UNK N   1      -1.331   0.163   0.000  0.00  0.00     0.022 A 
HETATM   17  C   UNK N   1      -0.657  -1.054   0.000  0.00  0.00     0.073 A 
HETATM   18  N   UNK N   1      -1.522  -2.096   0.000  0.00  0.00    -0.353 N 
HETATM   19  C   UNK N   1      -2.750  -1.519   0.000  0.00  0.00     0.043 A 
HETATM   20  C   UNK N   1      -2.664  -0.140   0.000  0.00  0.00     0.004 A 
HETATM   21  C   UNK N   1      -3.795   0.670   0.000  0.00  0.00     0.014 A 
HETATM   22  C   UNK N   1      -5.051   0.040   0.000  0.00  0.00     0.001 A 
HETATM   23  C   UNK N   1      -5.144  -1.371   0.000  0.00  0.00     0.002 A 
HETATM   24  C   UNK N   1      -3.982  -2.168   0.000  0.00  0.00     0.030 A 
HETATM   25  H   UNK N   1       0.049   4.532  -0.000  0.00  0.00     0.163 HD
HETATM   26  H   UNK N   1       1.358  -3.084   0.000  0.00  0.00     0.166 HD
HETATM   27  H   UNK N   1      -1.307  -3.057   0.000  0.00  0.00     0.166 HD
ENDROOT
TORSDOF 0
