MODEL 1
REMARK VINA RESULT:     -12.7      0.000      0.000
REMARK  4 active torsions:
REMARK  status: ('A' for Active; 'I' for Inactive)
REMARK    1  A    between atoms: C_17  and  C_7 
REMARK    2  A    between atoms: C_25  and  C_17 
REMARK    3  A    between atoms: N_28  and  C_24 
REMARK    4  A    between atoms: N_27  and  C_25 
ROOT
HETATM    1  C   UNK N   1      36.366  14.922  10.405  0.00  0.00     0.143 A 
HETATM    2  C   UNK N   1      35.063  12.689  13.163  0.00  0.00     0.155 A 
HETATM    3  C   UNK N   1      33.813  10.518  14.321  0.00  0.00     0.000 A 
HETATM    4  C   UNK N   1      33.958  10.787  15.087  0.00  0.00     0.001 A 
HETATM    5  C   UNK N   1      34.071  10.959  13.673  0.00  0.00     0.001 A 
HETATM    6  C   UNK N   1      34.362  11.496  15.206  0.00  0.00     0.010 A 
HETATM    7  C   UNK N   1      34.475  11.669  13.792  0.00  0.00     0.010 A 
HETATM    8  C   UNK N   1      35.322  13.232  18.387  0.00  0.00     0.045 A 
HETATM    9  C   UNK N   1      35.666  13.825  17.929  0.00  0.00     0.046 A 
HETATM   10  C   UNK N   1      34.937  12.537  17.199  0.00  0.00     0.057 A 
HETATM   11  C   UNK N   1      36.104  14.500  12.531  0.00  0.00     0.047 A 
HETATM   12  C   UNK N   1      36.328  14.879  11.832  0.00  0.00     0.118 A 
HETATM   13  C   UNK N   1      34.918  12.473  15.477  0.00  0.00     0.021 A 
HETATM   14  C   UNK N   1      35.734  13.826  11.070  0.00  0.00     0.155 A 
HETATM   15  C   UNK N   1      35.579  13.630  15.389  0.00  0.00     0.168 A 
HETATM   16  C   UNK N   1      35.047  12.672  13.853  0.00  0.00     0.204 A 
HETATM   17  C   UNK N   1      34.621  11.937  14.558  0.00  0.00    -0.024 A 
HETATM   18  C   UNK N   1      34.958  12.588  18.021  0.00  0.00     0.117 A 
HETATM   19  C   UNK N   1      35.645  13.775  17.105  0.00  0.00     0.127 A 
HETATM   20  C   UNK N   1      35.281  13.131  16.740  0.00  0.00     0.013 A 
HETATM   21  C   UNK N   1      35.696  13.784  12.498  0.00  0.00     0.125 A 
HETATM   22  C   UNK N   1      35.261  13.081  15.917  0.00  0.00    -0.028 A 
HETATM   23  C   UNK N   1      35.511  13.448  11.768  0.00  0.00     0.210 A 
HETATM   24  C   UNK N   1      35.657  13.741  13.925  0.00  0.00     0.322 A 
HETATM   25  C   UNK N   1      35.024  12.646  14.677  0.00  0.00     0.104 A 
HETATM   26  N   UNK N   1      36.143  14.542  11.102  0.00  0.00    -0.414 N 
HETATM   27  N   UNK N   1      35.433  13.361  14.623  0.00  0.00    -0.311 N 
HETATM   28  N   UNK N   1      35.472  13.405  13.195  0.00  0.00    -0.331 N 
HETATM   29  O   UNK N   1      34.704  12.064  13.412  0.00  0.00    -0.398 OA
HETATM   30  O   UNK N   1      36.066  14.457  13.959  0.00  0.00    -0.247 OA
HETATM   31  F   UNK N   1      34.614  11.994  18.479  0.00  0.00    -0.206 F 
HETATM   32  F   UNK N   1      35.989  14.369  16.647  0.00  0.00    -0.205 F 
HETATM   33  F   UNK N   1      35.102  12.732  11.735  0.00  0.00    -0.246 F 
HETATM   34  H   UNK N   1      34.730  12.093  12.443  0.00  0.00     0.209 HD
ENDROOT
TORSDOF 4
ENDMDL
MODEL 2
REMARK VINA RESULT:     -12.3      1.796      3.305
REMARK  4 active torsions:
REMARK  status: ('A' for Active; 'I' for Inactive)
REMARK    1  A    between atoms: C_17  and  C_7 
REMARK    2  A    between atoms: C_25  and  C_17 
REMARK    3  A    between atoms: N_28  and  C_24 
REMARK    4  A    between atoms: N_27  and  C_25 
ROOT
HETATM    1  C   UNK N   1      36.622  13.794  12.158  0.00  0.00     0.143 A 
HETATM    2  C   UNK N   1      35.758  13.300  15.805  0.00  0.00     0.155 A 
HETATM    3  C   UNK N   1      35.248  13.987  18.429  0.00  0.00     0.000 A 
HETATM    4  C   UNK N   1      35.114  13.205  18.654  0.00  0.00     0.001 A 
HETATM    5  C   UNK N   1      35.441  14.164  17.646  0.00  0.00     0.001 A 
HETATM    6  C   UNK N   1      35.173  12.599  18.097  0.00  0.00     0.010 A 
HETATM    7  C   UNK N   1      35.500  13.558  17.089  0.00  0.00     0.010 A 
HETATM    8  C   UNK N   1      34.691   8.902  18.482  0.00  0.00     0.045 A 
HETATM    9  C   UNK N   1      34.861   8.822  17.679  0.00  0.00     0.046 A 
HETATM   10  C   UNK N   1      34.865  10.316  18.379  0.00  0.00     0.057 A 
HETATM   11  C   UNK N   1      36.111  12.471  13.817  0.00  0.00     0.047 A 
HETATM   12  C   UNK N   1      36.308  12.731  13.059  0.00  0.00     0.118 A 
HETATM   13  C   UNK N   1      35.231  11.683  17.395  0.00  0.00     0.021 A 
HETATM   14  C   UNK N   1      36.347  14.079  13.531  0.00  0.00     0.155 A 
HETATM   15  C   UNK N   1      35.388  10.911  16.317  0.00  0.00     0.168 A 
HETATM   16  C   UNK N   1      35.606  12.784  16.237  0.00  0.00     0.204 A 
HETATM   17  C   UNK N   1      35.366  12.776  17.314  0.00  0.00    -0.024 A 
HETATM   18  C   UNK N   1      34.693   9.649  18.832  0.00  0.00     0.117 A 
HETATM   19  C   UNK N   1      35.033   9.490  17.225  0.00  0.00     0.127 A 
HETATM   20  C   UNK N   1      35.036  10.237  17.575  0.00  0.00     0.013 A 
HETATM   21  C   UNK N   1      36.033  13.015  14.432  0.00  0.00     0.125 A 
HETATM   22  C   UNK N   1      35.208  10.904  17.122  0.00  0.00    -0.028 A 
HETATM   23  C   UNK N   1      36.151  13.819  14.289  0.00  0.00     0.210 A 
HETATM   24  C   UNK N   1      35.718  11.952  15.333  0.00  0.00     0.322 A 
HETATM   25  C   UNK N   1      35.425  12.170  16.758  0.00  0.00     0.104 A 
HETATM   26  N   UNK N   1      36.426  13.535  12.916  0.00  0.00    -0.414 N 
HETATM   27  N   UNK N   1      35.522  11.693  16.092  0.00  0.00    -0.311 N 
HETATM   28  N   UNK N   1      35.836  12.756  15.190  0.00  0.00    -0.331 N 
HETATM   29  O   UNK N   1      35.629  13.563  16.509  0.00  0.00    -0.398 OA
HETATM   30  O   UNK N   1      35.796  11.407  14.719  0.00  0.00    -0.247 OA
HETATM   31  F   UNK N   1      34.523   9.729  19.635  0.00  0.00    -0.206 F 
HETATM   32  F   UNK N   1      35.203   9.410  16.422  0.00  0.00    -0.205 F 
HETATM   33  F   UNK N   1      36.072  14.363  14.903  0.00  0.00    -0.246 F 
HETATM   34  H   UNK N   1      35.843  14.285  15.897  0.00  0.00     0.209 HD
ENDROOT
TORSDOF 4
ENDMDL
MODEL 3
REMARK VINA RESULT:     -11.9      9.877     11.973
REMARK  4 active torsions:
REMARK  status: ('A' for Active; 'I' for Inactive)
REMARK    1  A    between atoms: C_17  and  C_7 
REMARK    2  A    between atoms: C_25  and  C_17 
REMARK    3  A    between atoms: N_28  and  C_24 
REMARK    4  A    between atoms: N_27  and  C_25 
ROOT
HETATM    1  C   UNK N   1      31.563  14.946   4.523  0.00  0.00     0.143 A 
HETATM    2  C   UNK N   1      29.569  17.076   6.927  0.00  0.00     0.155 A 
HETATM    3  C   UNK N   1      28.525  17.916   9.339  0.00  0.00     0.000 A 
HETATM    4  C   UNK N   1      28.120  18.547   8.995  0.00  0.00     0.001 A 
HETATM    5  C   UNK N   1      28.980  17.412   8.870  0.00  0.00     0.001 A 
HETATM    6  C   UNK N   1      28.169  18.673   8.181  0.00  0.00     0.010 A 
HETATM    7  C   UNK N   1      29.029  17.539   8.056  0.00  0.00     0.010 A 
HETATM    8  C   UNK N   1      26.589  21.317   6.045  0.00  0.00     0.045 A 
HETATM    9  C   UNK N   1      26.957  20.973   5.392  0.00  0.00     0.046 A 
HETATM   10  C   UNK N   1      27.171  20.328   6.895  0.00  0.00     0.057 A 
HETATM   11  C   UNK N   1      30.244  16.644   4.896  0.00  0.00     0.047 A 
HETATM   12  C   UNK N   1      30.717  16.096   4.500  0.00  0.00     0.118 A 
HETATM   13  C   UNK N   1      28.173  18.934   7.055  0.00  0.00     0.021 A 
HETATM   14  C   UNK N   1      30.990  15.435   5.737  0.00  0.00     0.155 A 
HETATM   15  C   UNK N   1      28.418  18.914   5.742  0.00  0.00     0.168 A 
HETATM   16  C   UNK N   1      29.161  17.632   6.911  0.00  0.00     0.204 A 
HETATM   17  C   UNK N   1      28.623  18.169   7.712  0.00  0.00    -0.024 A 
HETATM   18  C   UNK N   1      26.696  20.994   6.796  0.00  0.00     0.117 A 
HETATM   19  C   UNK N   1      27.433  20.306   5.490  0.00  0.00     0.127 A 
HETATM   20  C   UNK N   1      27.540  19.983   6.242  0.00  0.00     0.013 A 
HETATM   21  C   UNK N   1      30.143  16.586   5.713  0.00  0.00     0.125 A 
HETATM   22  C   UNK N   1      28.016  19.316   6.341  0.00  0.00    -0.028 A 
HETATM   23  C   UNK N   1      30.516  15.982   6.133  0.00  0.00     0.210 A 
HETATM   24  C   UNK N   1      29.297  17.737   5.690  0.00  0.00     0.322 A 
HETATM   25  C   UNK N   1      28.672  18.296   6.898  0.00  0.00     0.104 A 
HETATM   26  N   UNK N   1      31.090  15.492   4.920  0.00  0.00    -0.414 N 
HETATM   27  N   UNK N   1      28.823  18.284   6.087  0.00  0.00    -0.311 N 
HETATM   28  N   UNK N   1      29.670  17.133   6.110  0.00  0.00    -0.331 N 
HETATM   29  O   UNK N   1      29.318  17.249   7.626  0.00  0.00    -0.398 OA
HETATM   30  O   UNK N   1      29.397  17.795   4.873  0.00  0.00    -0.247 OA
HETATM   31  F   UNK N   1      26.328  21.338   7.449  0.00  0.00    -0.206 F 
HETATM   32  F   UNK N   1      27.802  19.962   4.837  0.00  0.00    -0.205 F 
HETATM   33  F   UNK N   1      30.416  15.924   6.950  0.00  0.00    -0.246 F 
HETATM   34  H   UNK N   1      29.893  16.468   7.641  0.00  0.00     0.209 HD
ENDROOT
TORSDOF 4
ENDMDL
MODEL 4
REMARK VINA RESULT:     -11.9      8.914      9.799
REMARK  4 active torsions:
REMARK  status: ('A' for Active; 'I' for Inactive)
REMARK    1  A    between atoms: C_17  and  C_7 
REMARK    2  A    between atoms: C_25  and  C_17 
REMARK    3  A    between atoms: N_28  and  C_24 
REMARK    4  A    between atoms: N_27  and  C_25 
ROOT
HETATM    1  C   UNK N   1      32.172  14.319   3.087  0.00  0.00     0.143 A 
HETATM    2  C   UNK N   1      32.578  16.587   6.084  0.00  0.00     0.155 A 
HETATM    3  C   UNK N   1      33.869  18.183   7.928  0.00  0.00     0.000 A 
HETATM    4  C   UNK N   1      33.173  18.349   8.338  0.00  0.00     0.001 A 
HETATM    5  C   UNK N   1      33.851  17.694   7.264  0.00  0.00     0.001 A 
HETATM    6  C   UNK N   1      32.458  18.026   8.084  0.00  0.00     0.010 A 
HETATM    7  C   UNK N   1      33.134  17.371   7.010  0.00  0.00     0.010 A 
HETATM    8  C   UNK N   1      29.003  18.392   9.492  0.00  0.00     0.045 A 
HETATM    9  C   UNK N   1      28.733  17.899   8.888  0.00  0.00     0.046 A 
HETATM   10  C   UNK N   1      30.335  18.279   8.988  0.00  0.00     0.057 A 
HETATM   11  C   UNK N   1      31.302  15.389   4.779  0.00  0.00     0.047 A 
HETATM   12  C   UNK N   1      31.369  14.912   4.109  0.00  0.00     0.118 A 
HETATM   13  C   UNK N   1      31.409  17.624   7.810  0.00  0.00     0.021 A 
HETATM   14  C   UNK N   1      32.777  15.157   4.074  0.00  0.00     0.155 A 
HETATM   15  C   UNK N   1      30.408  16.986   7.199  0.00  0.00     0.168 A 
HETATM   16  C   UNK N   1      32.186  16.872   6.576  0.00  0.00     0.204 A 
HETATM   17  C   UNK N   1      32.438  17.537   7.420  0.00  0.00    -0.024 A 
HETATM   18  C   UNK N   1      29.804  18.582   9.541  0.00  0.00     0.117 A 
HETATM   19  C   UNK N   1      29.264  17.596   8.334  0.00  0.00     0.127 A 
HETATM   20  C   UNK N   1      30.065  17.786   8.383  0.00  0.00     0.013 A 
HETATM   21  C   UNK N   1      31.973  15.750   5.096  0.00  0.00     0.125 A 
HETATM   22  C   UNK N   1      30.596  17.483   7.830  0.00  0.00    -0.028 A 
HETATM   23  C   UNK N   1      32.710  15.633   4.744  0.00  0.00     0.210 A 
HETATM   24  C   UNK N   1      31.170  16.343   6.118  0.00  0.00     0.322 A 
HETATM   25  C   UNK N   1      31.723  17.214   7.166  0.00  0.00     0.104 A 
HETATM   26  N   UNK N   1      32.106  14.796   3.756  0.00  0.00    -0.414 N 
HETATM   27  N   UNK N   1      31.104  16.820   6.789  0.00  0.00    -0.311 N 
HETATM   28  N   UNK N   1      31.907  16.226   5.766  0.00  0.00    -0.331 N 
HETATM   29  O   UNK N   1      32.999  17.013   6.555  0.00  0.00    -0.398 OA
HETATM   30  O   UNK N   1      30.499  15.982   5.801  0.00  0.00    -0.247 OA
HETATM   31  F   UNK N   1      30.075  19.075  10.145  0.00  0.00    -0.206 F 
HETATM   32  F   UNK N   1      28.994  17.103   7.730  0.00  0.00    -0.205 F 
HETATM   33  F   UNK N   1      33.380  15.994   5.061  0.00  0.00    -0.246 F 
HETATM   34  H   UNK N   1      33.545  16.610   5.861  0.00  0.00     0.209 HD
ENDROOT
TORSDOF 4
ENDMDL
MODEL 5
REMARK VINA RESULT:     -11.8      9.011     10.437
REMARK  4 active torsions:
REMARK  status: ('A' for Active; 'I' for Inactive)
REMARK    1  A    between atoms: C_17  and  C_7 
REMARK    2  A    between atoms: C_25  and  C_17 
REMARK    3  A    between atoms: N_28  and  C_24 
REMARK    4  A    between atoms: N_27  and  C_25 
ROOT
HETATM    1  C   UNK N   1      26.535  15.356   5.027  0.00  0.00     0.143 A 
HETATM    2  C   UNK N   1      28.815  17.146   7.454  0.00  0.00     0.155 A 
HETATM    3  C   UNK N   1      29.541  18.604   9.681  0.00  0.00     0.000 A 
HETATM    4  C   UNK N   1      30.341  18.591   9.483  0.00  0.00     0.001 A 
HETATM    5  C   UNK N   1      28.989  18.232   9.194  0.00  0.00     0.001 A 
HETATM    6  C   UNK N   1      30.591  18.206   8.798  0.00  0.00     0.010 A 
HETATM    7  C   UNK N   1      29.239  17.847   8.508  0.00  0.00     0.010 A 
HETATM    8  C   UNK N   1      34.032  17.797   7.369  0.00  0.00     0.045 A 
HETATM    9  C   UNK N   1      33.695  17.372   6.748  0.00  0.00     0.046 A 
HETATM   10  C   UNK N   1      32.738  17.976   7.948  0.00  0.00     0.057 A 
HETATM   11  C   UNK N   1      28.537  15.990   5.623  0.00  0.00     0.047 A 
HETATM   12  C   UNK N   1      27.924  15.644   5.192  0.00  0.00     0.118 A 
HETATM   13  C   UNK N   1      31.040  17.695   7.863  0.00  0.00     0.021 A 
HETATM   14  C   UNK N   1      26.980  16.107   6.158  0.00  0.00     0.155 A 
HETATM   15  C   UNK N   1      31.172  17.016   6.721  0.00  0.00     0.168 A 
HETATM   16  C   UNK N   1      29.487  17.282   7.529  0.00  0.00     0.204 A 
HETATM   17  C   UNK N   1      30.040  17.834   8.310  0.00  0.00    -0.024 A 
HETATM   18  C   UNK N   1      33.553  18.099   7.969  0.00  0.00     0.117 A 
HETATM   19  C   UNK N   1      32.880  17.248   6.726  0.00  0.00     0.127 A 
HETATM   20  C   UNK N   1      32.400  17.551   7.326  0.00  0.00     0.013 A 
HETATM   21  C   UNK N   1      28.370  16.394   6.322  0.00  0.00     0.125 A 
HETATM   22  C   UNK N   1      31.586  17.428   7.305  0.00  0.00    -0.028 A 
HETATM   23  C   UNK N   1      27.592  16.453   6.590  0.00  0.00     0.210 A 
HETATM   24  C   UNK N   1      29.760  16.682   6.487  0.00  0.00     0.322 A 
HETATM   25  C   UNK N   1      30.289  17.449   7.625  0.00  0.00     0.104 A 
HETATM   26  N   UNK N   1      27.146  15.702   5.459  0.00  0.00    -0.414 N 
HETATM   27  N   UNK N   1      30.371  17.029   6.919  0.00  0.00    -0.311 N 
HETATM   28  N   UNK N   1      28.981  16.741   6.754  0.00  0.00    -0.331 N 
HETATM   29  O   UNK N   1      28.941  17.550   8.088  0.00  0.00    -0.398 OA
HETATM   30  O   UNK N   1      29.927  16.278   5.788  0.00  0.00    -0.247 OA
HETATM   31  F   UNK N   1      33.890  18.524   8.591  0.00  0.00    -0.206 F 
HETATM   32  F   UNK N   1      32.543  16.823   6.105  0.00  0.00    -0.205 F 
HETATM   33  F   UNK N   1      27.425  16.858   7.289  0.00  0.00    -0.246 F 
HETATM   34  H   UNK N   1      27.998  17.355   7.976  0.00  0.00     0.209 HD
ENDROOT
TORSDOF 4
ENDMDL
MODEL 6
REMARK VINA RESULT:     -11.6      2.437      5.406
REMARK  4 active torsions:
REMARK  status: ('A' for Active; 'I' for Inactive)
REMARK    1  A    between atoms: C_17  and  C_7 
REMARK    2  A    between atoms: C_25  and  C_17 
REMARK    3  A    between atoms: N_28  and  C_24 
REMARK    4  A    between atoms: N_27  and  C_25 
ROOT
HETATM    1  C   UNK N   1      34.821   7.691  18.545  0.00  0.00     0.143 A 
HETATM    2  C   UNK N   1      35.200  11.381  17.817  0.00  0.00     0.155 A 
HETATM    3  C   UNK N   1      35.183  14.099  18.298  0.00  0.00     0.000 A 
HETATM    4  C   UNK N   1      35.416  14.281  17.528  0.00  0.00     0.001 A 
HETATM    5  C   UNK N   1      35.081  13.312  18.523  0.00  0.00     0.001 A 
HETATM    6  C   UNK N   1      35.547  13.677  16.983  0.00  0.00     0.010 A 
HETATM    7  C   UNK N   1      35.214  12.707  17.977  0.00  0.00     0.010 A 
HETATM    8  C   UNK N   1      36.604  13.848  13.390  0.00  0.00     0.045 A 
HETATM    9  C   UNK N   1      36.573  13.024  13.369  0.00  0.00     0.046 A 
HETATM   10  C   UNK N   1      36.203  13.827  14.761  0.00  0.00     0.057 A 
HETATM   11  C   UNK N   1      35.300   9.304  17.155  0.00  0.00     0.047 A 
HETATM   12  C   UNK N   1      35.177   8.546  17.458  0.00  0.00     0.118 A 
HETATM   13  C   UNK N   1      35.756  12.905  16.148  0.00  0.00     0.021 A 
HETATM   14  C   UNK N   1      34.833   9.109  18.726  0.00  0.00     0.155 A 
HETATM   15  C   UNK N   1      35.900  11.759  15.477  0.00  0.00     0.168 A 
HETATM   16  C   UNK N   1      35.373  11.791  17.289  0.00  0.00     0.204 A 
HETATM   17  C   UNK N   1      35.446  12.889  17.207  0.00  0.00    -0.024 A 
HETATM   18  C   UNK N   1      36.418  14.249  14.087  0.00  0.00     0.117 A 
HETATM   19  C   UNK N   1      36.357  12.601  14.044  0.00  0.00     0.127 A 
HETATM   20  C   UNK N   1      36.171  13.003  14.741  0.00  0.00     0.013 A 
HETATM   21  C   UNK N   1      35.189   9.964  17.637  0.00  0.00     0.125 A 
HETATM   22  C   UNK N   1      35.955  12.581  15.415  0.00  0.00    -0.028 A 
HETATM   23  C   UNK N   1      34.955   9.866  18.422  0.00  0.00     0.210 A 
HETATM   24  C   UNK N   1      35.545  10.819  16.550  0.00  0.00     0.322 A 
HETATM   25  C   UNK N   1      35.578  12.285  16.662  0.00  0.00     0.104 A 
HETATM   26  N   UNK N   1      34.944   8.449  18.243  0.00  0.00    -0.414 N 
HETATM   27  N   UNK N   1      35.667  11.577  16.247  0.00  0.00    -0.311 N 
HETATM   28  N   UNK N   1      35.311  10.721  17.335  0.00  0.00    -0.331 N 
HETATM   29  O   UNK N   1      35.174  12.116  18.021  0.00  0.00    -0.398 OA
HETATM   30  O   UNK N   1      35.656  10.160  16.067  0.00  0.00    -0.247 OA
HETATM   31  F   UNK N   1      36.449  15.073  14.108  0.00  0.00    -0.206 F 
HETATM   32  F   UNK N   1      36.326  11.777  14.023  0.00  0.00    -0.205 F 
HETATM   33  F   UNK N   1      34.844  10.526  18.905  0.00  0.00    -0.246 F 
HETATM   34  H   UNK N   1      34.932  11.535  18.760  0.00  0.00     0.209 HD
ENDROOT
TORSDOF 4
ENDMDL
MODEL 7
REMARK VINA RESULT:     -11.5     14.361     15.496
REMARK  4 active torsions:
REMARK  status: ('A' for Active; 'I' for Inactive)
REMARK    1  A    between atoms: C_17  and  C_7 
REMARK    2  A    between atoms: C_25  and  C_17 
REMARK    3  A    between atoms: N_28  and  C_24 
REMARK    4  A    between atoms: N_27  and  C_25 
ROOT
HETATM    1  C   UNK N   1      17.777  17.392   8.769  0.00  0.00     0.143 A 
HETATM    2  C   UNK N   1      20.133  14.556   9.604  0.00  0.00     0.155 A 
HETATM    3  C   UNK N   1      21.075  12.312  10.904  0.00  0.00     0.000 A 
HETATM    4  C   UNK N   1      21.764  12.284  10.451  0.00  0.00     0.001 A 
HETATM    5  C   UNK N   1      20.518  12.906  10.773  0.00  0.00     0.001 A 
HETATM    6  C   UNK N   1      21.896  12.850   9.866  0.00  0.00     0.010 A 
HETATM    7  C   UNK N   1      20.651  13.473  10.188  0.00  0.00     0.010 A 
HETATM    8  C   UNK N   1      24.778  13.264   7.506  0.00  0.00     0.045 A 
HETATM    9  C   UNK N   1      24.396  13.926   7.195  0.00  0.00     0.046 A 
HETATM   10  C   UNK N   1      23.700  13.070   8.423  0.00  0.00     0.057 A 
HETATM   11  C   UNK N   1      19.642  16.317   8.411  0.00  0.00     0.047 A 
HETATM   12  C   UNK N   1      19.039  16.876   8.343  0.00  0.00     0.118 A 
HETATM   13  C   UNK N   1      22.173  13.594   9.026  0.00  0.00     0.021 A 
HETATM   14  C   UNK N   1      18.324  16.232   9.400  0.00  0.00     0.155 A 
HETATM   15  C   UNK N   1      22.140  14.612   8.162  0.00  0.00     0.168 A 
HETATM   16  C   UNK N   1      20.743  14.310   9.395  0.00  0.00     0.204 A 
HETATM   17  C   UNK N   1      21.339  13.445   9.734  0.00  0.00    -0.024 A 
HETATM   18  C   UNK N   1      24.430  12.837   8.120  0.00  0.00     0.117 A 
HETATM   19  C   UNK N   1      23.665  14.160   7.499  0.00  0.00     0.127 A 
HETATM   20  C   UNK N   1      23.316  13.732   8.113  0.00  0.00     0.013 A 
HETATM   21  C   UNK N   1      19.587  15.716   8.973  0.00  0.00     0.125 A 
HETATM   22  C   UNK N   1      22.586  13.966   8.416  0.00  0.00    -0.028 A 
HETATM   23  C   UNK N   1      18.927  15.674   9.467  0.00  0.00     0.210 A 
HETATM   24  C   UNK N   1      20.848  15.199   8.547  0.00  0.00     0.322 A 
HETATM   25  C   UNK N   1      21.472  14.011   9.150  0.00  0.00     0.104 A 
HETATM   26  N   UNK N   1      18.380  16.834   8.837  0.00  0.00    -0.414 N 
HETATM   27  N   UNK N   1      21.451  14.640   8.616  0.00  0.00    -0.311 N 
HETATM   28  N   UNK N   1      20.189  15.157   9.042  0.00  0.00    -0.331 N 
HETATM   29  O   UNK N   1      20.330  13.938  10.005  0.00  0.00    -0.398 OA
HETATM   30  O   UNK N   1      20.905  15.800   7.985  0.00  0.00    -0.247 OA
HETATM   31  F   UNK N   1      24.813  12.175   8.430  0.00  0.00    -0.206 F 
HETATM   32  F   UNK N   1      23.282  14.821   7.188  0.00  0.00    -0.205 F 
HETATM   33  F   UNK N   1      18.871  15.073  10.030  0.00  0.00    -0.246 F 
HETATM   34  H   UNK N   1      19.472  14.289  10.295  0.00  0.00     0.209 HD
ENDROOT
TORSDOF 4
ENDMDL
MODEL 8
REMARK VINA RESULT:     -11.4     23.030     25.011
REMARK  4 active torsions:
REMARK  status: ('A' for Active; 'I' for Inactive)
REMARK    1  A    between atoms: C_17  and  C_7 
REMARK    2  A    between atoms: C_25  and  C_17 
REMARK    3  A    between atoms: N_28  and  C_24 
REMARK    4  A    between atoms: N_27  and  C_25 
ROOT
HETATM    1  C   UNK N   1      25.562  21.573  -8.919  0.00  0.00     0.143 A 
HETATM    2  C   UNK N   1      26.992  23.479  -5.985  0.00  0.00     0.155 A 
HETATM    3  C   UNK N   1      28.661  24.022  -3.855  0.00  0.00     0.000 A 
HETATM    4  C   UNK N   1      28.287  24.738  -3.687  0.00  0.00     0.001 A 
HETATM    5  C   UNK N   1      28.398  23.556  -4.483  0.00  0.00     0.001 A 
HETATM    6  C   UNK N   1      27.651  24.989  -4.148  0.00  0.00     0.010 A 
HETATM    7  C   UNK N   1      27.761  23.808  -4.944  0.00  0.00     0.010 A 
HETATM    8  C   UNK N   1      25.563  28.092  -3.904  0.00  0.00     0.045 A 
HETATM    9  C   UNK N   1      25.132  27.822  -4.554  0.00  0.00     0.046 A 
HETATM   10  C   UNK N   1      26.382  26.923  -3.962  0.00  0.00     0.057 A 
HETATM   11  C   UNK N   1      25.538  23.315  -7.605  0.00  0.00     0.047 A 
HETATM   12  C   UNK N   1      25.338  22.793  -8.211  0.00  0.00     0.118 A 
HETATM   13  C   UNK N   1      26.754  25.427  -4.731  0.00  0.00     0.021 A 
HETATM   14  C   UNK N   1      26.390  21.916  -7.806  0.00  0.00     0.155 A 
HETATM   15  C   UNK N   1      25.767  25.594  -5.616  0.00  0.00     0.168 A 
HETATM   16  C   UNK N   1      26.880  24.070  -5.646  0.00  0.00     0.204 A 
HETATM   17  C   UNK N   1      27.387  24.524  -4.776  0.00  0.00    -0.024 A 
HETATM   18  C   UNK N   1      26.188  27.642  -3.609  0.00  0.00     0.117 A 
HETATM   19  C   UNK N   1      25.326  27.102  -4.908  0.00  0.00     0.127 A 
HETATM   20  C   UNK N   1      25.952  26.653  -4.612  0.00  0.00     0.013 A 
HETATM   21  C   UNK N   1      26.165  23.137  -7.098  0.00  0.00     0.125 A 
HETATM   22  C   UNK N   1      26.146  25.934  -4.965  0.00  0.00    -0.028 A 
HETATM   23  C   UNK N   1      26.590  22.437  -7.199  0.00  0.00     0.210 A 
HETATM   24  C   UNK N   1      25.940  24.357  -6.390  0.00  0.00     0.322 A 
HETATM   25  C   UNK N   1      26.751  24.774  -5.237  0.00  0.00     0.104 A 
HETATM   26  N   UNK N   1      25.763  22.093  -8.312  0.00  0.00    -0.414 N 
HETATM   27  N   UNK N   1      26.141  24.878  -5.783  0.00  0.00    -0.311 N 
HETATM   28  N   UNK N   1      26.366  23.657  -6.491  0.00  0.00    -0.331 N 
HETATM   29  O   UNK N   1      27.488  23.563  -5.412  0.00  0.00    -0.398 OA
HETATM   30  O   UNK N   1      25.313  24.535  -6.896  0.00  0.00    -0.247 OA
HETATM   31  F   UNK N   1      26.618  27.912  -2.959  0.00  0.00    -0.206 F 
HETATM   32  F   UNK N   1      24.896  26.833  -5.558  0.00  0.00    -0.205 F 
HETATM   33  F   UNK N   1      27.217  22.259  -6.693  0.00  0.00    -0.246 F 
HETATM   34  H   UNK N   1      27.641  22.734  -5.892  0.00  0.00     0.209 HD
ENDROOT
TORSDOF 4
ENDMDL
MODEL 9
REMARK VINA RESULT:     -11.3      2.072      2.875
REMARK  4 active torsions:
REMARK  status: ('A' for Active; 'I' for Inactive)
REMARK    1  A    between atoms: C_17  and  C_7 
REMARK    2  A    between atoms: C_25  and  C_17 
REMARK    3  A    between atoms: N_28  and  C_24 
REMARK    4  A    between atoms: N_27  and  C_25 
ROOT
HETATM    1  C   UNK N   1      34.475  17.182   8.704  0.00  0.00     0.143 A 
HETATM    2  C   UNK N   1      34.927  14.186  10.966  0.00  0.00     0.155 A 
HETATM    3  C   UNK N   1      34.790  11.554  11.782  0.00  0.00     0.000 A 
HETATM    4  C   UNK N   1      35.151  11.713  12.507  0.00  0.00     0.001 A 
HETATM    5  C   UNK N   1      34.662  12.164  11.242  0.00  0.00     0.001 A 
HETATM    6  C   UNK N   1      35.383  12.483  12.691  0.00  0.00     0.010 A 
HETATM    7  C   UNK N   1      34.895  12.934  11.426  0.00  0.00     0.010 A 
HETATM    8  C   UNK N   1      37.045  13.837  15.766  0.00  0.00     0.045 A 
HETATM    9  C   UNK N   1      37.029  14.584  15.415  0.00  0.00     0.046 A 
HETATM   10  C   UNK N   1      36.412  13.280  14.612  0.00  0.00     0.057 A 
HETATM   11  C   UNK N   1      35.167  16.323  10.588  0.00  0.00     0.047 A 
HETATM   12  C   UNK N   1      35.003  16.873   9.995  0.00  0.00     0.118 A 
HETATM   13  C   UNK N   1      35.744  13.523  13.042  0.00  0.00     0.021 A 
HETATM   14  C   UNK N   1      34.437  15.838   9.189  0.00  0.00     0.155 A 
HETATM   15  C   UNK N   1      36.017  14.830  13.088  0.00  0.00     0.168 A 
HETATM   16  C   UNK N   1      35.183  14.042  11.590  0.00  0.00     0.204 A 
HETATM   17  C   UNK N   1      35.255  13.093  12.151  0.00  0.00    -0.024 A 
HETATM   18  C   UNK N   1      36.736  13.186  15.365  0.00  0.00     0.117 A 
HETATM   19  C   UNK N   1      36.704  14.678  14.662  0.00  0.00     0.127 A 
HETATM   20  C   UNK N   1      36.396  14.027  14.260  0.00  0.00     0.013 A 
HETATM   21  C   UNK N   1      34.965  15.530  10.481  0.00  0.00     0.125 A 
HETATM   22  C   UNK N   1      36.071  14.121  13.508  0.00  0.00    -0.028 A 
HETATM   23  C   UNK N   1      34.600  15.288   9.782  0.00  0.00     0.210 A 
HETATM   24  C   UNK N   1      35.493  15.221  11.772  0.00  0.00     0.322 A 
HETATM   25  C   UNK N   1      35.488  13.863  12.335  0.00  0.00     0.104 A 
HETATM   26  N   UNK N   1      34.638  16.631   9.296  0.00  0.00    -0.414 N 
HETATM   27  N   UNK N   1      35.657  14.670  12.364  0.00  0.00    -0.311 N 
HETATM   28  N   UNK N   1      35.128  14.979  11.072  0.00  0.00    -0.331 N 
HETATM   29  O   UNK N   1      34.855  13.444  11.124  0.00  0.00    -0.398 OA
HETATM   30  O   UNK N   1      35.695  16.014  11.879  0.00  0.00    -0.247 OA
HETATM   31  F   UNK N   1      36.752  12.440  15.716  0.00  0.00    -0.206 F 
HETATM   32  F   UNK N   1      36.688  15.424  14.310  0.00  0.00    -0.205 F 
HETATM   33  F   UNK N   1      34.398  14.496   9.674  0.00  0.00    -0.246 F 
HETATM   34  H   UNK N   1      34.497  13.653  10.247  0.00  0.00     0.209 HD
ENDROOT
TORSDOF 4
ENDMDL
