REMARK  4 active torsions:
REMARK  status: ('A' for Active; 'I' for Inactive)
REMARK    1  A    between atoms: C_17  and  C_7 
REMARK    2  A    between atoms: C_25  and  C_17 
REMARK    3  A    between atoms: N_28  and  C_24 
REMARK    4  A    between atoms: N_27  and  C_25 
ROOT
HETATM    1  C   UNK N   1      -3.687   1.183   0.000  0.00  0.00     0.143 A 
HETATM    2  C   UNK N   1      -0.377  -0.643   0.000  0.00  0.00     0.155 A 
HETATM    3  C   UNK N   1       1.363  -2.785   0.000  0.00  0.00     0.000 A 
HETATM    4  C   UNK N   1       2.030  -2.300   0.000  0.00  0.00     0.001 A 
HETATM    5  C   UNK N   1       0.609  -2.450   0.000  0.00  0.00     0.001 A 
HETATM    6  C   UNK N   1       1.944  -1.480   0.000  0.00  0.00     0.010 A 
HETATM    7  C   UNK N   1       0.523  -1.629   0.000  0.00  0.00     0.010 A 
HETATM    8  C   UNK N   1       4.538   1.226   0.000  0.00  0.00     0.045 A 
HETATM    9  C   UNK N   1       3.925   1.778   0.000  0.00  0.00     0.046 A 
HETATM   10  C   UNK N   1       3.582   0.164   0.000  0.00  0.00     0.057 A 
HETATM   11  C   UNK N   1      -1.505   1.226   0.000  0.00  0.00     0.047 A 
HETATM   12  C   UNK N   1      -2.290   1.480   0.000  0.00  0.00     0.118 A 
HETATM   13  C   UNK N   1       1.929  -0.324   0.000  0.00  0.00     0.021 A 
HETATM   14  C   UNK N   1      -2.731   0.121   0.000  0.00  0.00     0.155 A 
HETATM   15  C   UNK N   1       1.516   0.946   0.000  0.00  0.00     0.168 A 
HETATM   16  C   UNK N   1       0.297  -0.495   0.000  0.00  0.00     0.204 A 
HETATM   17  C   UNK N   1       1.190  -1.144   0.000  0.00  0.00    -0.024 A 
HETATM   18  C   UNK N   1       4.366   0.419   0.000  0.00  0.00     0.117 A 
HETATM   19  C   UNK N   1       3.140   1.523   0.000  0.00  0.00     0.127 A 
HETATM   20  C   UNK N   1       2.968   0.716   0.000  0.00  0.00     0.013 A 
HETATM   21  C   UNK N   1      -1.333   0.419   0.000  0.00  0.00     0.125 A 
HETATM   22  C   UNK N   1       2.184   0.461   0.000  0.00  0.00    -0.028 A 
HETATM   23  C   UNK N   1      -1.946  -0.133   0.000  0.00  0.00     0.210 A 
HETATM   24  C   UNK N   1       0.064   0.716   0.000  0.00  0.00     0.322 A 
HETATM   25  C   UNK N   1       1.104  -0.324   0.000  0.00  0.00     0.104 A 
HETATM   26  N   UNK N   1      -2.903   0.928   0.000  0.00  0.00    -0.414 N 
HETATM   27  N   UNK N   1       0.849   0.461   0.000  0.00  0.00    -0.311 N 
HETATM   28  N   UNK N   1      -0.549   0.164   0.000  0.00  0.00    -0.331 N 
HETATM   29  O   UNK N   1       0.042  -1.280   0.000  0.00  0.00    -0.398 OA
HETATM   30  O   UNK N   1      -0.107   1.523   0.000  0.00  0.00    -0.247 OA
HETATM   31  F   UNK N   1       4.979  -0.133   0.000  0.00  0.00    -0.206 F 
HETATM   32  F   UNK N   1       2.527   2.075   0.000  0.00  0.00    -0.205 F 
HETATM   33  F   UNK N   1      -1.775  -0.940   0.000  0.00  0.00    -0.246 F 
HETATM   34  H   UNK N   1      -0.907  -1.482   0.000  0.00  0.00     0.209 HD
ENDROOT
TORSDOF 4
